@<TRIPOS>MOLECULE
tmp/4epyA01.pdb
 120 113 0 0 0
SMALL
GASTEIGER

@<TRIPOS>ATOM
      1  N         20.6620    4.3970    3.9110 N.3     6  LYS6       -0.1231
      2  CA        20.7980    3.6100    5.1280 C.3     6  LYS6        0.1693
      3  C         19.6120    3.8460    6.0460 C.2     6  LYS6        0.2592
      4  O         19.4750    4.9190    6.6310 O.2     6  LYS6       -0.2718
      5  CB        22.1040    3.9460    5.8460 C.3     6  LYS6        0.0285
      6  CG        23.3420    3.4570    5.1160 C.3     6  LYS6        0.0035
      7  CD        24.6130    4.0210    5.7250 C.3     6  LYS6        0.0206
      8  CE        25.8360    3.5840    4.9320 C.3     6  LYS6        0.1093
      9  NZ        25.7370    3.9930    3.4970 N.3     6  LYS6       -0.1314
     10  N         18.7570    2.8360    6.1650 N.am    7  LEU7       -0.1966
     11  CA        17.5440    2.9500    6.9610 C.3     7  LEU7        0.1728
     12  C         17.6460    2.1000    8.2170 C.2     7  LEU7        0.2616
     13  O         18.2130    1.0080    8.1970 O.2     7  LEU7       -0.2715
     14  CB        16.3260    2.5120    6.1430 C.3     7  LEU7        0.0311
     15  CG        16.2240    3.0870    4.7240 C.3     7  LEU7        0.0022
     16  CD1       14.9470    2.6170    4.0330 C.3     7  LEU7        0.0001
     17  CD2       16.2920    4.6020    4.7550 C.3     7  LEU7        0.0001
     18  N         17.0880    2.6050    9.3090 N.am    8  VAL8       -0.1977
     19  CA        17.0890    1.8810   10.5710 C.3     8  VAL8        0.1596
     20  C         15.6590    1.6930   11.0600 C.2     8  VAL8        0.2287
     21  O         14.9080    2.6560   11.1730 O.2     8  VAL8       -0.2864
     22  CB        17.8750    2.6370   11.6500 C.3     8  VAL8        0.0276
     23  CG1       17.8790    1.8540   12.9520 C.3     8  VAL8        0.0022
     24  CG2       19.2940    2.9110   11.1840 C.3     8  VAL8        0.0022
     25  N         17.5080  -11.5080   17.2240 N.3    37  ILE37      -0.1231
     26  CA        18.4130  -11.4030   16.0800 C.3    37  ILE37       0.1692
     27  C         18.3640  -10.0190   15.4280 C.2    37  ILE37       0.2592
     28  O         17.2960   -9.5130   15.0960 O.2    37  ILE37      -0.2718
     29  CB        18.1100  -12.4840   15.0200 C.3    37  ILE37       0.0266
     30  CG1       18.4520  -13.8720   15.5640 C.3    37  ILE37       0.0019
     31  CG2       18.8880  -12.2170   13.7400 C.3    37  ILE37       0.0020
     32  CD1       18.1580  -15.0020   14.5880 C.3    37  ILE37       0.0001
     33  N         19.5320   -9.4100   15.2590 N.am   38  GLU38      -0.1966
     34  CA        19.6350   -8.1010   14.6330 C.3    38  GLU38       0.1733
     35  C         20.6100   -8.1520   13.4620 C.2    38  GLU38       0.2616
     36  O         21.7560   -8.5590   13.6220 O.2    38  GLU38      -0.2715
     37  CB        20.1040   -7.0740   15.6560 C.3    38  GLU38       0.0429
     38  CG        20.4350   -5.7210   15.0660 C.3    38  GLU38       0.1163
     39  CD        20.9120   -4.7520   16.1220 C.2    38  GLU38       0.3649
     40  OE1       20.0680   -4.2060   16.8610 O.co2  38  GLU38      -0.2457
     41  OE2       22.1360   -4.5470   16.2190 O.co2  38  GLU38      -0.2457
     42  N         20.1540   -7.7390   12.2850 N.am   39  ASP39      -0.1957
     43  CA        20.9800   -7.8060   11.0820 C.3    39  ASP39       0.1840
     44  C         20.5800   -6.7380   10.0840 C.2    39  ASP39       0.2622
     45  O         19.5230   -6.1280   10.2140 O.2    39  ASP39      -0.2715
     46  CB        20.8380   -9.1720   10.4070 C.3    39  ASP39       0.1450
     47  CG        21.5940  -10.2630   11.1230 C.2    39  ASP39       0.3671
     48  OD1       22.7830  -10.0550   11.4440 O.co2  39  ASP39      -0.2456
     49  OD2       20.9930  -11.3340   11.3570 O.co2  39  ASP39      -0.2456
     50  N         21.4310   -6.5260    9.0850 N.am   40  SER40      -0.1950
     51  CA        21.1160   -5.6160    7.9940 C.3    40  SER40       0.1924
     52  C         20.7380   -6.3900    6.7310 C.2    40  SER40       0.2314
     53  O         21.2340   -7.4940    6.4910 O.2    40  SER40      -0.2863
     54  CB        22.2870   -4.6710    7.7120 C.3    40  SER40       0.2116
     55  OG        23.4290   -5.3880    7.2750 O.3    40  SER40      -0.2180
     56  N         19.5430   -0.0140    2.2990 N.3    55  ASP55      -0.1239
     57  CA        20.3930   -0.7490    3.2270 C.3    55  ASP55       0.1674
     58  C         19.7710   -0.6290    4.6120 C.2    55  ASP55       0.2266
     59  O         19.8930    0.4010    5.2640 O.2    55  ASP55      -0.2867
     60  CB        21.8010   -0.1540    3.2230 C.3    55  ASP55       0.1410
     61  CG        22.8190   -1.0380    3.9230 C.2    55  ASP55       0.3668
     62  OD1       22.4300   -2.0310    4.5740 O.co2  55  ASP55      -0.2456
     63  OD2       24.0220   -0.7290    3.8230 O.co2  55  ASP55      -0.2456
     64  N         18.8150   -1.6820    8.5400 N.3    57  LEU57      -0.1245
     65  CA        19.1720   -2.3410    9.7870 C.3    57  LEU57       0.1561
     66  C         17.9270   -2.6940   10.5930 C.2    57  LEU57       0.2260
     67  O         17.2000   -1.8130   11.0520 O.2    57  LEU57      -0.2867
     68  CB        20.0950   -1.4570   10.6230 C.3    57  LEU57       0.0270
     69  CG        20.5940   -2.1110   11.9140 C.3    57  LEU57       0.0019
     70  CD1       21.4900   -3.2940   11.5940 C.3    57  LEU57       0.0001
     71  CD2       21.3220   -1.1010   12.7780 C.3    57  LEU57       0.0001
     72  N         22.4660   -3.6640   22.8830 N.3    63  GLU63      -0.1245
     73  CA        23.6500   -4.1980   22.2310 C.3    63  GLU63       0.1567
     74  C         24.6340   -4.6590   23.2930 C.2    63  GLU63       0.2260
     75  O         24.4820   -4.3250   24.4660 O.2    63  GLU63      -0.2867
     76  CB        24.3210   -3.1180   21.3820 C.3    63  GLU63       0.0388
     77  CG        23.4230   -2.4720   20.3450 C.3    63  GLU63       0.1160
     78  CD        23.2560   -3.3180   19.1050 C.2    63  GLU63       0.3649
     79  OE1       23.6730   -4.4960   19.1140 O.co2  63  GLU63      -0.2457
     80  OE2       22.7130   -2.7980   18.1120 O.co2  63  GLU63      -0.2457
     81  N         27.6480    0.5350   20.2770 N.3    68  MET68      -0.1245
     82  CA        27.1390   -0.0450   19.0370 C.3    68  MET68       0.1570
     83  C         25.7980    0.5740   18.6510 C.2    68  MET68       0.2261
     84  O         25.5110    0.7770   17.4700 O.2    68  MET68      -0.2867
     85  CB        27.0020   -1.5600   19.1770 C.3    68  MET68       0.0387
     86  CG        28.3250   -2.2610   19.3900 C.3    68  MET68       0.0595
     87  SD        28.1360   -3.9440   19.9940 S.3    68  MET68      -0.1393
     88  CE        27.3000   -4.7230   18.6160 C.3    68  MET68       0.0692
     89  N         26.5600    4.0400   17.4200 N.3    71  GLN71      -0.1231
     90  CA        27.1890    3.9390   16.1050 C.3    71  GLN71       0.1698
     91  C         26.1620    3.7920   14.9800 C.2    71  GLN71       0.2592
     92  O         26.2960    4.4240   13.9290 O.2    71  GLN71      -0.2718
     93  CB        28.2030    2.7850   16.0620 C.3    71  GLN71       0.0381
     94  CG        28.8320    2.5350   14.6860 C.3    71  GLN71       0.0905
     95  CD        29.9840    3.4780   14.3640 C.2    71  GLN71       0.2608
     96  OE1       30.4410    4.2400   15.2170 O.2    71  GLN71      -0.2717
     97  NE2       30.4590    3.4250   13.1250 N.am   71  GLN71      -0.0878
     98  N         25.1400    2.9640   15.1800 N.am   72  TYR72      -0.1976
     99  CA        24.1670    2.7750   14.1030 C.3    72  TYR72       0.1639
    100  C         23.1850    3.9380   13.9780 C.2    72  TYR72       0.2290
    101  O         22.5790    4.1340   12.9300 O.2    72  TYR72      -0.2864
    102  CB        23.4710    1.3960   14.1440 C.3    72  TYR72       0.0560
    103  CG        22.3730    1.1640   15.1780 C.ar   72  TYR72      -0.0198
    104  CD1       21.1850    1.8920   15.1550 C.ar   72  TYR72      -0.0009
    105  CD2       22.4930    0.1540   16.1240 C.ar   72  TYR72      -0.0009
    106  CE1       20.1770    1.6610   16.0760 C.ar   72  TYR72       0.0417
    107  CE2       21.4880   -0.0870   17.0490 C.ar   72  TYR72       0.0417
    108  CZ        20.3330    0.6680   17.0190 C.ar   72  TYR72       0.1957
    109  OH        19.3310    0.4330   17.9320 O.3    72  TYR72      -0.2866
    110  N         25.2520    6.4360   11.9880 N.3    75  THR75      -0.1203
    111  CA        25.3920    5.9160   10.6290 C.3    75  THR75       0.1994
    112  C         24.0760    5.9640    9.8390 C.2    75  THR75       0.2618
    113  O         24.0650    6.2730    8.6440 O.2    75  THR75      -0.2717
    114  CB        25.9520    4.4710   10.6530 C.3    75  THR75       0.1784
    115  OG1       27.2760    4.4850   11.2030 O.3    75  THR75      -0.2211
    116  CG2       25.9940    3.8680    9.2530 C.3    75  THR75       0.0376
    117  N         22.9700    5.6610   10.5110 N.am   76  GLY76      -0.1956
    118  CA        21.6680    5.6450    9.8650 C.3    76  GLY76       0.1869
    119  C         21.2350    7.0140    9.3710 C.2    76  GLY76       0.2309
    120  O         21.4290    8.0140   10.0570 O.2    76  GLY76      -0.2863
@<TRIPOS>BOND
     1    56    57    1
     2    60    57    1
     3    60    61    1
     4    57    58    1
     5     9     8    1
     6    63    61   ar
     7     1     2    1
     8    61    62   ar
     9    16    15    1
    10    58    59    2
    11    15    17    1
    12    15    14    1
    13     8     7    1
    14     6     7    1
    15     6     5    1
    16     2     5    1
    17     2     3    1
    18     3    10   am
    19     3     4    2
    20    14    11    1
    21    10    11    1
    22    53    52    2
    23    52    51    1
    24    11    12    1
    25    55    54    1
    26    54    51    1
    27    51    50    1
    28    13    12    2
    29    12    18   am
    30    64    65    1
    31   113   112    2
    32    50    44   am
    33   116   114    1
    34    18    19    1
    35   119   118    1
    36   119   120    2
    37    65    66    1
    38    65    68    1
    39   112   117   am
    40   112   111    1
    41   118   117    1
    42    44    45    2
    43    44    43    1
    44    46    43    1
    45    46    47    1
    46    19    20    1
    47    19    22    1
    48    66    67    2
    49    68    69    1
    50   111   114    1
    51   111   110    1
    52   114   115    1
    53    20    21    2
    54    43    42    1
    55    47    49   ar
    56    47    48   ar
    57    24    22    1
    58    70    69    1
    59    22    23    1
    60    69    71    1
    61    42    35   am
    62   101   100    2
    63    97    95   am
    64    35    36    2
    65    35    34    1
    66    31    29    1
    67    92    91    2
    68   100    99    1
    69    99   102    1
    70    99    98    1
    71   102   103    1
    72    95    94    1
    73    95    96    2
    74    32    30    1
    75    34    33    1
    76    34    37    1
    77    94    93    1
    78    91    98   am
    79    91    90    1
    80    29    30    1
    81    29    26    1
    82    38    37    1
    83    38    39    1
    84    28    27    2
    85   104   103   ar
    86   104   106   ar
    87   103   105   ar
    88    33    27   am
    89    27    26    1
    90    93    90    1
    91   106   108   ar
    92    26    25    1
    93    90    89    1
    94    39    41   ar
    95    39    40   ar
    96   105   107   ar
    97   108   107   ar
    98   108   109    1
    99    84    83    2
   100    80    78   ar
   101    88    87    1
   102    83    82    1
   103    82    85    1
   104    82    81    1
   105    78    79   ar
   106    78    77    1
   107    85    86    1
   108    86    87    1
   109    77    76    1
   110    76    73    1
   111    73    72    1
   112    73    74    1
   113    74    75    2
