@<TRIPOS>MOLECULE
tmp/4eq5A00.pdb
 190 178 0 0 0
SMALL
GASTEIGER

@<TRIPOS>ATOM
      1  N        -31.4560    7.7380  -22.1780 N.3   182  MET182     -0.1230
      2  CA       -32.6600    8.5460  -22.0770 C.3   182  MET182      0.1702
      3  C        -32.5280    9.3090  -20.7580 C.2   182  MET182      0.2592
      4  O        -32.1180    8.7110  -19.7380 O.2   182  MET182     -0.2718
      5  CB       -33.8910    7.6430  -22.0190 C.3   182  MET182      0.0401
      6  CG       -35.2160    8.3540  -22.1810 C.3   182  MET182      0.0596
      7  SD       -36.5600    7.4160  -21.4340 S.3   182  MET182     -0.1393
      8  CE       -37.9660    8.4710  -21.7440 C.3   182  MET182      0.0692
      9  N        -32.8740   10.6050  -20.7680 N.am  183  LEU183     -0.1966
     10  CA       -32.6220   11.4540  -19.6040 C.3   183  LEU183      0.1728
     11  C        -33.8590   12.1130  -18.9630 C.2   183  LEU183      0.2616
     12  O        -34.9480   12.2120  -19.5670 O.2   183  LEU183     -0.2715
     13  CB       -31.5430   12.4910  -19.9280 C.3   183  LEU183      0.0311
     14  CG       -30.2720   11.9410  -20.5820 C.3   183  LEU183      0.0022
     15  CD1      -29.5140   13.0590  -21.2410 C.3   183  LEU183      0.0001
     16  CD2      -29.4010   11.2540  -19.5610 C.3   183  LEU183      0.0001
     17  N        -33.6710   12.5490  -17.7160 N.am  184  ALA184     -0.1977
     18  CA       -34.7360   13.1940  -16.9430 C.3   184  ALA184      0.1597
     19  C        -34.6440   14.7180  -16.9030 C.2   184  ALA184      0.2287
     20  O        -33.5510   15.3100  -16.9120 O.2   184  ALA184     -0.2864
     21  CB       -34.7600   12.6610  -15.5450 C.3   184  ALA184      0.0319
     22  N        -38.4890    5.2480   -8.1930 N.3   204  GLU204     -0.1231
     23  CA       -37.2820    4.4580   -8.0010 C.3   204  GLU204      0.1699
     24  C        -36.3630    5.2430   -7.1250 C.2   204  GLU204      0.2592
     25  O        -36.3740    6.4620   -7.1740 O.2   204  GLU204     -0.2718
     26  CB       -36.5650    4.2470   -9.3310 C.3   204  GLU204      0.0402
     27  CG       -37.3810    3.5370  -10.3870 C.3   204  GLU204      0.1161
     28  CD       -36.5660    3.2080  -11.6120 C.2   204  GLU204      0.3649
     29  OE1      -35.5050    3.8460  -11.7920 O.co2 204  GLU204     -0.2457
     30  OE2      -36.9770    2.3180  -12.3840 O.co2 204  GLU204     -0.2457
     31  N        -35.5520    4.5740   -6.3270 N.am  205  ILE205     -0.1966
     32  CA       -34.5130    5.3050   -5.6280 C.3   205  ILE205      0.1727
     33  C        -33.5990    5.8210   -6.7090 C.2   205  ILE205      0.2616
     34  O        -33.3050    5.0680   -7.6400 O.2   205  ILE205     -0.2715
     35  CB       -33.6870    4.3910   -4.7650 C.3   205  ILE205      0.0290
     36  CG1      -34.5330    3.8140   -3.6480 C.3   205  ILE205      0.0022
     37  CG2      -32.5290    5.1340   -4.1840 C.3   205  ILE205      0.0023
     38  CD1      -33.7610    2.8580   -2.8070 C.3   205  ILE205      0.0001
     39  N        -33.1840    7.0880   -6.6280 N.am  206  LYS206     -0.1963
     40  CA       -32.1430    7.5670   -7.5190 C.3   206  LYS206      0.1728
     41  C        -30.8200    7.4030   -6.8110 C.2   206  LYS206      0.2616
     42  O        -30.5140    8.1340   -5.8970 O.2   206  LYS206     -0.2715
     43  CB       -32.3310    9.0370   -7.9200 C.3   206  LYS206      0.0311
     44  CG       -31.1270    9.5760   -8.7430 C.3   206  LYS206      0.0038
     45  CD       -31.2410   11.0420   -9.1050 C.3   206  LYS206      0.0206
     46  CE       -30.0490   11.4920   -9.9640 C.3   206  LYS206      0.1093
     47  NZ       -28.6840   11.4360   -9.3340 N.3   206  LYS206     -0.1314
     48  N        -30.0250    6.4550   -7.2790 N.am  207  TYR207     -0.1974
     49  CA       -28.7690    6.0600   -6.6610 C.3   207  TYR207      0.1639
     50  C        -27.6210    7.0130   -7.0020 C.2   207  TYR207      0.2290
     51  O        -27.6610    7.6910   -8.0140 O.2   207  TYR207     -0.2864
     52  CB       -28.4270    4.6390   -7.1100 C.3   207  TYR207      0.0560
     53  CG       -29.5010    3.6210   -6.7870 C.ar  207  TYR207     -0.0198
     54  CD1      -30.7100    3.5920   -7.4810 C.ar  207  TYR207     -0.0009
     55  CD2      -29.2970    2.6760   -5.7900 C.ar  207  TYR207     -0.0009
     56  CE1      -31.6900    2.6620   -7.1810 C.ar  207  TYR207      0.0417
     57  CE2      -30.2660    1.7340   -5.4720 C.ar  207  TYR207      0.0417
     58  CZ       -31.4590    1.7240   -6.1700 C.ar  207  TYR207      0.1957
     59  OH       -32.4090    0.7730   -5.8370 O.3   207  TYR207     -0.2866
     60  N        -23.9500    7.2100   -8.1860 N.3   209  GLY209     -0.1225
     61  CA       -23.0920    6.2470   -8.8370 C.3   209  GLY209      0.1811
     62  C        -22.7660    6.6530  -10.2460 C.2   209  GLY209      0.2280
     63  O        -22.8220    7.8290  -10.5990 O.2   209  GLY209     -0.2866
     64  N        -23.9320    5.9870  -14.1200 N.3   211  ARG211     -0.1245
     65  CA       -24.8370    5.3360  -15.0380 C.3   211  ARG211      0.1563
     66  C        -23.9930    4.4720  -15.9310 C.2   211  ARG211      0.2260
     67  O        -23.0250    4.9710  -16.5320 O.2   211  ARG211     -0.2867
     68  CB       -25.5760    6.3410  -15.8860 C.3   211  ARG211      0.0307
     69  CG       -26.8180    5.7890  -16.4310 C.3   211  ARG211      0.0489
     70  CD       -27.5360    6.7990  -17.2570 C.3   211  ARG211      0.2205
     71  NE       -28.7870    6.2340  -17.7310 N.pl3 211  ARG211     -0.0865
     72  CZ       -29.8360    6.9520  -18.0950 C.cat 211  ARG211      0.5346
     73  NH1      -29.7810    8.2680  -18.0370 N.pl3 211  ARG211      0.1354
     74  NH2      -30.9360    6.3500  -18.5090 N.pl3 211  ARG211      0.1354
     75  N        -21.0500    6.2540  -18.7360 N.3   226  ARG226     -0.1245
     76  CA       -21.8310    7.3580  -19.2830 C.3   226  ARG226      0.1563
     77  C        -21.1310    8.0360  -20.4530 C.2   226  ARG226      0.2260
     78  O        -21.7720    8.4310  -21.4020 O.2   226  ARG226     -0.2867
     79  CB       -22.1220    8.3680  -18.1790 C.3   226  ARG226      0.0307
     80  CG       -22.8240    9.5850  -18.6420 C.3   226  ARG226      0.0489
     81  CD       -24.1640    9.2530  -19.2380 C.3   226  ARG226      0.2205
     82  NE       -24.8240   10.4500  -19.7780 N.pl3 226  ARG226     -0.0865
     83  CZ       -25.6480   11.2320  -19.0840 C.cat 226  ARG226      0.5346
     84  NH1      -25.9220   10.9570  -17.7970 N.pl3 226  ARG226      0.1354
     85  NH2      -26.1970   12.2850  -19.6770 N.pl3 226  ARG226      0.1354
     86  N        -27.2840    1.6010  -12.4900 N.3   256  GLU256     -0.1245
     87  CA       -26.4480    2.5810  -11.7760 C.3   256  GLU256      0.1567
     88  C        -25.4020    1.8410  -10.9520 C.2   256  GLU256      0.2260
     89  O        -25.7460    1.0620  -10.0970 O.2   256  GLU256     -0.2867
     90  CB       -27.3160    3.4700  -10.8610 C.3   256  GLU256      0.0388
     91  CG       -26.6010    4.6700  -10.2840 C.3   256  GLU256      0.1160
     92  CD       -26.2270    5.7280  -11.3340 C.2   256  GLU256      0.3649
     93  OE1      -26.5760    5.5520  -12.5230 O.co2 256  GLU256     -0.2457
     94  OE2      -25.5790    6.7400  -10.9780 O.co2 256  GLU256     -0.2457
     95  N        -32.0230   -0.3550  -13.7480 N.3   296  PHE296     -0.1241
     96  CA       -33.3320    0.2420  -13.9840 C.3   296  PHE296      0.1605
     97  C        -33.9820    0.0590  -15.3550 C.2   296  PHE296      0.2264
     98  O        -35.1360    0.4520  -15.5270 O.2   296  PHE296     -0.2867
     99  CB       -33.3630    1.7150  -13.5650 C.3   296  PHE296      0.0534
    100  CG       -32.2570    2.5340  -14.1410 C.ar  296  PHE296     -0.0203
    101  CD1      -32.4790    3.3260  -15.2330 C.ar  296  PHE296     -0.0042
    102  CD2      -31.0000    2.5230  -13.5740 C.ar  296  PHE296     -0.0042
    103  CE1      -31.4640    4.0970  -15.7550 C.ar  296  PHE296     -0.0003
    104  CE2      -29.9890    3.2780  -14.0900 C.ar  296  PHE296     -0.0003
    105  CZ       -30.2140    4.0680  -15.1820 C.ar  296  PHE296     -0.0000
    106  N        -33.4290   -2.3380   -9.6210 N.3   331  ALA331     -0.1245
    107  CA       -33.5580   -1.0970   -8.8520 C.3   331  ALA331      0.1562
    108  C        -34.9000   -1.0150   -8.1440 C.2   331  ALA331      0.2260
    109  O        -35.9290   -1.3510   -8.7230 O.2   331  ALA331     -0.2867
    110  CB       -33.3550    0.1120   -9.7570 C.3   331  ALA331      0.0290
    111  N        -36.3640    8.8970   -8.6040 N.3   358  MET358     -0.1245
    112  CA       -36.7280    9.0260  -10.0010 C.3   358  MET358      0.1570
    113  C        -38.2170    8.6920  -10.1310 C.2   358  MET358      0.2261
    114  O        -38.7550    7.9050   -9.3680 O.2   358  MET358     -0.2867
    115  CB       -35.8890    8.0980  -10.8560 C.3   358  MET358      0.0387
    116  CG       -34.4130    8.4180  -10.8320 C.3   358  MET358      0.0595
    117  SD       -33.9700    9.8890  -11.7840 S.3   358  MET358     -0.1393
    118  CE       -35.0170    9.8070  -13.2440 C.3   358  MET358      0.0692
    119  N        -40.8850    7.5630  -13.1030 N.3   360  LYS360     -0.1245
    120  CA       -40.9410    7.1160  -14.4750 C.3   360  LYS360      0.1561
    121  C        -42.3760    7.0530  -14.9440 C.2   360  LYS360      0.2260
    122  O        -43.2270    6.4210  -14.2920 O.2   360  LYS360     -0.2867
    123  CB       -40.2750    5.7580  -14.6110 C.3   360  LYS360      0.0271
    124  CG       -38.8900    5.8400  -15.1560 C.3   360  LYS360      0.0035
    125  CD       -37.8770    5.4260  -14.1450 C.3   360  LYS360      0.0206
    126  CE       -36.5500    5.2650  -14.8220 C.3   360  LYS360      0.1093
    127  NZ       -35.4650    5.1190  -13.8440 N.3   360  LYS360     -0.1314
    128  N        -33.5950   14.1320  -22.7200 N.3   371  ARG371     -0.1245
    129  CA       -34.1440   14.6460  -21.4550 C.3   371  ARG371      0.1563
    130  C        -35.6020   14.9600  -21.6420 C.2   371  ARG371      0.2260
    131  O        -35.9650   15.6820  -22.5420 O.2   371  ARG371     -0.2867
    132  CB       -33.4840   15.9560  -21.0510 C.3   371  ARG371      0.0307
    133  CG       -32.1130   15.8140  -20.4820 C.3   371  ARG371      0.0489
    134  CD       -31.9120   16.6320  -19.2160 C.3   371  ARG371      0.2205
    135  NE       -30.7830   16.0930  -18.4720 N.pl3 371  ARG371     -0.0865
    136  CZ       -29.5140   16.1650  -18.8770 C.cat 371  ARG371      0.5346
    137  NH1      -29.1890   16.7580  -20.0260 N.pl3 371  ARG371      0.1354
    138  NH2      -28.5550   15.6270  -18.1280 N.pl3 371  ARG371      0.1354
    139  N        -39.2760   10.8760  -17.6190 N.3   375  TRP375     -0.1241
    140  CA       -38.5270   10.5690  -16.4150 C.3   375  TRP375      0.1605
    141  C        -38.2970   11.8660  -15.6390 C.2   375  TRP375      0.2264
    142  O        -37.9880   12.9050  -16.2300 O.2   375  TRP375     -0.2867
    143  CB       -37.1680    9.9970  -16.7790 C.3   375  TRP375      0.0550
    144  CG       -37.1690    8.6450  -17.3760 C.ar  375  TRP375      0.0003
    145  CD1      -38.2330    7.9600  -17.9050 C.ar  375  TRP375      0.0946
    146  CD2      -36.0310    7.7880  -17.5150 C.ar  375  TRP375      0.0152
    147  NE1      -37.8180    6.7230  -18.3630 N.ar  375  TRP375     -0.2442
    148  CE2      -36.4730    6.5980  -18.1350 C.ar  375  TRP375      0.0810
    149  CE3      -34.6770    7.9130  -17.1800 C.ar  375  TRP375      0.0012
    150  CZ2      -35.6170    5.5500  -18.4150 C.ar  375  TRP375      0.0191
    151  CZ3      -33.8280    6.8640  -17.4620 C.ar  375  TRP375      0.0001
    152  CH2      -34.3020    5.6960  -18.0710 C.ar  375  TRP375      0.0015
    153  N        -36.4070   13.5580  -11.9740 N.3   377  LYS377     -0.1245
    154  CA       -35.6220   13.5500  -10.7330 C.3   377  LYS377      0.1561
    155  C        -36.3490   14.2800   -9.6100 C.2   377  LYS377      0.2260
    156  O        -37.0100   15.2670   -9.8570 O.2   377  LYS377     -0.2867
    157  CB       -34.2830   14.2610  -10.9490 C.3   377  LYS377      0.0271
    158  CG       -33.1060   13.3730  -11.3210 C.3   377  LYS377      0.0035
    159  CD       -31.9890   14.1780  -12.0180 C.3   377  LYS377      0.0206
    160  CE       -32.4540   14.6680  -13.3720 C.3   377  LYS377      0.1093
    161  NZ       -31.8590   15.9940  -13.7500 N.3   377  LYS377     -0.1314
    162  N        -30.1170   20.7030   -8.6910 N.3   383  GLU383     -0.1245
    163  CA       -29.2040   19.9500   -9.5210 C.3   383  GLU383      0.1567
    164  C        -27.9260   20.7510   -9.7480 C.2   383  GLU383      0.2260
    165  O        -27.9840   21.9500  -10.0050 O.2   383  GLU383     -0.2867
    166  CB       -29.8730   19.6180  -10.8520 C.3   383  GLU383      0.0388
    167  CG       -28.9310   18.9910  -11.8600 C.3   383  GLU383      0.1160
    168  CD       -29.2170   17.5330  -12.0800 C.2   383  GLU383      0.3649
    169  OE1      -30.2190   17.0750  -11.5010 O.co2 383  GLU383     -0.2457
    170  OE2      -28.4560   16.8560  -12.8240 O.co2 383  GLU383     -0.2457
    171  N        -16.0690   15.0730  -13.4310 N.3   488  ARG488     -0.1245
    172  CA       -16.7400   13.8710  -13.8540 C.3   488  ARG488      0.1563
    173  C        -15.9730   13.3290  -15.0490 C.2   488  ARG488      0.2260
    174  O        -16.1220   13.8090  -16.1650 O.2   488  ARG488     -0.2867
    175  CB       -18.1630   14.2060  -14.2780 C.3   488  ARG488      0.0307
    176  CG       -19.1360   14.2430  -13.1520 C.3   488  ARG488      0.0489
    177  CD       -20.3440   13.4130  -13.4860 C.3   488  ARG488      0.2205
    178  NE       -20.4760   12.2380  -12.6450 N.pl3 488  ARG488     -0.0865
    179  CZ       -21.6420   11.8350  -12.1580 C.cat 488  ARG488      0.5346
    180  NH1      -22.7280   12.5270  -12.4640 N.pl3 488  ARG488      0.1354
    181  NH2      -21.7380   10.7600  -11.3710 N.pl3 488  ARG488      0.1354
    182  N        -18.0700   11.7300  -17.8670 N.3   491  LYS491     -0.1245
    183  CA       -18.6210   12.6070  -18.9130 C.3   491  LYS491      0.1561
    184  C        -17.5000   13.2990  -19.7280 C.2   491  LYS491      0.2260
    185  O        -16.4480   13.6810  -19.2050 O.2   491  LYS491     -0.2867
    186  CB       -19.6070   13.6210  -18.3150 C.3   491  LYS491      0.0271
    187  CG       -21.0360   13.0940  -18.0620 C.3   491  LYS491      0.0035
    188  CD       -21.6900   13.8040  -16.8630 C.3   491  LYS491      0.0206
    189  CE       -23.2280   13.6130  -16.7470 C.3   491  LYS491      0.1093
    190  NZ       -24.0510   14.7000  -17.4140 N.3   491  LYS491     -0.1314
@<TRIPOS>BOND
     1   128   129    1
     2   131   130    2
     3     6     5    1
     4     6     7    1
     5     1     2    1
     6     2     5    1
     7     2     3    1
     8     8     7    1
     9   130   129    1
    10   129   132    1
    11    78    77    2
    12    15    14    1
    13   132   133    1
    14     9     3   am
    15     9    10    1
    16     3     4    2
    17    14    13    1
    18    14    16    1
    19   133   134    1
    20    77    76    1
    21   137   136    1
    22    13    10    1
    23    82    81    1
    24    82    83    2
    25   184   185    2
    26   184   183    1
    27    85    83    1
    28    10    11    1
    29    12    11    2
    30    76    75    1
    31    76    79    1
    32    81    80    1
    33   134   135    1
    34    83    84    1
    35    11    17   am
    36   183   186    1
    37   183   182    1
    38   136   135    2
    39   136   138    1
    40    80    79    1
    41    74    72    1
    42   150   148   ar
    43   150   152   ar
    44   147   148   ar
    45   147   145   ar
    46   186   187    1
    47   148   146   ar
    48    72    73    1
    49    72    71    2
    50   152   151   ar
    51   187   188    1
    52   145   144   ar
    53    71    70    1
    54    17    18    1
    55   139   140    1
    56   146   144   ar
    57   146   149   ar
    58   151   149   ar
    59   190   189    1
    60   144   143    1
    61    70    69    1
    62    18    19    1
    63    18    21    1
    64    20    19    2
    65   188   189    1
    66   143   140    1
    67    67    66    2
    68    69    68    1
    69   140   141    1
    70   142   141    2
    71   174   173    2
    72    66    65    1
    73    68    65    1
    74   103   101   ar
    75   103   105   ar
    76    98    97    2
    77    97    96    1
    78   101   100   ar
    79   105   104   ar
    80   124   123    1
    81   124   125    1
    82   173   172    1
    83    65    64    1
    84   121   120    1
    85   121   122    2
    86   126   125    1
    87   126   127    1
    88   123   120    1
    89   120   119    1
    90   175   172    1
    91   175   176    1
    92   100   102   ar
    93   100    99    1
    94   104   102   ar
    95    96    95    1
    96    96    99    1
    97   172   171    1
    98   161   160    1
    99   177   176    1
   100   177   178    1
   101   160   159    1
   102   118   117    1
   103   170   168   ar
   104   178   179    2
   105    93    92   ar
   106    86    87    1
   107   180   179    1
   108    30    28   ar
   109   179   181    1
   110   168   167    1
   111   168   169   ar
   112   159   158    1
   113   153   154    1
   114   167   166    1
   115    29    28   ar
   116   117   116    1
   117    87    88    1
   118    87    90    1
   119    28    27    1
   120    92    94   ar
   121    92    91    1
   122   158   157    1
   123    88    89    2
   124   157   154    1
   125    90    91    1
   126   115   116    1
   127   115   112    1
   128   166   163    1
   129   154   155    1
   130    63    62    2
   131    27    26    1
   132    62    61    1
   133   113   112    1
   134   113   114    2
   135   165   164    2
   136   112   111    1
   137    46    47    1
   138    46    45    1
   139   156   155    2
   140   110   107    1
   141   164   163    1
   142   106   107    1
   143   163   162    1
   144    26    23    1
   145    45    44    1
   146   107   108    1
   147    61    60    1
   148    44    43    1
   149   109   108    2
   150    22    23    1
   151    51    50    2
   152    23    24    1
   153    43    40    1
   154    34    33    2
   155    40    41    1
   156    40    39    1
   157    54    56   ar
   158    54    53   ar
   159    48    41   am
   160    48    49    1
   161    56    58   ar
   162    25    24    2
   163    24    31   am
   164    52    53    1
   165    52    49    1
   166    50    49    1
   167    41    42    2
   168    53    55   ar
   169    33    39   am
   170    33    32    1
   171    31    32    1
   172    58    59    1
   173    58    57   ar
   174    55    57   ar
   175    32    35    1
   176    35    37    1
   177    35    36    1
   178    36    38    1
