@<TRIPOS>MOLECULE
tmp/4eqbA00.pdb
 136 133 0 0 0
SMALL
GASTEIGER

@<TRIPOS>ATOM
      1  N          8.2310    4.6690    0.8220 N.3     9  TRP9       -0.1227
      2  CA         9.0280    5.8800    0.7320 C.3     9  TRP9        0.1737
      3  C          9.1210    6.5490    2.0980 C.2     9  TRP9        0.2596
      4  O          8.1990    6.4460    2.8970 O.2     9  TRP9       -0.2718
      5  CB         8.3130    6.8630   -0.2170 C.3     9  TRP9        0.0564
      6  CG         8.1350    6.3660   -1.6070 C.ar    9  TRP9        0.0003
      7  CD1        7.0800    5.6330   -2.0780 C.ar    9  TRP9        0.0946
      8  CD2        9.0330    6.5080   -2.7100 C.ar    9  TRP9        0.0152
      9  NE1        7.2570    5.3230   -3.3840 N.ar    9  TRP9       -0.2442
     10  CE2        8.4410    5.8680   -3.8210 C.ar    9  TRP9        0.0810
     11  CE3       10.2580    7.1470   -2.8770 C.ar    9  TRP9        0.0012
     12  CZ2        9.0520    5.7930   -5.0500 C.ar    9  TRP9        0.0191
     13  CZ3       10.8610    7.1010   -4.1200 C.ar    9  TRP9        0.0001
     14  CH2       10.2470    6.4210   -5.2020 C.ar    9  TRP9        0.0015
     15  N         10.2370    7.2270    2.3960 N.am   10  GLY10      -0.1942
     16  CA        10.3180    8.0430    3.6050 C.3    10  GLY10       0.2014
     17  C          9.2940    9.1820    3.6240 C.2    10  GLY10       0.2639
     18  O          8.9250    9.7570    2.5810 O.2    10  GLY10      -0.2714
     19  N          8.8020    9.4950    4.8080 N.am   11  ASP11      -0.1957
     20  CA         7.8930   10.6310    5.0350 C.3    11  ASP11       0.1840
     21  C          6.6550   10.5600    4.1570 C.2    11  ASP11       0.2622
     22  O          6.2210   11.5460    3.5470 O.2    11  ASP11      -0.2715
     23  CB         8.6410   11.9610    4.8480 C.3    11  ASP11       0.1450
     24  CG         9.7670   12.1230    5.8520 C.2    11  ASP11       0.3671
     25  OD1        9.4950   12.4340    7.0400 O.co2  11  ASP11      -0.2456
     26  OD2       10.9150   11.9760    5.4340 O.co2  11  ASP11      -0.2456
     27  N          6.0670    9.3650    4.0990 N.am   12  TYR12      -0.1974
     28  CA         4.9830    9.1060    3.1440 C.3    12  TYR12       0.1639
     29  C          3.8010    8.3830    3.7290 C.2    12  TYR12       0.2290
     30  O          3.0940    7.6660    3.0170 O.2    12  TYR12      -0.2864
     31  CB         5.5190    8.3620    1.9400 C.3    12  TYR12       0.0560
     32  CG         4.7750    8.5520    0.6280 C.ar   12  TYR12      -0.0198
     33  CD1        4.3170    9.7970    0.2530 C.ar   12  TYR12      -0.0009
     34  CD2        4.6320    7.5290   -0.2790 C.ar   12  TYR12      -0.0009
     35  CE1        3.7050   10.0310   -0.9760 C.ar   12  TYR12       0.0417
     36  CE2        4.0000    7.7410   -1.5320 C.ar   12  TYR12       0.0417
     37  CZ         3.5620    8.9900   -1.8710 C.ar   12  TYR12       0.1957
     38  OH         2.9800    9.2200   -3.0800 O.3    12  TYR12      -0.2866
     39  N         14.1910    5.5200   -0.3910 N.3    35  ASP35      -0.1239
     40  CA        14.0090    6.8780   -0.9360 C.3    35  ASP35       0.1674
     41  C         14.2770    7.0160   -2.4270 C.2    35  ASP35       0.2266
     42  O         14.2700    8.1310   -2.9530 O.2    35  ASP35      -0.2867
     43  CB        14.7690    7.9150   -0.1180 C.3    35  ASP35       0.1410
     44  CG        14.2420    8.0150    1.3130 C.2    35  ASP35       0.3668
     45  OD1       13.2420    8.7310    1.5800 O.co2  35  ASP35      -0.2456
     46  OD2       14.7900    7.3060    2.1570 O.co2  35  ASP35      -0.2456
     47  N         13.5410    4.6750   -6.3420 N.3    37  ASN37      -0.1240
     48  CA        13.0540    3.5050   -7.0710 C.3    37  ASN37       0.1653
     49  C         14.0990    2.4110   -7.1040 C.2    37  ASN37       0.2266
     50  O         13.8080    1.2340   -6.8770 O.2    37  ASN37      -0.2867
     51  CB        12.7360    3.9030   -8.5250 C.3    37  ASN37       0.1155
     52  CG        11.3900    4.6330   -8.6770 C.2    37  ASN37       0.2627
     53  OD1       10.3780    4.2930   -8.0550 O.2    37  ASN37      -0.2716
     54  ND2       11.3680    5.6110   -9.5840 N.am   37  ASN37      -0.0877
     55  N          6.2160    3.1210   -7.2800 N.3    57  SER57      -0.1202
     56  CA         5.7590    3.9700   -8.3510 C.3    57  SER57       0.2020
     57  C          5.2460    3.1190   -9.5150 C.2    57  SER57       0.2618
     58  O          5.5610    1.9210   -9.6230 O.2    57  SER57      -0.2717
     59  CB         6.9310    4.7900   -8.8760 C.3    57  SER57       0.2103
     60  OG         7.9270    3.9280   -9.3720 O.3    57  SER57      -0.2182
     61  N          4.4890    3.7550  -10.3960 N.am   58  GLU58      -0.1979
     62  CA         3.9780    3.0700  -11.5840 C.3    58  GLU58       0.1602
     63  C          5.1130    2.4770  -12.4500 C.2    58  GLU58       0.2287
     64  O          4.9670    1.3770  -12.9490 O.2    58  GLU58      -0.2864
     65  CB         3.0210    3.9700  -12.3930 C.3    58  GLU58       0.0415
     66  CG         3.6070    5.0230  -13.3570 C.3    58  GLU58       0.1163
     67  CD         4.1170    6.3120  -12.7280 C.2    58  GLU58       0.3649
     68  OE1        3.9020    6.5520  -11.5300 O.co2  58  GLU58      -0.2457
     69  OE2        4.7250    7.1280  -13.4850 O.co2  58  GLU58      -0.2457
     70  N          7.0290   17.5630  -10.7470 N.3   202  PHE202     -0.1241
     71  CA         5.8640   16.8030  -10.3680 C.3   202  PHE202      0.1605
     72  C          5.0820   17.3950   -9.2030 C.2   202  PHE202      0.2264
     73  O          5.6080   18.1400   -8.3910 O.2   202  PHE202     -0.2867
     74  CB         6.2860   15.3650  -10.0700 C.3   202  PHE202      0.0534
     75  CG         6.7540   14.6130  -11.2870 C.ar  202  PHE202     -0.0203
     76  CD1        5.8410   14.0890  -12.1950 C.ar  202  PHE202     -0.0042
     77  CD2        8.1010   14.4090  -11.5370 C.ar  202  PHE202     -0.0042
     78  CE1        6.2460   13.3920  -13.3200 C.ar  202  PHE202     -0.0003
     79  CE2        8.5260   13.7030  -12.6970 C.ar  202  PHE202     -0.0003
     80  CZ         7.5890   13.1920  -13.5640 C.ar  202  PHE202     -0.0000
     81  N          3.8100   16.2240   -6.4050 N.3   204  GLY204     -0.1210
     82  CA         4.2010   15.9490   -5.0070 C.3   204  GLY204      0.1956
     83  C          5.3460   16.8690   -4.5820 C.2   204  GLY204      0.2611
     84  O          5.3240   17.4600   -3.5000 O.2   204  GLY204     -0.2717
     85  N          6.3550   16.9750   -5.4470 N.am  205  GLU205     -0.1979
     86  CA         7.4520   17.8980   -5.2420 C.3   205  GLU205      0.1602
     87  C          6.8910   19.3150   -5.0920 C.2   205  GLU205      0.2287
     88  O          7.2830   20.0880   -4.2190 O.2   205  GLU205     -0.2864
     89  CB         8.4280   17.8700   -6.4350 C.3   205  GLU205      0.0415
     90  CG         9.1970   16.6020   -6.6510 C.3   205  GLU205      0.1163
     91  CD        10.2270   16.3890   -5.5670 C.2   205  GLU205      0.3649
     92  OE1       11.2860   17.0580   -5.5800 O.co2 205  GLU205     -0.2457
     93  OE2        9.9640   15.5320   -4.7320 O.co2 205  GLU205     -0.2457
     94  N          5.2200   20.0420   -1.7360 N.3   208  GLN208     -0.1245
     95  CA         6.2150   20.2510   -0.6710 C.3   208  GLN208      0.1566
     96  C          6.8280   21.6570   -0.7440 C.2   208  GLN208      0.2260
     97  O          7.0520   22.2920    0.3040 O.2   208  GLN208     -0.2867
     98  CB         7.3100   19.2010   -0.7470 C.3   208  GLN208      0.0367
     99  CG         6.8520   17.7750   -0.4600 C.3   208  GLN208      0.0905
    100  CD         7.9950   16.7870   -0.5830 C.2   208  GLN208      0.2608
    101  OE1        8.9850   16.9050    0.1340 O.2   208  GLN208     -0.2717
    102  NE2        7.8740   15.8120   -1.4880 N.am  208  GLN208     -0.0878
    103  N          1.0230   10.2020  -12.7200 N.3   228  TRP228     -0.1241
    104  CA         1.8390    9.2660  -11.9350 C.3   228  TRP228      0.1605
    105  C          1.0250    8.7100  -10.7760 C.2   228  TRP228      0.2264
    106  O          0.0510    9.3200  -10.3090 O.2   228  TRP228     -0.2867
    107  CB         3.1480    9.8900  -11.3970 C.3   228  TRP228      0.0550
    108  CG         2.9980   11.0090  -10.4420 C.ar  228  TRP228      0.0003
    109  CD1        3.0680   12.3550  -10.7410 C.ar  228  TRP228      0.0946
    110  CD2        2.7610   10.9290   -9.0170 C.ar  228  TRP228      0.0152
    111  NE1        2.9220   13.0820   -9.6030 N.ar  228  TRP228     -0.2442
    112  CE2        2.7190   12.2570   -8.5300 C.ar  228  TRP228      0.0810
    113  CE3        2.5940    9.8790   -8.0980 C.ar  228  TRP228      0.0012
    114  CZ2        2.4550   12.5440   -7.1890 C.ar  228  TRP228      0.0191
    115  CZ3        2.3350   10.1690   -6.7710 C.ar  228  TRP228      0.0001
    116  CH2        2.2910   11.4920   -6.3340 C.ar  228  TRP228      0.0015
    117  N          1.6550    6.2530   -7.0190 N.3   230  ASP230     -0.1239
    118  CA         2.3400    5.3540   -6.0610 C.3   230  ASP230      0.1674
    119  C          1.2060    4.4380   -5.5700 C.2   230  ASP230      0.2266
    120  O          0.1010    4.9080   -5.3950 O.2   230  ASP230     -0.2867
    121  CB         3.0490    6.0660   -4.9180 C.3   230  ASP230      0.1410
    122  CG         4.2370    6.8450   -5.3790 C.2   230  ASP230      0.3668
    123  OD1        4.9940    6.3730   -6.2570 O.co2 230  ASP230     -0.2456
    124  OD2        4.4430    7.9490   -4.8290 O.co2 230  ASP230     -0.2456
    125  N         -0.6710   15.2300   -0.4290 N.3   266  TYR266     -0.1241
    126  CA        -0.7800   14.8260   -1.7990 C.3   266  TYR266      0.1605
    127  C         -2.2370   14.4540   -2.1320 C.2   266  TYR266      0.2264
    128  O         -3.0750   14.3870   -1.2550 O.2   266  TYR266     -0.2867
    129  CB         0.1240   13.6010   -2.0500 C.3   266  TYR266      0.0534
    130  CG         1.6000   13.8160   -2.1500 C.ar  266  TYR266     -0.0201
    131  CD1        2.2140   14.9140   -1.5720 C.ar  266  TYR266     -0.0009
    132  CD2        2.3700   12.8890   -2.7380 C.ar  266  TYR266     -0.0009
    133  CE1        3.6050   15.0560   -1.6440 C.ar  266  TYR266      0.0417
    134  CE2        3.7240   13.0180   -2.8080 C.ar  266  TYR266      0.0417
    135  CZ         4.3190   14.1000   -2.2560 C.ar  266  TYR266      0.1957
    136  OH         5.7020   14.2340   -2.3520 O.3   266  TYR266     -0.2866
@<TRIPOS>BOND
     1    80    78   ar
     2    80    79   ar
     3    69    67   ar
     4    66    67    1
     5    66    65    1
     6    78    76   ar
     7    64    63    2
     8    67    68   ar
     9   103   104    1
    10    79    77   ar
    11    63    62    1
    12    65    62    1
    13    76    75   ar
    14   104   107    1
    15   104   105    1
    16    62    61    1
    17    77    75   ar
    18   107   108    1
    19    75    74    1
    20   105   106    2
    21    70    71    1
    22   109   108   ar
    23   109   111   ar
    24   108   110   ar
    25    61    57   am
    26    71    74    1
    27    71    72    1
    28    58    57    2
    29   111   112   ar
    30    54    52   am
    31    57    56    1
    32    60    59    1
    33    72    73    2
    34   110   112   ar
    35   110   113   ar
    36    59    56    1
    37    52    51    1
    38    52    53    2
    39   112   114   ar
    40    51    48    1
    41    56    55    1
    42   113   115   ar
    43   114   116   ar
    44    49    48    1
    45    49    50    2
    46    48    47    1
    47   117   118    1
    48   115   116   ar
    49    90    89    1
    50    90    91    1
    51    89    86    1
    52    81    82    1
    53   123   122   ar
    54   118   119    1
    55   118   121    1
    56    92    91   ar
    57   119   120    2
    58    91    93   ar
    59    85    86    1
    60    85    83   am
    61   122   121    1
    62   122   124   ar
    63    86    87    1
    64    14    12   ar
    65    14    13   ar
    66    87    88    2
    67    12    10   ar
    68    82    83    1
    69    83    84    2
    70    13    11   ar
    71    10     9   ar
    72    10     8   ar
    73     9     7   ar
    74    38    37    1
    75    42    41    2
    76    11     8   ar
    77   134   132   ar
    78   134   135   ar
    79   132   130   ar
    80     8     6   ar
    81    41    40    1
    82   136   135    1
    83   135   133   ar
    84   130   129    1
    85   130   131   ar
    86   127   126    1
    87   127   128    2
    88     7     6   ar
    89   129   126    1
    90    37    36   ar
    91    37    35   ar
    92   126   125    1
    93    94    95    1
    94   133   131   ar
    95     6     5    1
    96    36    34   ar
    97   102   100   am
    98    35    33   ar
    99    40    39    1
   100    40    43    1
   101    98    95    1
   102    98    99    1
   103    96    95    1
   104    96    97    2
   105   100    99    1
   106   100   101    2
   107    34    32   ar
   108     5     2    1
   109    43    44    1
   110    33    32   ar
   111    32    31    1
   112     2     1    1
   113     2     3    1
   114    44    45   ar
   115    44    46   ar
   116    31    28    1
   117     3    15   am
   118     3     4    2
   119    15    16    1
   120    18    17    2
   121    30    29    2
   122    28    29    1
   123    28    27    1
   124    22    21    2
   125    16    17    1
   126    17    19   am
   127    27    21   am
   128    21    20    1
   129    19    20    1
   130    23    20    1
   131    23    24    1
   132    26    24   ar
   133    24    25   ar
