@<TRIPOS>MOLECULE
tmp/4eqcA00.pdb
 213 197 0 0 0
SMALL
GASTEIGER

@<TRIPOS>ATOM
      1  N         15.4640   41.9990  -19.7800 N.3    32  ILE32      -0.1245
      2  CA        16.1620   40.7810  -20.2310 C.3    32  ILE32       0.1561
      3  C         15.2810   39.7920  -20.9900 C.2    32  ILE32       0.2260
      4  O         15.6660   38.6230  -21.1690 O.2    32  ILE32      -0.2867
      5  CB        16.9340   40.0530  -19.0840 C.3    32  ILE32       0.0252
      6  CG1       15.9770   39.4310  -18.0550 C.3    32  ILE32       0.0019
      7  CG2       17.9590   40.9980  -18.4430 C.3    32  ILE32       0.0019
      8  CD1       16.5450   38.2100  -17.3240 C.3    32  ILE32       0.0001
      9  N         10.3800   40.7450  -18.6630 N.3    40  VAL40      -0.1245
     10  CA        11.2900   40.4720  -17.5450 C.3    40  VAL40       0.1561
     11  C         12.4590   41.4480  -17.5000 C.2    40  VAL40       0.2260
     12  O         13.0540   41.7780  -18.5360 O.2    40  VAL40      -0.2867
     13  CB        11.8020   38.9860  -17.5110 C.3    40  VAL40       0.0252
     14  CG1       12.8700   38.7630  -16.3860 C.3    40  VAL40       0.0019
     15  CG2       10.6430   38.0000  -17.3050 C.3    40  VAL40       0.0019
     16  N         15.0390   39.6980  -10.2620 N.3    53  ALA53      -0.1231
     17  CA        14.3980   39.5260  -11.5360 C.3    53  ALA53       0.1694
     18  C         12.9440   39.9670  -11.3620 C.2    53  ALA53       0.2592
     19  O         12.2800   39.6030  -10.4160 O.2    53  ALA53      -0.2718
     20  CB        14.4630   38.0200  -11.9370 C.3    53  ALA53       0.0304
     21  N         12.4580   40.7930  -12.2720 N.am   54  ILE54      -0.1966
     22  CA        11.1160   41.3170  -12.1310 C.3    54  ILE54       0.1727
     23  C         10.3500   41.1170  -13.4020 C.2    54  ILE54       0.2616
     24  O         10.8150   41.5030  -14.4800 O.2    54  ILE54      -0.2715
     25  CB        11.0870   42.7890  -11.7670 C.3    54  ILE54       0.0290
     26  CG1       11.7690   43.0090  -10.4180 C.3    54  ILE54       0.0022
     27  CG2        9.6450   43.2370  -11.6930 C.3    54  ILE54       0.0023
     28  CD1       12.0680   44.4640  -10.1650 C.3    54  ILE54       0.0001
     29  N          9.1950   40.4710  -13.2760 N.am   55  ARG55      -0.1977
     30  CA         8.2670   40.3680  -14.4030 C.3    55  ARG55       0.1597
     31  C          7.1910   41.4300  -14.2750 C.2    55  ARG55       0.2287
     32  O          6.5500   41.5030  -13.2300 O.2    55  ARG55      -0.2864
     33  CB         7.6030   39.0040  -14.4380 C.3    55  ARG55       0.0334
     34  CG         6.8880   38.6910  -15.7550 C.3    55  ARG55       0.0492
     35  CD         6.4080   37.2090  -15.8020 C.3    55  ARG55       0.2205
     36  NE         7.5470   36.2870  -15.7850 N.pl3  55  ARG55      -0.0865
     37  CZ         7.4670   34.9870  -15.4670 C.cat  55  ARG55       0.5346
     38  NH1        6.2790   34.4590  -15.1290 N.pl3  55  ARG55       0.1354
     39  NH2        8.5750   34.2180  -15.4620 N.pl3  55  ARG55       0.1354
     40  N          3.5750   42.5810  -15.9230 N.3    57  MET57      -0.1245
     41  CA         2.4860   42.1530  -16.7320 C.3    57  MET57       0.1570
     42  C          1.3850   43.2010  -16.7660 C.2    57  MET57       0.2261
     43  O          0.9930   43.7410  -15.7360 O.2    57  MET57      -0.2867
     44  CB         1.8770   40.8650  -16.1560 C.3    57  MET57       0.0387
     45  CG         2.8100   39.6850  -16.2330 C.3    57  MET57       0.0595
     46  SD         2.5450   38.5310  -14.8700 S.3    57  MET57      -0.1393
     47  CE         3.5400   39.3830  -13.6310 C.3    57  MET57       0.0692
     48  N         -2.0340   33.2840  -13.0580 N.3    68  ILE68      -0.1245
     49  CA        -1.0480   34.2030  -12.4500 C.3    68  ILE68       0.1561
     50  C         -1.2390   34.2690  -10.9230 C.2    68  ILE68       0.2260
     51  O         -0.2700   34.1530  -10.1700 O.2    68  ILE68      -0.2867
     52  CB        -1.1280   35.5840  -13.0930 C.3    68  ILE68       0.0252
     53  CG1       -0.6530   35.4810  -14.5700 C.3    68  ILE68       0.0019
     54  CG2       -0.2970   36.6240  -12.2930 C.3    68  ILE68       0.0019
     55  CD1       -0.8460   36.6800  -15.3800 C.3    68  ILE68       0.0001
     56  N          0.0450   31.0510   -9.5070 N.3    71  GLU71      -0.1231
     57  CA         1.4990   30.9520   -9.5060 C.3    71  GLU71       0.1699
     58  C          2.1430   31.6780   -8.2810 C.2    71  GLU71       0.2592
     59  O          3.0560   31.1610   -7.6130 O.2    71  GLU71      -0.2718
     60  CB         2.0550   31.5010  -10.8060 C.3    71  GLU71       0.0402
     61  CG         3.5140   31.1930  -10.9140 C.3    71  GLU71       0.1161
     62  CD         4.1110   31.5950  -12.2390 C.2    71  GLU71       0.3649
     63  OE1        3.3190   31.8170  -13.1780 O.co2  71  GLU71      -0.2457
     64  OE2        5.3700   31.7100  -12.3070 O.co2  71  GLU71      -0.2457
     65  N          1.6760   32.8930   -8.0170 N.am   72  ILE72      -0.1980
     66  CA         2.2000   33.6560   -6.8890 C.3    72  ILE72       0.1595
     67  C          1.9010   33.0080   -5.5330 C.2    72  ILE72       0.2287
     68  O          2.7820   32.9340   -4.6920 O.2    72  ILE72      -0.2864
     69  CB         1.6090   35.1090   -6.8610 C.3    72  ILE72       0.0276
     70  CG1        2.0220   35.8900   -8.1050 C.3    72  ILE72       0.0022
     71  CG2        2.0220   35.8420   -5.5700 C.3    72  ILE72       0.0022
     72  CD1        1.1750   37.1270   -8.3250 C.3    72  ILE72       0.0001
     73  N          4.1100   29.9720   -5.0410 N.3    75  MET75      -0.1245
     74  CA         5.4610   30.4010   -4.7440 C.3    75  MET75       0.1570
     75  C          5.5390   30.8580   -3.2930 C.2    75  MET75       0.2261
     76  O          6.4310   30.4960   -2.5610 O.2    75  MET75      -0.2867
     77  CB         5.9120   31.5630   -5.6520 C.3    75  MET75       0.0387
     78  CG         6.0740   31.2910   -7.1450 C.3    75  MET75       0.0595
     79  SD         6.7540   29.7040   -7.6940 S.3    75  MET75      -0.1393
     80  CE         8.4070   29.8120   -7.0060 C.3    75  MET75       0.0692
     81  N         13.3660   28.9430   -6.9480 N.3    84  VAL84      -0.1245
     82  CA        13.7580   30.3350   -7.0710 C.3    84  VAL84       0.1561
     83  C         12.8580   31.0850   -6.1260 C.2    84  VAL84       0.2260
     84  O         11.6580   30.8890   -6.1170 O.2    84  VAL84      -0.2867
     85  CB        13.6160   30.9250   -8.5360 C.3    84  VAL84       0.0252
     86  CG1       12.1740   30.9220   -8.9980 C.3    84  VAL84       0.0019
     87  CG2       14.2210   32.3450   -8.6160 C.3    84  VAL84       0.0019
     88  N         10.6030   33.6380   -4.3720 N.3    86  TYR86      -0.1241
     89  CA         9.6540   34.7240   -4.6120 C.3    86  TYR86       0.1605
     90  C          9.8120   35.8000   -3.5460 C.2    86  TYR86       0.2264
     91  O          9.7350   35.5230   -2.3310 O.2    86  TYR86      -0.2867
     92  CB         8.2100   34.1540   -4.6790 C.3    86  TYR86       0.0534
     93  CG         7.1240   35.1930   -4.4400 C.ar   86  TYR86      -0.0201
     94  CD1        6.5590   35.3670   -3.1650 C.ar   86  TYR86      -0.0009
     95  CD2        6.7020   36.0550   -5.4660 C.ar   86  TYR86      -0.0009
     96  CE1        5.5720   36.3580   -2.9450 C.ar   86  TYR86       0.0417
     97  CE2        5.7160   37.0160   -5.2360 C.ar   86  TYR86       0.0417
     98  CZ         5.1600   37.1460   -3.9820 C.ar   86  TYR86       0.1957
     99  OH         4.2180   38.1240   -3.7370 O.3    86  TYR86      -0.2866
    100  N          5.9120   41.0520  -10.3950 N.3    98  VAL98      -0.1245
    101  CA         6.3910   39.9800   -9.5270 C.3    98  VAL98       0.1561
    102  C          7.9100   40.0080   -9.4850 C.2    98  VAL98       0.2260
    103  O          8.5730   40.0330  -10.5340 O.2    98  VAL98      -0.2867
    104  CB         5.8520   38.6080   -9.9770 C.3    98  VAL98       0.0252
    105  CG1        6.4480   37.4640   -9.1350 C.3    98  VAL98       0.0019
    106  CG2        4.3500   38.6210   -9.8680 C.3    98  VAL98       0.0019
    107  N         11.5120   38.4230   -7.9770 N.3   100  MET100     -0.1230
    108  CA        12.1320   37.1230   -7.6500 C.3   100  MET100      0.1702
    109  C         13.5810   37.3280   -7.4000 C.2   100  MET100      0.2592
    110  O         14.1600   38.3240   -7.8560 O.2   100  MET100     -0.2718
    111  CB        11.9600   36.1830   -8.8410 C.3   100  MET100      0.0401
    112  CG        10.5090   36.0340   -9.3120 C.3   100  MET100      0.0596
    113  SD         9.3620   35.2060   -8.1930 S.3   100  MET100     -0.1393
    114  CE        10.2310   33.6470   -7.9780 C.3   100  MET100      0.0692
    115  N         14.2150   36.4050   -6.6790 N.am  101  GLU101     -0.1966
    116  CA        15.6660   36.4380   -6.6410 C.3   101  GLU101      0.1733
    117  C         16.1630   36.2780   -8.0950 C.2   101  GLU101      0.2616
    118  O         15.4650   35.6550   -8.9120 O.2   101  GLU101     -0.2715
    119  CB        16.2430   35.3710   -5.6710 C.3   101  GLU101      0.0429
    120  CG        16.2480   33.9600   -6.2200 C.3   101  GLU101      0.1163
    121  CD        16.9440   32.9870   -5.3370 C.2   101  GLU101      0.3649
    122  OE1       16.3940   31.9120   -5.1080 O.co2 101  GLU101     -0.2457
    123  OE2       18.0200   33.3090   -4.8550 O.co2 101  GLU101     -0.2457
    124  N         17.3120   36.8790   -8.4270 N.am  102  TYR102     -0.1960
    125  CA        17.9530   36.6800   -9.7300 C.3   102  TYR102      0.1771
    126  C         19.0720   35.6260   -9.5910 C.2   102  TYR102      0.2619
    127  O         19.8890   35.7220   -8.7010 O.2   102  TYR102     -0.2715
    128  CB        18.5360   38.0040  -10.2650 C.3   102  TYR102      0.0574
    129  CG        19.2850   37.9110  -11.5820 C.ar  102  TYR102     -0.0198
    130  CD1       18.6370   37.5320  -12.7470 C.ar  102  TYR102     -0.0009
    131  CD2       20.6390   38.2330  -11.6550 C.ar  102  TYR102     -0.0009
    132  CE1       19.3220   37.4460  -13.9370 C.ar  102  TYR102      0.0417
    133  CE2       21.3320   38.1600  -12.8420 C.ar  102  TYR102      0.0417
    134  CZ        20.6780   37.7570  -13.9680 C.ar  102  TYR102      0.1957
    135  OH        21.3720   37.6760  -15.1400 O.3   102  TYR102     -0.2866
    136  N         19.0960   34.6380  -10.4740 N.am  103  LEU103     -0.1963
    137  CA        20.2070   33.6750  -10.5120 C.3   103  LEU103      0.1728
    138  C         21.0960   34.0120  -11.7120 C.2   103  LEU103      0.2616
    139  O         20.6990   33.8560  -12.8640 O.2   103  LEU103     -0.2715
    140  CB        19.6710   32.2360  -10.5000 C.3   103  LEU103      0.0311
    141  CG        19.0300   31.9210   -9.1230 C.3   103  LEU103      0.0022
    142  CD1       17.8300   30.9370   -9.1570 C.3   103  LEU103      0.0001
    143  CD2       20.0830   31.4350   -8.1180 C.3   103  LEU103      0.0001
    144  N         22.2840   34.5510  -11.4100 N.am  104  ALA104     -0.1977
    145  CA        23.1390   35.1280  -12.4240 C.3   104  ALA104      0.1597
    146  C         23.7520   34.0640  -13.2980 C.2   104  ALA104      0.2287
    147  O         24.3710   34.3790  -14.3070 O.2   104  ALA104     -0.2864
    148  CB        24.2010   35.9680  -11.7940 C.3   104  ALA104      0.0319
    149  N         22.1390   31.9080  -15.1120 N.3   106  GLY106     -0.1210
    150  CA        21.3190   31.5830  -16.2920 C.3   106  GLY106      0.1956
    151  C         20.5870   30.2450  -16.1910 C.2   106  GLY106      0.2612
    152  O         20.3930   29.7140  -15.0990 O.2   106  GLY106     -0.2717
    153  N         20.1940   29.7170  -17.3490 N.am  107  SER107     -0.1952
    154  CA        19.4840   28.4600  -17.4460 C.3   107  SER107      0.1924
    155  C         20.4150   27.2530  -17.5700 C.2   107  SER107      0.2314
    156  O         21.5420   27.3780  -18.0620 O.2   107  SER107     -0.2863
    157  CB        18.5120   28.5090  -18.6390 C.3   107  SER107      0.2116
    158  OG        18.0210   27.2270  -18.9670 O.3   107  SER107     -0.2180
    159  N         21.2720   26.5710  -21.3550 N.3   110  ASP110     -0.1239
    160  CA        22.5960   27.0860  -21.7750 C.3   110  ASP110      0.1674
    161  C         23.7490   26.1190  -21.4980 C.2   110  ASP110      0.2266
    162  O         24.6040   25.8730  -22.3590 O.2   110  ASP110     -0.2867
    163  CB        22.8560   28.4710  -21.1930 C.3   110  ASP110      0.1410
    164  CG        21.8800   29.4800  -21.7010 C.2   110  ASP110      0.3668
    165  OD1       21.1810   29.2020  -22.6820 O.co2 110  ASP110     -0.2456
    166  OD2       21.8100   30.5690  -21.1200 O.co2 110  ASP110     -0.2456
    167  N         15.0760   24.4090  -19.2550 N.3   149  ASP149     -0.1239
    168  CA        14.6590   25.8140  -19.3000 C.3   149  ASP149      0.1674
    169  C         14.1310   26.3060  -17.9970 C.2   149  ASP149      0.2266
    170  O         14.2320   27.4720  -17.6810 O.2   149  ASP149     -0.2867
    171  CB        13.5490   26.0050  -20.3070 C.3   149  ASP149      0.1410
    172  CG        13.9880   25.6820  -21.6480 C.2   149  ASP149      0.3668
    173  OD1       14.5140   26.5870  -22.3150 O.co2 149  ASP149     -0.2456
    174  OD2       13.8980   24.4910  -21.9840 O.co2 149  ASP149     -0.2456
    175  N         17.1720   27.0260  -12.9610 N.3   152  LEU152     -0.1245
    176  CA        18.0770   28.1980  -12.9670 C.3   152  LEU152      0.1561
    177  C         19.2550   27.9590  -12.0720 C.2   152  LEU152      0.2260
    178  O         19.1530   27.2530  -11.0820 O.2   152  LEU152     -0.2867
    179  CB        17.3270   29.4630  -12.5530 C.3   152  LEU152      0.0270
    180  CG        16.2100   29.9610  -13.4740 C.3   152  LEU152      0.0019
    181  CD1       15.5340   31.2290  -12.8520 C.3   152  LEU152      0.0001
    182  CD2       16.6720   30.2430  -14.8760 C.3   152  LEU152      0.0001
    183  N         12.1290   26.8190  -11.4290 N.3   162  THR162     -0.1203
    184  CA        11.3420   28.0210  -11.7320 C.3   162  THR162      0.1994
    185  C         10.0860   27.6870  -12.5660 C.2   162  THR162      0.2617
    186  O          9.8840   26.5340  -13.0110 O.2   162  THR162     -0.2717
    187  CB        12.2410   29.1610  -12.4120 C.3   162  THR162      0.1784
    188  OG1       11.5150   30.3900  -12.4240 O.3   162  THR162     -0.2211
    189  CG2       12.6100   28.8250  -13.8740 C.3   162  THR162      0.0376
    190  N          9.2230   28.6610  -12.7750 N.am  163  ASP163     -0.1973
    191  CA         8.1250   28.6090  -13.7090 C.3   163  ASP163      0.1709
    192  C          7.0880   27.6110  -13.3060 C.2   163  ASP163      0.2293
    193  O          6.9030   26.6100  -13.8860 O.2   163  ASP163     -0.2864
    194  CB         8.5600   28.3980  -15.1680 C.3   163  ASP163      0.1436
    195  CG         9.2110   29.6560  -15.8020 C.2   163  ASP163      0.3671
    196  OD1        9.6350   29.6950  -16.9760 O.co2 163  ASP163     -0.2456
    197  OD2        9.3180   30.6440  -15.1360 O.co2 163  ASP163     -0.2456
    198  N         27.7550   31.0610  -20.3420 N.3   293  LYS293     -0.1245
    199  CA        27.4310   32.4850  -20.2620 C.3   293  LYS293      0.1561
    200  C         28.2180   33.1470  -21.3760 C.2   293  LYS293      0.2260
    201  O         27.6490   33.8930  -22.2080 O.2   293  LYS293     -0.2867
    202  CB        27.8020   33.0420  -18.8820 C.3   293  LYS293      0.0271
    203  CG        26.8910   34.1290  -18.3580 C.3   293  LYS293      0.0035
    204  CD        27.0650   34.3030  -16.8450 C.3   293  LYS293      0.0206
    205  CE        26.2140   35.4400  -16.3330 C.3   293  LYS293      0.1093
    206  NZ        26.5230   35.8050  -14.8940 N.3   293  LYS293     -0.1314
    207  N         26.9630   32.5200  -25.0050 N.3   296  THR296     -0.1218
    208  CA        25.5490   32.7600  -25.1660 C.3   296  THR296      0.1862
    209  C         25.0850   34.2320  -25.0330 C.2   296  THR296      0.2287
    210  O         25.9010   35.1500  -24.8990 O.2   296  THR296     -0.2866
    211  CB        24.8110   31.8070  -24.1940 C.3   296  THR296      0.1770
    212  OG1       23.7210   31.1780  -24.8550 O.3   296  THR296     -0.2211
    213  CG2       24.4050   32.4740  -22.9280 C.3   296  THR296      0.0375
@<TRIPOS>BOND
     1   208   209    1
     2   208   207    1
     3   208   211    1
     4   209   210    2
     5   212   211    1
     6   211   213    1
     7   165   164   ar
     8   162   161    2
     9   173   172   ar
    10   201   200    2
    11   174   172   ar
    12   160   161    1
    13   160   159    1
    14   160   163    1
    15   164   163    1
    16   164   166   ar
    17   172   171    1
    18   200   199    1
    19     4     3    2
    20     3     2    1
    21   198   199    1
    22   171   168    1
    23   199   202    1
    24     2     1    1
    25     2     5    1
    26   168   167    1
    27   168   169    1
    28     5     7    1
    29     5     6    1
    30   158   157    1
    31   202   203    1
    32     9    10    1
    33   157   154    1
    34    12    11    2
    35   203   204    1
    36   156   155    2
    37     6     8    1
    38   169   170    2
    39   155   154    1
    40    10    13    1
    41    10    11    1
    42    13    15    1
    43    13    14    1
    44   154   153    1
    45   153   151   am
    46   196   195   ar
    47   204   205    1
    48    42    41    1
    49    42    43    2
    50    41    44    1
    51    41    40    1
    52   205   206    1
    53   150   151    1
    54   150   149    1
    55    45    44    1
    56    45    46    1
    57   151   152    2
    58    35    36    1
    59    35    34    1
    60   195   194    1
    61   195   197   ar
    62    36    37    2
    63    34    33    1
    64    37    39    1
    65    37    38    1
    66    55    53    1
    67   194   191    1
    68   135   134    1
    69   182   180    1
    70    46    47    1
    71    53    52    1
    72    24    23    2
    73    33    30    1
    74    30    31    1
    75    30    29    1
    76   147   146    2
    77    31    32    2
    78   134   132   ar
    79   134   133   ar
    80   132   130   ar
    81   193   192    2
    82   189   187    1
    83   191   192    1
    84   191   190    1
    85   180   181    1
    86   180   179    1
    87    23    29   am
    88    23    22    1
    89   146   145    1
    90    63    62   ar
    91    52    49    1
    92    52    54    1
    93    48    49    1
    94   186   185    2
    95   176   175    1
    96   176   179    1
    97   176   177    1
    98   139   138    2
    99   133   131   ar
   100   190   185   am
   101   130   129   ar
   102   185   184    1
   103    49    50    1
   104   145   148    1
   105   145   144    1
   106   188   187    1
   107   187   184    1
   108    64    62   ar
   109    21    22    1
   110    21    18   am
   111    62    61    1
   112    22    25    1
   113   177   178    2
   114    20    17    1
   115    25    27    1
   116    25    26    1
   117   184   183    1
   118   138   144   am
   119   138   137    1
   120   131   129   ar
   121   129   128    1
   122    17    18    1
   123    17    16    1
   124    18    19    2
   125    50    51    2
   126    61    60    1
   127    60    57    1
   128   103   102    2
   129   137   140    1
   130   137   136    1
   131   140   141    1
   132   136   126   am
   133    26    28    1
   134   100   101    1
   135   128   125    1
   136   104   106    1
   137   104   101    1
   138   104   105    1
   139   125   126    1
   140   125   124    1
   141   126   127    2
   142   101   102    1
   143    56    57    1
   144    57    58    1
   145   112   111    1
   146   112   113    1
   147   142   141    1
   148   141   143    1
   149    86    85    1
   150   118   117    2
   151   111   108    1
   152    87    85    1
   153    85    82    1
   154   124   117   am
   155    72    70    1
   156    58    65   am
   157    58    59    2
   158   113   114    1
   159    70    69    1
   160   117   116    1
   161    65    66    1
   162   107   108    1
   163   110   109    2
   164    79    78    1
   165    79    80    1
   166   108   109    1
   167   109   115   am
   168    78    77    1
   169    82    81    1
   170    82    83    1
   171    66    69    1
   172    66    67    1
   173    69    71    1
   174   115   116    1
   175   116   119    1
   176   120   119    1
   177   120   121    1
   178    83    84    2
   179    77    74    1
   180    67    68    2
   181    95    97   ar
   182    95    93   ar
   183   121   122   ar
   184   121   123   ar
   185    97    98   ar
   186    73    74    1
   187    74    75    1
   188    92    89    1
   189    92    93    1
   190    89    88    1
   191    89    90    1
   192    93    94   ar
   193    98    99    1
   194    98    96   ar
   195    90    91    2
   196    75    76    2
   197    94    96   ar
