@<TRIPOS>MOLECULE
tmp/4eqeB01.pdb
 171 167 0 0 0
SMALL
GASTEIGER

@<TRIPOS>ATOM
      1  N         33.0810   -2.1860   33.6100 N.3     7  ILE7       -0.1231
      2  CA        32.1460   -1.4640   34.4500 C.3     7  ILE7        0.1692
      3  C         30.7040   -1.8790   34.1360 C.2     7  ILE7        0.2592
      4  O         29.8310   -1.8170   34.9970 O.2     7  ILE7       -0.2718
      5  CB        32.3210    0.0510   34.2790 C.3     7  ILE7        0.0266
      6  CG1       31.4560    0.8090   35.2800 C.3     7  ILE7        0.0019
      7  CG2       32.0020    0.4730   32.8580 C.3     7  ILE7        0.0020
      8  CD1       31.6150    2.2970   35.1870 C.3     7  ILE7        0.0001
      9  N         30.4600   -2.3140   32.9000 N.am    8  PHE8       -0.1976
     10  CA        29.1110   -2.7350   32.5200 C.3     8  PHE8        0.1639
     11  C         28.7420   -4.0650   33.1990 C.2     8  PHE8        0.2290
     12  O         27.5810   -4.3060   33.5270 O.2     8  PHE8       -0.2864
     13  CB        28.9630   -2.8300   30.9980 C.3     8  PHE8        0.0560
     14  CG        28.9490   -1.4990   30.2890 C.ar    8  PHE8       -0.0200
     15  CD1       28.9660   -0.3010   30.9890 C.ar    8  PHE8       -0.0042
     16  CD2       28.8970   -1.4510   28.9000 C.ar    8  PHE8       -0.0042
     17  CE1       28.9520    0.9240   30.3140 C.ar    8  PHE8       -0.0003
     18  CE2       28.8840   -0.2310   28.2250 C.ar    8  PHE8       -0.0003
     19  CZ        28.9090    0.9550   28.9330 C.ar    8  PHE8       -0.0000
     20  N         27.5790   -3.1370   36.5460 N.3    11  ILE11      -0.1245
     21  CA        26.2040   -2.6630   36.4380 C.3    11  ILE11       0.1561
     22  C         25.2160   -3.8300   36.3230 C.2    11  ILE11       0.2260
     23  O         24.2030   -3.8640   37.0270 O.2    11  ILE11      -0.2867
     24  CB        26.0420   -1.6730   35.2730 C.3    11  ILE11       0.0252
     25  CG1       26.7590   -0.3580   35.6060 C.3    11  ILE11       0.0019
     26  CG2       24.5800   -1.4080   35.0090 C.3    11  ILE11       0.0019
     27  CD1       26.7990    0.6480   34.4740 C.3    11  ILE11       0.0001
     28  N         27.4500   -1.7030   41.1180 N.3    16  ILE16      -0.1231
     29  CA        27.4840   -0.2490   41.0640 C.3    16  ILE16       0.1678
     30  C         26.1480    0.2330   40.5010 C.2    16  ILE16       0.2434
     31  O         25.5130   -0.4670   39.7150 O.2    16  ILE16      -0.2733
     32  CB        28.6490    0.2920   40.2100 C.3    16  ILE16       0.0265
     33  CG1       28.4440   -0.0590   38.7410 C.3    16  ILE16       0.0019
     34  CG2       29.9960   -0.2240   40.7220 C.3    16  ILE16       0.0020
     35  CD1       29.4910    0.5330   37.8380 C.3    16  ILE16       0.0001
     36  N         25.7120    1.4260   40.9220 N.am   17  PRO17      -0.2718
     37  CA        24.3710    1.9040   40.5790 C.3    17  PRO17       0.1535
     38  C         24.2170    2.3200   39.1270 C.2    17  PRO17       0.2598
     39  O         25.1640    2.7480   38.4590 O.2    17  PRO17      -0.2715
     40  CB        24.1890    3.1210   41.4910 C.3    17  PRO17       0.0310
     41  CG        25.5730    3.5840   41.7940 C.3    17  PRO17       0.0237
     42  CD        26.4160    2.3430   41.8350 C.3    17  PRO17       0.0939
     43  N         22.9870    2.1980   38.6490 N.am   18  ALA18      -0.1978
     44  CA        22.6390    2.6620   37.3260 C.3    18  ALA18       0.1597
     45  C         21.1650    3.0200   37.3080 C.2    18  ALA18       0.2287
     46  O         20.3900    2.5580   38.1470 O.2    18  ALA18      -0.2864
     47  CB        22.9410    1.5870   36.2860 C.3    18  ALA18       0.0319
     48  N         20.0090    1.1880   30.2470 N.3    30  PHE30      -0.1227
     49  CA        20.1940    2.1510   31.3360 C.3    30  PHE30       0.1736
     50  C         20.6870    3.4740   30.7670 C.2    30  PHE30       0.2595
     51  O         21.3080    3.5140   29.6980 O.2    30  PHE30      -0.2718
     52  CB        21.1730    1.6290   32.4190 C.3    30  PHE30       0.0547
     53  CG        22.5230    1.2150   31.8830 C.ar   30  PHE30      -0.0202
     54  CD1       22.7160   -0.0680   31.3980 C.ar   30  PHE30      -0.0042
     55  CD2       23.5900    2.0940   31.8800 C.ar   30  PHE30      -0.0042
     56  CE1       23.9450   -0.4630   30.8980 C.ar   30  PHE30      -0.0003
     57  CE2       24.8310    1.7100   31.3860 C.ar   30  PHE30      -0.0003
     58  CZ        25.0030    0.4250   30.8830 C.ar   30  PHE30      -0.0000
     59  N         20.4270    4.5610   31.4890 N.am   31  HIS31      -0.1961
     60  CA        20.8280    5.8870   31.0240 C.3    31  HIS31       0.1787
     61  C         22.3310    6.1020   31.0830 C.2    31  HIS31       0.2620
     62  O         23.0030    5.6390   31.9980 O.2    31  HIS31      -0.2715
     63  CB        20.1000    6.9760   31.8110 C.3    31  HIS31       0.0785
     64  CG        18.6240    6.9840   31.5810 C.ar   31  HIS31       0.0821
     65  ND1       18.0420    7.6540   30.5250 N.ar   31  HIS31      -0.2267
     66  CD2       17.6100    6.3990   32.2610 C.ar   31  HIS31       0.1154
     67  CE1       16.7310    7.4920   30.5730 C.ar   31  HIS31       0.1986
     68  NE2       16.4420    6.7310   31.6130 N.ar   31  HIS31      -0.2212
     69  N         22.8530    6.7940   30.0730 N.am   32  ASP32      -0.1957
     70  CA        24.2700    7.1330   30.0260 C.3    32  ASP32       0.1840
     71  C         24.6100    8.2350   31.0350 C.2    32  ASP32       0.2622
     72  O         23.8750    9.2100   31.1690 O.2    32  ASP32      -0.2715
     73  CB        24.6190    7.5970   28.6100 C.3    32  ASP32       0.1450
     74  CG        26.0960    7.5280   28.3230 C.2    32  ASP32       0.3671
     75  OD1       26.8660    8.2930   28.9390 O.co2  32  ASP32      -0.2456
     76  OD2       26.4930    6.7260   27.4520 O.co2  32  ASP32      -0.2456
     77  N         25.7420    8.0820   31.7240 N.am   33  ILE33      -0.1963
     78  CA        26.1800    9.0440   32.7410 C.3    33  ILE33       0.1727
     79  C         26.6770   10.3600   32.1420 C.2    33  ILE33       0.2616
     80  O         26.7730   11.3770   32.8330 O.2    33  ILE33      -0.2715
     81  CB        27.2990    8.4250   33.6100 C.3    33  ILE33       0.0290
     82  CG1       27.4810    9.2000   34.9110 C.3    33  ILE33       0.0022
     83  CG2       28.6020    8.3370   32.8270 C.3    33  ILE33       0.0023
     84  CD1       28.3450    8.4770   35.9170 C.3    33  ILE33       0.0001
     85  N         26.9960   10.3310   30.8530 N.am   34  SER34      -0.1950
     86  CA        27.4880   11.5090   30.1480 C.3    34  SER34       0.1924
     87  C         26.6550   11.6910   28.8900 C.2    34  SER34       0.2314
     88  O         27.1310   11.4410   27.7760 O.2    34  SER34      -0.2863
     89  CB        28.9530   11.3250   29.7700 C.3    34  SER34       0.2116
     90  OG        29.4710   12.4880   29.1450 O.3    34  SER34      -0.2180
     91  N         24.7730   12.7910   25.6020 N.3    36  GLN36      -0.1245
     92  CA        25.1160   13.6550   24.4800 C.3    36  GLN36       0.1566
     93  C         23.8720   14.1840   23.7810 C.2    36  GLN36       0.2260
     94  O         23.9690   14.8730   22.7620 O.2    36  GLN36      -0.2867
     95  CB        25.9770   12.8920   23.4730 C.3    36  GLN36       0.0367
     96  CG        27.2650   12.3210   24.0570 C.3    36  GLN36       0.0905
     97  CD        28.2220   13.3930   24.5490 C.2    36  GLN36       0.2608
     98  OE1       28.5730   14.3260   23.8170 O.2    36  GLN36      -0.2717
     99  NE2       28.6470   13.2740   25.8070 N.am   36  GLN36      -0.0878
    100  N         19.6480    9.8660   26.3250 N.3    40  HIS40      -0.1241
    101  CA        20.7820    9.0980   25.8390 C.3    40  HIS40       0.1621
    102  C         20.9350    7.8890   26.7480 C.2    40  HIS40       0.2264
    103  O         21.2780    8.0230   27.9200 O.2    40  HIS40      -0.2867
    104  CB        22.0440    9.9570   25.8530 C.3    40  HIS40       0.0745
    105  CG        23.2640    9.2530   25.3450 C.ar   40  HIS40       0.0817
    106  ND1       24.4850    9.8800   25.2490 N.ar   40  HIS40      -0.2268
    107  CD2       23.4520    7.9840   24.9020 C.ar   40  HIS40       0.1154
    108  CE1       25.3800    9.0280   24.7790 C.ar   40  HIS40       0.1986
    109  NE2       24.7790    7.8700   24.5590 N.ar   40  HIS40      -0.2212
    110  N         21.8650    3.3470   26.9430 N.3    42  LEU42      -0.1245
    111  CA        22.6260    2.2360   26.3730 C.3    42  LEU42       0.1561
    112  C         21.8160    0.9670   26.5300 C.2    42  LEU42       0.2260
    113  O         21.1260    0.7750   27.5410 O.2    42  LEU42      -0.2867
    114  CB        23.9570    2.0610   27.1180 C.3    42  LEU42       0.0270
    115  CG        24.8330    3.2990   27.2430 C.3    42  LEU42       0.0019
    116  CD1       26.1110    2.9310   27.9820 C.3    42  LEU42       0.0001
    117  CD2       25.1760    3.8730   25.8800 C.3    42  LEU42       0.0001
    118  N         29.8700    1.7870   18.6590 N.3    88  ASN88      -0.1240
    119  CA        31.2620    2.1700   18.4590 C.3    88  ASN88       0.1653
    120  C         32.1720    0.9580   18.5310 C.2    88  ASN88       0.2266
    121  O         32.0300    0.1270   19.4250 O.2    88  ASN88      -0.2867
    122  CB        31.6950    3.1700   19.5260 C.3    88  ASN88       0.1155
    123  CG        31.0130    4.5010   19.3900 C.2    88  ASN88       0.2627
    124  OD1       30.6030    4.8850   18.2950 O.2    88  ASN88      -0.2716
    125  ND2       30.9100    5.2310   20.4970 N.am   88  ASN88      -0.0877
    126  N         35.8910    5.2390   18.6090 N.3    94  GLY94      -0.1210
    127  CA        35.8160    5.9190   19.8870 C.3    94  GLY94       0.1956
    128  C         35.2230    5.0480   20.9810 C.2    94  GLY94       0.2612
    129  O         34.5710    5.5490   21.8940 O.2    94  GLY94      -0.2717
    130  N         35.4430    3.7400   20.9000 N.am   95  GLN95      -0.1965
    131  CA        34.9580    2.8420   21.9480 C.3    95  GLN95       0.1733
    132  C         35.8140    2.9600   23.2170 C.2    95  GLN95       0.2617
    133  O         37.0370    2.8070   23.1690 O.2    95  GLN95      -0.2715
    134  CB        34.9410    1.3980   21.4380 C.3    95  GLN95       0.0408
    135  CG        34.3220    0.4170   22.4100 C.3    95  GLN95       0.0908
    136  CD        34.1920   -0.9790   21.8320 C.2    95  GLN95       0.2608
    137  OE1       34.7220   -1.2810   20.7580 O.2    95  GLN95      -0.2717
    138  NE2       33.5050   -1.8470   22.5570 N.am   95  GLN95      -0.0878
    139  N         35.1800    3.2370   24.3550 N.am   96  SER96      -0.1936
    140  CA        35.9350    3.3670   25.6010 C.3    96  SER96       0.2055
    141  C         35.6700    2.2340   26.5860 C.2    96  SER96       0.2642
    142  O         36.4570    2.0140   27.5000 O.2    96  SER96      -0.2714
    143  CB        35.6700    4.7180   26.2750 C.3    96  SER96       0.2130
    144  OG        34.3020    4.8510   26.6230 O.3    96  SER96      -0.2179
    145  N         34.5590    1.5340   26.4050 N.am   97  VAL97      -0.1977
    146  CA        34.2320    0.3750   27.2300 C.3    97  VAL97       0.1596
    147  C         34.1200   -0.8440   26.3230 C.2    97  VAL97       0.2287
    148  O         33.3010   -0.8630   25.4050 O.2    97  VAL97      -0.2864
    149  CB        32.9050    0.5640   27.9960 C.3    97  VAL97       0.0276
    150  CG1       32.6040   -0.6640   28.8410 C.3    97  VAL97       0.0022
    151  CG2       32.9610    1.8190   28.8720 C.3    97  VAL97       0.0022
    152  N         27.8150   -2.4920   23.1290 N.3   101  HIS101     -0.1241
    153  CA        26.6540   -1.7270   23.5880 C.3   101  HIS101      0.1621
    154  C         26.0890   -0.8600   22.4850 C.2   101  HIS101      0.2264
    155  O         26.8230   -0.3810   21.6080 O.2   101  HIS101     -0.2867
    156  CB        26.9730   -0.8720   24.8180 C.3   101  HIS101      0.0745
    157  CG        28.1010    0.0880   24.6140 C.ar  101  HIS101      0.0817
    158  ND1       29.4190   -0.3060   24.6360 N.ar  101  HIS101     -0.2268
    159  CD2       28.1110    1.4240   24.3920 C.ar  101  HIS101      0.1154
    160  CE1       30.1970    0.7440   24.4400 C.ar  101  HIS101      0.1986
    161  NE2       29.4250    1.8070   24.2830 N.ar  101  HIS101     -0.2212
    162  N         24.1720    2.5990   21.7490 N.3   103  HIS103     -0.1241
    163  CA        23.7190    3.9110   22.2120 C.3   103  HIS103      0.1621
    164  C         22.4040    4.2360   21.5260 C.2   103  HIS103      0.2264
    165  O         22.2460    3.9610   20.3330 O.2   103  HIS103     -0.2867
    166  CB        24.6950    5.0100   21.7890 C.3   103  HIS103      0.0745
    167  CG        26.0500    4.9200   22.4180 C.ar  103  HIS103      0.0817
    168  ND1       26.4430    5.7260   23.4650 N.ar  103  HIS103     -0.2268
    169  CD2       27.1160    4.1430   22.1190 C.ar  103  HIS103      0.1154
    170  CE1       27.6880    5.4370   23.7970 C.ar  103  HIS103      0.1986
    171  NE2       28.1230    4.4850   22.9870 N.ar  103  HIS103     -0.2212
@<TRIPOS>BOND
     1   124   123    2
     2   119   120    1
     3   119   118    1
     4   119   122    1
     5   120   121    2
     6   126   127    1
     7   123   122    1
     8   123   125   am
     9   127   128    1
    10   165   164    2
    11   137   136    2
    12   130   128   am
    13   130   131    1
    14   128   129    2
    15   134   131    1
    16   134   135    1
    17   164   163    1
    18   155   154    2
    19   162   163    1
    20   166   163    1
    21   166   167    1
    22   136   135    1
    23   136   138   am
    24   131   132    1
    25   169   167   ar
    26   169   171   ar
    27   167   168   ar
    28   154   153    1
    29    94    93    2
    30   171   170   ar
    31   152   153    1
    32   133   132    2
    33   132   139   am
    34   168   170   ar
    35    95    96    1
    36    95    92    1
    37   153   156    1
    38    93    92    1
    39    98    97    2
    40    96    97    1
    41   161   159   ar
    42   161   160   ar
    43   139   140    1
    44   159   157   ar
    45   160   158   ar
    46    92    91    1
    47    97    99   am
    48   109   108   ar
    49   109   107   ar
    50   157   158   ar
    51   157   156    1
    52   108   106   ar
    53   107   105   ar
    54   106   105   ar
    55   105   104    1
    56   148   147    2
    57   140   143    1
    58   140   141    1
    59   101   104    1
    60   101   100    1
    61   101   102    1
    62   117   115    1
    63   143   144    1
    64   147   146    1
    65   111   112    1
    66   111   110    1
    67   111   114    1
    68   145   141   am
    69   145   146    1
    70   112   113    2
    71   141   142    2
    72   102   103    2
    73   114   115    1
    74   146   149    1
    75   115   116    1
    76    76    74   ar
    77    88    87    2
    78   149   150    1
    79   149   151    1
    80    18    16   ar
    81    18    19   ar
    82    74    73    1
    83    74    75   ar
    84    73    70    1
    85    87    86    1
    86    16    14   ar
    87    19    17   ar
    88    90    89    1
    89    51    50    2
    90    89    86    1
    91    70    69    1
    92    70    71    1
    93    69    61   am
    94    86    85    1
    95    48    49    1
    96    14    15   ar
    97    14    13    1
    98    17    15   ar
    99    65    67   ar
   100    65    64   ar
   101    67    68   ar
   102    50    49    1
   103    50    59   am
   104    85    79   am
   105    58    56   ar
   106    58    57   ar
   107    56    54   ar
   108    13    10    1
   109    60    61    1
   110    60    59    1
   111    60    63    1
   112    71    72    2
   113    71    77   am
   114    61    62    2
   115    49    52    1
   116    57    55   ar
   117    54    53   ar
   118    64    63    1
   119    64    66   ar
   120    68    66   ar
   121    77    78    1
   122    55    53   ar
   123    53    52    1
   124    79    78    1
   125    79    80    2
   126    10     9    1
   127    10    11    1
   128    78    81    1
   129    83    81    1
   130     7     5    1
   131     9     3   am
   132    11    12    2
   133     1     2    1
   134    81    82    1
   135     3     2    1
   136     3     4    2
   137     5     2    1
   138     5     6    1
   139    27    25    1
   140    82    84    1
   141    26    24    1
   142     8     6    1
   143    24    25    1
   144    24    21    1
   145    47    44    1
   146    22    21    1
   147    22    23    2
   148    21    20    1
   149    45    44    1
   150    45    46    2
   151    44    43    1
   152    35    33    1
   153    39    38    2
   154    43    38   am
   155    33    32    1
   156    38    37    1
   157    31    30    2
   158    32    34    1
   159    32    29    1
   160    30    36   am
   161    30    29    1
   162    37    36    1
   163    37    40    1
   164    36    42    1
   165    29    28    1
   166    40    41    1
   167    41    42    1
