@<TRIPOS>MOLECULE
tmp/4eqfA00.pdb
 217 202 0 0 0
SMALL
GASTEIGER

@<TRIPOS>ATOM
      1  N        -27.5800   25.3860    6.8240 N.3    61  GLU61      -0.1245
      2  CA       -28.6370   24.8450    5.9760 C.3    61  GLU61       0.1567
      3  C        -28.8180   25.7890    4.8120 C.2    61  GLU61       0.2260
      4  O        -29.8720   25.8540    4.1860 O.2    61  GLU61      -0.2867
      5  CB       -29.9420   24.6390    6.7580 C.3    61  GLU61       0.0388
      6  CG       -30.9570   23.6510    6.1350 C.3    61  GLU61       0.1160
      7  CD       -30.3950   22.7690    5.0080 C.2    61  GLU61       0.3649
      8  OE1      -29.7320   21.7400    5.3020 O.co2  61  GLU61      -0.2457
      9  OE2      -30.6410   23.1000    3.8210 O.co2  61  GLU61      -0.2457
     10  N        -26.9020   25.7120    1.5290 N.3    63  GLU63      -0.1245
     11  CA       -25.9100   24.9800    0.7560 C.3    63  GLU63       0.1567
     12  C        -25.4110   25.8040   -0.4070 C.2    63  GLU63       0.2260
     13  O        -24.2270   25.7880   -0.7450 O.2    63  GLU63      -0.2867
     14  CB       -26.4860   23.6700    0.2430 C.3    63  GLU63       0.0388
     15  CG       -25.4350   22.6230   -0.0820 C.3    63  GLU63       0.1160
     16  CD       -25.4190   21.4980    0.9380 C.2    63  GLU63       0.3649
     17  OE1      -26.4590   20.8280    1.0880 O.co2  63  GLU63      -0.2457
     18  OE2      -24.3830   21.2960    1.6040 O.co2  63  GLU63      -0.2457
     19  N        -19.2760   16.5590    0.2140 N.3    89  VAL89      -0.1245
     20  CA       -20.5680   16.2960    0.8480 C.3    89  VAL89       0.1561
     21  C        -21.6770   17.1680    0.2330 C.2    89  VAL89       0.2260
     22  O        -22.7890   16.7010   -0.0010 O.2    89  VAL89      -0.2867
     23  CB       -20.5190   16.5190    2.3740 C.3    89  VAL89       0.0252
     24  CG1      -19.1230   16.8800    2.8060 C.3    89  VAL89       0.0019
     25  CG2      -21.5040   17.6060    2.8000 C.3    89  VAL89       0.0019
     26  N        -22.7360   16.3150   -3.0980 N.3    92  THR92      -0.1203
     27  CA       -23.5650   15.1480   -2.8600 C.3    92  THR92       0.1994
     28  C        -24.9980   15.5630   -2.6100 C.2    92  THR92       0.2617
     29  O        -25.8990   15.1670   -3.3380 O.2    92  THR92      -0.2717
     30  CB       -23.0680   14.3430   -1.6520 C.3    92  THR92       0.1784
     31  OG1      -21.7630   13.8260   -1.9330 O.3    92  THR92      -0.2211
     32  CG2      -24.0150   13.1910   -1.3480 C.3    92  THR92       0.0376
     33  N        -25.1970   16.3910   -1.5930 N.am   93  ASN93      -0.1974
     34  CA       -26.5380   16.7810   -1.1940 C.3    93  ASN93       0.1688
     35  C        -27.3510   17.3390   -2.3450 C.2    93  ASN93       0.2292
     36  O        -28.5700   17.1690   -2.3950 O.2    93  ASN93      -0.2864
     37  CB       -26.4840   17.7970   -0.0640 C.3    93  ASN93       0.1181
     38  CG       -25.8850   17.2260    1.2010 C.2    93  ASN93       0.2629
     39  OD1      -26.4930   16.3860    1.8670 O.2    93  ASN93      -0.2716
     40  ND2      -24.6850   17.6810    1.5420 N.am   93  ASN93      -0.0877
     41  N        -19.3030    8.7710    2.4070 N.3   150  VAL150     -0.1245
     42  CA       -19.8880    9.5780    1.3510 C.3   150  VAL150      0.1561
     43  C        -19.9700    8.7860    0.0690 C.2   150  VAL150      0.2260
     44  O        -21.0210    8.6950   -0.5400 O.2   150  VAL150     -0.2867
     45  CB       -19.0450   10.8160    1.0450 C.3   150  VAL150      0.0252
     46  CG1      -19.3940   11.3530   -0.3260 C.3   150  VAL150      0.0019
     47  CG2      -19.2440   11.8770    2.1110 C.3   150  VAL150      0.0019
     48  N        -22.6840    6.3560    0.2550 N.3   153  HIS153     -0.1241
     49  CA       -23.9810    6.9950    0.1290 C.3   153  HIS153      0.1621
     50  C        -24.2430    7.2080   -1.3470 C.2   153  HIS153      0.2264
     51  O        -25.1920    6.6790   -1.9190 O.2   153  HIS153     -0.2867
     52  CB       -23.9150    8.3570    0.8270 C.3   153  HIS153      0.0745
     53  CG       -25.2500    8.9930    1.0680 C.ar  153  HIS153      0.0817
     54  ND1      -25.8180    9.0800    2.3210 N.ar  153  HIS153     -0.2268
     55  CD2      -26.1210    9.5880    0.2170 C.ar  153  HIS153      0.1154
     56  CE1      -26.9840    9.6900    2.2340 C.ar  153  HIS153      0.1986
     57  NE2      -27.1930   10.0110    0.9680 N.ar  153  HIS153     -0.2212
     58  N        -19.1320    6.0110    8.9620 N.3   165  PHE165     -0.1241
     59  CA       -19.3790    7.1430    9.8500 C.3   165  PHE165      0.1605
     60  C        -19.2470    6.8080   11.3280 C.2   165  PHE165      0.2264
     61  O        -18.6640    7.5720   12.0750 O.2   165  PHE165     -0.2867
     62  CB       -20.7080    7.8250    9.5270 C.3   165  PHE165      0.0534
     63  CG       -20.6930    8.5400    8.2130 C.ar  165  PHE165     -0.0203
     64  CD1      -21.7330    8.3860    7.3040 C.ar  165  PHE165     -0.0042
     65  CD2      -19.6180    9.3450    7.8730 C.ar  165  PHE165     -0.0042
     66  CE1      -21.7060    9.0330    6.0760 C.ar  165  PHE165     -0.0003
     67  CE2      -19.5810    9.9970    6.6580 C.ar  165  PHE165     -0.0003
     68  CZ       -20.6290    9.8390    5.7510 C.ar  165  PHE165     -0.0000
     69  N        -20.7210   17.5470   13.3940 N.3   177  SER177     -0.1217
     70  CA       -20.9280   17.4040   11.9740 C.3   177  SER177      0.1889
     71  C        -21.0710   15.9430   11.5840 C.2   177  SER177      0.2288
     72  O        -21.9200   15.6020   10.7590 O.2   177  SER177     -0.2866
     73  CB       -19.8030   18.0510   11.1850 C.3   177  SER177      0.2089
     74  OG       -20.0390   17.8700    9.8020 O.3   177  SER177     -0.2183
     75  N        -24.2450   14.3530   12.5870 N.3   180  ASN180     -0.1225
     76  CA       -25.2260   14.6880   11.5850 C.3   180  ASN180      0.1785
     77  C        -25.0760   13.7860   10.3700 C.2   180  ASN180      0.2597
     78  O        -26.0620   13.2690    9.8970 O.2   180  ASN180     -0.2718
     79  CB       -25.2010   16.1760   11.1880 C.3   180  ASN180      0.1169
     80  CG       -26.4240   16.5760   10.3460 C.2   180  ASN180      0.2627
     81  OD1      -27.5540   16.6160   10.8430 O.2   180  ASN180     -0.2716
     82  ND2      -26.2000   16.8510    9.0660 N.am  180  ASN180     -0.0877
     83  N        -23.8650   13.5920    9.8550 N.am  181  ARG181     -0.1979
     84  CA       -23.7300   12.7900    8.6360 C.3   181  ARG181      0.1597
     85  C        -24.2870   11.3870    8.8790 C.2   181  ARG181      0.2287
     86  O        -24.8170   10.7220    7.9690 O.2   181  ARG181     -0.2864
     87  CB       -22.2860   12.7380    8.1350 C.3   181  ARG181      0.0334
     88  CG       -21.8430   13.9840    7.3760 C.3   181  ARG181      0.0492
     89  CD       -20.7890   14.7680    8.1830 C.3   181  ARG181      0.2205
     90  NE       -20.7290   16.1890    7.8360 N.pl3 181  ARG181     -0.0865
     91  CZ       -20.2820   16.6630    6.6770 C.cat 181  ARG181      0.5346
     92  NH1      -19.8650   15.8400    5.7290 N.pl3 181  ARG181      0.1354
     93  NH2      -20.2730   17.9650    6.4590 N.pl3 181  ARG181      0.1354
     94  N        -28.2010   11.6720    9.0520 N.3   184  ALA184     -0.1231
     95  CA       -28.5940   11.9620    7.6860 C.3   184  ALA184      0.1694
     96  C        -28.5620   10.6950    6.8820 C.2   184  ALA184      0.2592
     97  O        -29.4090   10.4750    6.0180 O.2   184  ALA184     -0.2718
     98  CB       -27.6340   12.9740    7.0840 C.3   184  ALA184      0.0304
     99  N        -27.5680    9.8640    7.1730 N.am  185  THR185     -0.1953
    100  CA       -27.3470    8.6590    6.3920 C.3   185  THR185      0.1897
    101  C        -28.3250    7.5390    6.7520 C.2   185  THR185      0.2313
    102  O        -28.7540    6.7750    5.8870 O.2   185  THR185     -0.2863
    103  CB       -25.9070    8.1910    6.5520 C.3   185  THR185      0.1794
    104  OG1      -25.0660    9.3340    6.7690 O.3   185  THR185     -0.2208
    105  CG2      -25.4480    7.4660    5.3040 C.3   185  THR185      0.0378
    106  N        -31.4390    8.1410    8.1530 N.3   187  ALA187     -0.1231
    107  CA       -32.7280    8.6290    7.7120 C.3   187  ALA187      0.1694
    108  C        -32.7970    8.4190    6.2200 C.2   187  ALA187      0.2592
    109  O        -33.7140    7.7720    5.7150 O.2   187  ALA187     -0.2718
    110  CB       -32.8840   10.0780    8.0600 C.3   187  ALA187      0.0304
    111  N        -31.7900    8.9210    5.5230 N.am  188  ASN188     -0.1974
    112  CA       -31.6650    8.6630    4.1050 C.3   188  ASN188      0.1688
    113  C        -31.7260    7.1770    3.8030 C.2   188  ASN188      0.2292
    114  O        -32.1190    6.7680    2.7070 O.2   188  ASN188     -0.2864
    115  CB       -30.3590    9.2320    3.5800 C.3   188  ASN188      0.1181
    116  CG       -30.5450   10.5680    2.9280 C.2   188  ASN188      0.2629
    117  OD1      -31.2420   10.6790    1.9180 O.2   188  ASN188     -0.2716
    118  ND2      -29.9230   11.5990    3.4940 N.am  188  ASN188     -0.0877
    119  N        -29.1170   12.8760   15.2210 N.3   199  TYR199     -0.1241
    120  CA       -29.4320   14.2890   15.2300 C.3   199  TYR199      0.1605
    121  C        -29.4490   14.8310   16.6520 C.2   199  TYR199      0.2264
    122  O        -28.7660   15.7920   16.9560 O.2   199  TYR199     -0.2867
    123  CB       -30.8020   14.5240   14.5990 C.3   199  TYR199      0.0534
    124  CG       -30.9160   14.0840   13.1560 C.ar  199  TYR199     -0.0201
    125  CD1      -29.8200   14.1520   12.2960 C.ar  199  TYR199     -0.0009
    126  CD2      -32.1180   13.6050   12.6550 C.ar  199  TYR199     -0.0009
    127  CE1      -29.9240   13.7650   10.9720 C.ar  199  TYR199      0.0417
    128  CE2      -32.2330   13.2170   11.3380 C.ar  199  TYR199      0.0417
    129  CZ       -31.1370   13.2910   10.4960 C.ar  199  TYR199      0.1957
    130  OH       -31.2700   12.8860    9.1730 O.3   199  TYR199     -0.2866
    131  N        -27.3070   24.1610   15.5430 N.3   209  PHE209     -0.1241
    132  CA       -27.0380   23.4760   14.2740 C.3   209  PHE209      0.1605
    133  C        -28.2960   23.4830   13.3910 C.2   209  PHE209      0.2264
    134  O        -29.2680   22.7660   13.6450 O.2   209  PHE209     -0.2867
    135  CB       -26.5650   22.0350   14.5580 C.3   209  PHE209      0.0534
    136  CG       -25.8720   21.3670   13.4000 C.ar  209  PHE209     -0.0203
    137  CD1      -25.8160   21.9740   12.1620 C.ar  209  PHE209     -0.0042
    138  CD2      -25.2760   20.1220   13.5580 C.ar  209  PHE209     -0.0042
    139  CE1      -25.1820   21.3530   11.0940 C.ar  209  PHE209     -0.0003
    140  CE2      -24.6420   19.4960   12.4990 C.ar  209  PHE209     -0.0003
    141  CZ       -24.5930   20.1130   11.2650 C.ar  209  PHE209     -0.0000
    142  N        -28.7010   22.6890    9.9850 N.3   211  ARG211     -0.1245
    143  CA       -28.8350   21.4920    9.1500 C.3   211  ARG211      0.1563
    144  C        -29.3310   20.2540    9.9150 C.2   211  ARG211      0.2260
    145  O        -30.0120   19.3870    9.3520 O.2   211  ARG211     -0.2867
    146  CB       -27.5180   21.1900    8.4370 C.3   211  ARG211      0.0307
    147  CG       -27.5050   19.8680    7.7080 C.3   211  ARG211      0.0489
    148  CD       -26.5340   19.9010    6.5520 C.3   211  ARG211      0.2205
    149  NE       -27.0370   20.7460    5.4740 N.pl3 211  ARG211     -0.0865
    150  CZ       -26.3890   20.9710    4.3390 C.cat 211  ARG211      0.5346
    151  NH1      -25.2040   20.4230    4.1320 N.pl3 211  ARG211      0.1354
    152  NH2      -26.9230   21.7450    3.4140 N.pl3 211  ARG211      0.1354
    153  N        -33.0970   20.8010   10.7060 N.3   214  TYR214     -0.1227
    154  CA       -33.7660   20.4740    9.4680 C.3   214  TYR214      0.1736
    155  C        -33.8700   18.9580    9.2670 C.2   214  TYR214      0.2595
    156  O        -34.9720   18.3930    9.2060 O.2   214  TYR214     -0.2718
    157  CB       -33.0170   21.1040    8.3120 C.3   214  TYR214      0.0548
    158  CG       -33.6430   20.7880    6.9940 C.ar  214  TYR214     -0.0200
    159  CD1      -34.9090   21.2420    6.6930 C.ar  214  TYR214     -0.0009
    160  CD2      -32.9740   20.0230    6.0520 C.ar  214  TYR214     -0.0009
    161  CE1      -35.4960   20.9510    5.4840 C.ar  214  TYR214      0.0417
    162  CE2      -33.5500   19.7250    4.8370 C.ar  214  TYR214      0.0417
    163  CZ       -34.8120   20.1940    4.5580 C.ar  214  TYR214      0.1957
    164  OH       -35.4110   19.9170    3.3540 O.3   214  TYR214     -0.2866
    165  N        -32.7140   18.3050    9.1560 N.am  215  ASN215     -0.1974
    166  CA       -32.6590   16.8630    8.9720 C.3   215  ASN215      0.1688
    167  C        -33.5820   16.1700    9.9640 C.2   215  ASN215      0.2292
    168  O        -34.3260   15.2420    9.6230 O.2   215  ASN215     -0.2864
    169  CB       -31.2250   16.3680    9.1830 C.3   215  ASN215      0.1181
    170  CG       -30.3520   16.5160    7.9430 C.2   215  ASN215      0.2629
    171  OD1      -30.8420   16.5860    6.8140 O.2   215  ASN215     -0.2716
    172  ND2      -29.0420   16.5480    8.1560 N.am  215  ASN215     -0.0877
    173  N        -37.1870   16.4420    8.9250 N.3   218  ILE218     -0.1245
    174  CA       -37.4350   15.4440    7.8880 C.3   218  ILE218      0.1561
    175  C        -37.6860   14.0810    8.5110 C.2   218  ILE218      0.2260
    176  O        -38.6360   13.3720    8.1580 O.2   218  ILE218     -0.2867
    177  CB       -36.2410   15.2950    6.9370 C.3   218  ILE218      0.0252
    178  CG1      -35.7930   16.6570    6.4050 C.3   218  ILE218      0.0019
    179  CG2      -36.6020   14.3710    5.7790 C.3   218  ILE218      0.0019
    180  CD1      -36.3650   16.9860    5.0400 C.3   218  ILE218      0.0001
    181  N        -41.1090   13.8070   10.2100 N.3   221  ILE221     -0.1231
    182  CA       -42.0840   13.5430    9.1840 C.3   221  ILE221      0.1692
    183  C        -42.0810   12.0520    8.9150 C.2   221  ILE221      0.2592
    184  O        -43.1160   11.3990    9.0010 O.2   221  ILE221     -0.2718
    185  CB       -41.7280   14.2780    7.9020 C.3   221  ILE221      0.0266
    186  CG1      -41.8070   15.7920    8.1280 C.3   221  ILE221      0.0019
    187  CG2      -42.6390   13.8320    6.7660 C.3   221  ILE221      0.0020
    188  CD1      -41.4200   16.6010    6.9100 C.3   221  ILE221      0.0001
    189  N        -40.9040   11.5070    8.6220 N.am  222  ASN222     -0.1974
    190  CA       -40.8010   10.0860    8.3070 C.3   222  ASN222      0.1688
    191  C        -41.3740    9.2060    9.4030 C.2   222  ASN222      0.2292
    192  O        -41.6940    8.0440    9.1720 O.2   222  ASN222     -0.2864
    193  CB       -39.3530    9.6910    8.0290 C.3   222  ASN222      0.1181
    194  CG       -38.8710   10.1810    6.6820 C.2   222  ASN222      0.2629
    195  OD1      -39.6700   10.3810    5.7620 O.2   222  ASN222     -0.2716
    196  ND2      -37.5610   10.3820    6.5560 N.am  222  ASN222     -0.0877
    197  N        -35.9150   25.6990    1.4290 N.3   245  ASN245     -0.1240
    198  CA       -36.1820   24.2570    1.5660 C.3   245  ASN245      0.1653
    199  C        -36.7780   23.8900    2.9160 C.2   245  ASN245      0.2266
    200  O        -37.6430   23.0080    3.0300 O.2   245  ASN245     -0.2867
    201  CB       -34.9030   23.4530    1.3420 C.3   245  ASN245      0.1155
    202  CG       -33.7860   23.8820    2.2620 C.2   245  ASN245      0.2627
    203  OD1      -33.2740   24.9950    2.1510 O.2   245  ASN245     -0.2716
    204  ND2      -33.3960   23.0050    3.1740 N.am  245  ASN245     -0.0877
    205  N        -40.4200   22.0460    3.6190 N.3   249  ALA249     -0.1245
    206  CA       -40.6710   20.9840    4.5790 C.3   249  ALA249      0.1562
    207  C        -41.7550   21.3940    5.5640 C.2   249  ALA249      0.2260
    208  O        -42.7520   20.6840    5.7730 O.2   249  ALA249     -0.2867
    209  CB       -39.3860   20.6740    5.3320 C.3   249  ALA249      0.0290
    210  N        -45.1410   21.3490    4.3560 N.3   252  ILE252     -0.1245
    211  CA       -45.6200   19.9580    4.2900 C.3   252  ILE252      0.1561
    212  C        -46.1260   19.3770    5.6200 C.2   252  ILE252      0.2260
    213  O        -47.2780   18.9590    5.7350 O.2   252  ILE252     -0.2867
    214  CB       -44.5310   18.9970    3.7690 C.3   252  ILE252      0.0252
    215  CG1      -43.9540   19.4910    2.4410 C.3   252  ILE252      0.0019
    216  CG2      -45.1000   17.5930    3.6210 C.3   252  ILE252      0.0019
    217  CD1      -42.8590   18.6060    1.8900 C.3   252  ILE252      0.0001
@<TRIPOS>BOND
     1    29    28    2
     2    26    27    1
     3    27    28    1
     4    27    30    1
     5    28    33   am
     6    36    35    2
     7    35    34    1
     8    31    30    1
     9    51    50    2
    10    30    32    1
    11    33    34    1
    12    50    49    1
    13    34    37    1
    14    13    12    2
    15    44    43    2
    16    12    11    1
    17    46    45    1
    18    15    14    1
    19    15    16    1
    20    37    38    1
    21    22    21    2
    22    43    42    1
    23    49    48    1
    24    49    52    1
    25    19    20    1
    26    55    57   ar
    27    55    53   ar
    28    21    20    1
    29    14    11    1
    30    11    10    1
    31    52    53    1
    32    20    23    1
    33    16    17   ar
    34    16    18   ar
    35    57    56   ar
    36    45    42    1
    37    45    47    1
    38    53    54   ar
    39    38    40   am
    40    38    39    2
    41   201   198    1
    42   201   202    1
    43    42    41    1
    44   197   198    1
    45   198   199    1
    46   217   215    1
    47   117   116    2
    48   203   202    2
    49    56    54   ar
    50   202   204   am
    51    23    25    1
    52    23    24    1
    53   215   214    1
    54   114   113    2
    55   199   200    2
    56   116   118   am
    57   116   115    1
    58   164   163    1
    59   152   150    1
    60   115   112    1
    61   205   206    1
    62   216   214    1
    63   214   211    1
    64   113   112    1
    65     9     7   ar
    66   112   111    1
    67   151   150    1
    68     4     3    2
    69   211   210    1
    70   211   212    1
    71   150   149    2
    72   163   162   ar
    73   163   161   ar
    74   206   209    1
    75   206   207    1
    76     3     2    1
    77   162   160   ar
    78     7     8   ar
    79     7     6    1
    80   180   178    1
    81   105   103    1
    82   149   148    1
    83   161   159   ar
    84   111   108   am
    85   207   208    2
    86   212   213    2
    87   109   108    2
    88    92    91    1
    89    68    66   ar
    90    68    67   ar
    91   195   194    2
    92   179   177    1
    93   102   101    2
    94     2     5    1
    95     2     1    1
    96    97    96    2
    97   160   158   ar
    98    66    64   ar
    99     6     5    1
   100   108   107    1
   101   100   103    1
   102   100   101    1
   103   100    99    1
   104   178   177    1
   105    93    91    1
   106   148   147    1
   107   103   104    1
   108   196   194   am
   109    67    65   ar
   110    91    90    2
   111   194   193    1
   112   159   158   ar
   113   187   185    1
   114   171   170    2
   115    96    99   am
   116    96    95    1
   117   188   186    1
   118   177   174    1
   119   158   157    1
   120    98    95    1
   121    64    63   ar
   122    88    87    1
   123    88    89    1
   124    95    94    1
   125   147   146    1
   126   107   110    1
   127   107   106    1
   128    90    89    1
   129    65    63   ar
   130   174   175    1
   131   174   173    1
   132   185   186    1
   133   185   182    1
   134   170   172   am
   135   170   169    1
   136    86    85    2
   137   193   190    1
   138    87    84    1
   139   176   175    2
   140    63    62    1
   141   190   189    1
   142   190   191    1
   143   157   154    1
   144   146   143    1
   145   189   183   am
   146    84    85    1
   147    84    83    1
   148   183   184    2
   149   183   182    1
   150    58    59    1
   151   166   165    1
   152   166   169    1
   153   166   167    1
   154    82    80   am
   155   143   144    1
   156   143   142    1
   157   165   155   am
   158   192   191    2
   159   130   129    1
   160   182   181    1
   161   156   155    2
   162   155   154    1
   163   145   144    2
   164   154   153    1
   165    62    59    1
   166   168   167    2
   167    74    73    1
   168    59    60    1
   169    83    77   am
   170    78    77    2
   171    80    81    2
   172    80    79    1
   173    77    76    1
   174   129   127   ar
   175   129   128   ar
   176    72    71    2
   177   127   125   ar
   178   139   141   ar
   179   139   137   ar
   180    73    70    1
   181    79    76    1
   182   141   140   ar
   183    60    61    2
   184   128   126   ar
   185    71    70    1
   186    76    75    1
   187    70    69    1
   188   137   136   ar
   189   125   124   ar
   190   140   138   ar
   191   126   124   ar
   192   124   123    1
   193   133   134    2
   194   133   132    1
   195   136   138   ar
   196   136   135    1
   197   132   135    1
   198   132   131    1
   199   123   120    1
   200   119   120    1
   201   120   121    1
   202   121   122    2
