@<TRIPOS>MOLECULE
tmp/4eqlB01.pdb
 117 112 0 0 0
SMALL
GASTEIGER

@<TRIPOS>ATOM
      1  N         -8.3770    9.4030   48.6070 N.3   104  TYR104     -0.1241
      2  CA        -7.8940   10.5280   47.8040 C.3   104  TYR104      0.1605
      3  C         -8.7640   10.6840   46.5580 C.2   104  TYR104      0.2264
      4  O         -9.1550   11.7910   46.1860 O.2   104  TYR104     -0.2867
      5  CB        -6.4160   10.3450   47.4410 C.3   104  TYR104      0.0534
      6  CG        -5.8200   11.5690   46.7970 C.ar  104  TYR104     -0.0201
      7  CD1       -5.1950   12.5350   47.5610 C.ar  104  TYR104     -0.0009
      8  CD2       -5.9050   11.7680   45.4310 C.ar  104  TYR104     -0.0009
      9  CE1       -4.6650   13.6610   46.9870 C.ar  104  TYR104      0.0417
     10  CE2       -5.3730   12.9060   44.8440 C.ar  104  TYR104      0.0417
     11  CZ        -4.7490   13.8390   45.6310 C.ar  104  TYR104      0.1957
     12  OH        -4.2060   14.9800   45.0770 O.3   104  TYR104     -0.2866
     13  N        -11.2730   13.5320   45.3480 N.3   108  LEU108     -0.1245
     14  CA       -10.9960   14.1580   44.0620 C.3   108  LEU108      0.1561
     15  C        -12.2400   14.1250   43.1760 C.2   108  LEU108      0.2260
     16  O        -12.6110   15.1310   42.5570 O.2   108  LEU108     -0.2867
     17  CB        -9.8230   13.4470   43.3680 C.3   108  LEU108      0.0270
     18  CG        -9.3270   14.0610   42.0540 C.3   108  LEU108      0.0019
     19  CD1       -8.7880   15.4670   42.3070 C.3   108  LEU108      0.0001
     20  CD2       -8.2420   13.1810   41.4150 C.3   108  LEU108      0.0001
     21  N        -14.5110   16.9930   41.4260 N.3   112  TYR112     -0.1241
     22  CA       -14.8420   17.0130   40.0020 C.3   112  TYR112      0.1605
     23  C        -16.3390   17.2340   39.8030 C.2   112  TYR112      0.2264
     24  O        -16.7450   18.0590   38.9810 O.2   112  TYR112     -0.2867
     25  CB       -14.4060   15.7010   39.3180 C.3   112  TYR112      0.0534
     26  CG       -12.9110   15.5420   39.1380 C.ar  112  TYR112     -0.0201
     27  CD1      -12.0320   16.5720   39.4470 C.ar  112  TYR112     -0.0009
     28  CD2      -12.3750   14.3550   38.6330 C.ar  112  TYR112     -0.0009
     29  CE1      -10.6560   16.4260   39.2620 C.ar  112  TYR112      0.0417
     30  CE2      -11.0000   14.2030   38.4420 C.ar  112  TYR112      0.0417
     31  CZ       -10.1500   15.2430   38.7520 C.ar  112  TYR112      0.1957
     32  OH        -8.7880   15.0990   38.5650 O.3   112  TYR112     -0.2866
     33  N        -17.3340   20.9260   40.9710 N.3   115  ARG115     -0.1245
     34  CA       -16.8790   21.9950   40.0710 C.3   115  ARG115      0.1563
     35  C        -17.6240   21.9400   38.7440 C.2   115  ARG115      0.2260
     36  O        -17.9080   22.9830   38.1380 O.2   115  ARG115     -0.2867
     37  CB       -15.3570   21.9790   39.8750 C.3   115  ARG115      0.0307
     38  CG       -14.8250   20.8810   38.9510 C.3   115  ARG115      0.0489
     39  CD       -13.3040   20.7000   39.1210 C.3   115  ARG115      0.2205
     40  NE       -12.7400   19.9040   38.0260 N.pl3 115  ARG115     -0.0865
     41  CZ       -11.4760   19.4900   37.9490 C.cat 115  ARG115      0.5346
     42  NH1      -10.6010   19.7880   38.9030 N.pl3 115  ARG115      0.1354
     43  NH2      -11.0840   18.7720   36.9050 N.pl3 115  ARG115      0.1354
     44  N         -0.6120   12.8650   41.1770 N.3   152  ALA152     -0.1231
     45  CA        -2.0160   12.8250   41.5770 C.3   152  ALA152      0.1694
     46  C         -2.9760   12.4730   40.4440 C.2   152  ALA152      0.2592
     47  O         -3.8060   11.5760   40.5830 O.2   152  ALA152     -0.2718
     48  CB        -2.4310   14.1480   42.2470 C.3   152  ALA152      0.0304
     49  N         -2.8860   13.1700   39.3160 N.am  153  THR153     -0.1953
     50  CA        -3.8720   12.9340   38.2670 C.3   153  THR153      0.1897
     51  C         -3.6960   11.5720   37.5980 C.2   153  THR153      0.2313
     52  O         -4.6750   10.9750   37.1540 O.2   153  THR153     -0.2863
     53  CB        -3.9160   14.0760   37.2190 C.3   153  THR153      0.1794
     54  OG1       -2.6130   14.2690   36.6550 O.3   153  THR153     -0.2208
     55  CG2       -4.3780   15.3730   37.8870 C.3   153  THR153      0.0378
     56  N         -4.6710   20.5310   33.0750 N.3   209  ILE209     -0.1231
     57  CA        -4.6060   20.8040   34.5070 C.3   209  ILE209      0.1692
     58  C         -4.0100   22.1800   34.7980 C.2   209  ILE209      0.2592
     59  O         -4.5760   22.9580   35.5680 O.2   209  ILE209     -0.2718
     60  CB        -3.8120   19.7300   35.2570 C.3   209  ILE209      0.0266
     61  CG1       -4.3480   18.3360   34.9100 C.3   209  ILE209      0.0019
     62  CG2       -3.8640   20.0010   36.7630 C.3   209  ILE209      0.0020
     63  CD1       -5.8030   18.1120   35.2640 C.3   209  ILE209      0.0001
     64  N         -2.8710   22.4710   34.1740 N.am  210  PHE210     -0.1976
     65  CA        -2.1650   23.7390   34.3400 C.3   210  PHE210      0.1639
     66  C         -1.9780   24.4650   33.0050 C.2   210  PHE210      0.2290
     67  O         -1.8890   23.8290   31.9550 O.2   210  PHE210     -0.2864
     68  CB        -0.8040   23.5000   34.9990 C.3   210  PHE210      0.0560
     69  CG        -0.9060   22.9350   36.3890 C.ar  210  PHE210     -0.0200
     70  CD1       -1.3260   23.7320   37.4410 C.ar  210  PHE210     -0.0042
     71  CD2       -0.5960   21.6080   36.6410 C.ar  210  PHE210     -0.0042
     72  CE1       -1.4320   23.2210   38.7220 C.ar  210  PHE210     -0.0003
     73  CE2       -0.6980   21.0890   37.9200 C.ar  210  PHE210     -0.0003
     74  CZ        -1.1170   21.8960   38.9600 C.ar  210  PHE210     -0.0000
     75  N         -5.5930   25.8950   35.1890 N.3   291  VAL291     -0.1245
     76  CA        -5.1280   26.6830   36.3270 C.3   291  VAL291      0.1561
     77  C         -4.2650   27.8220   35.8200 C.2   291  VAL291      0.2260
     78  O         -3.3130   27.6010   35.0710 O.2   291  VAL291     -0.2867
     79  CB        -4.3220   25.8380   37.3340 C.3   291  VAL291      0.0252
     80  CG1       -3.4990   26.7450   38.2610 C.3   291  VAL291      0.0019
     81  CG2       -5.2590   24.9260   38.1380 C.3   291  VAL291      0.0019
     82  N         -9.5560   24.5970   40.5170 N.3   316  THR316     -0.1203
     83  CA        -9.1720   23.7370   41.6400 C.3   316  THR316      0.1994
     84  C         -7.7630   24.0190   42.1730 C.2   316  THR316      0.2618
     85  O         -6.8230   24.2610   41.4110 O.2   316  THR316     -0.2717
     86  CB        -9.2630   22.2420   41.2400 C.3   316  THR316      0.1784
     87  OG1      -10.5420   21.9750   40.6400 O.3   316  THR316     -0.2211
     88  CG2       -9.0650   21.3250   42.4570 C.3   316  THR316      0.0376
     89  N         -7.6380   23.9630   43.4980 N.am  317  TYR317     -0.1961
     90  CA        -6.3550   24.0250   44.1780 C.3   317  TYR317      0.1771
     91  C         -6.1880   22.7190   44.9700 C.2   317  TYR317      0.2620
     92  O         -7.0620   22.3210   45.7440 O.2   317  TYR317     -0.2715
     93  CB        -6.3090   25.2930   45.0560 C.3   317  TYR317      0.0574
     94  CG        -5.1770   25.4070   46.0530 C.ar  317  TYR317     -0.0198
     95  CD1       -3.8950   24.9550   45.7640 C.ar  317  TYR317     -0.0009
     96  CD2       -5.4030   25.9930   47.2970 C.ar  317  TYR317     -0.0009
     97  CE1       -2.8630   25.0730   46.7120 C.ar  317  TYR317      0.0417
     98  CE2       -4.3960   26.1160   48.2350 C.ar  317  TYR317      0.0417
     99  CZ        -3.1270   25.6590   47.9450 C.ar  317  TYR317      0.1957
    100  OH        -2.1420   25.7910   48.9120 O.3   317  TYR317     -0.2866
    101  N         -5.0800   22.0220   44.7280 N.am  318  GLY318     -0.1940
    102  CA        -4.8980   20.6970   45.2880 C.3   318  GLY318      0.2014
    103  C         -3.4310   20.3610   45.3880 C.2   318  GLY318      0.2639
    104  O         -2.5930   21.0590   44.8140 O.2   318  GLY318     -0.2714
    105  N         -3.1200   19.3020   46.1280 N.am  319  SER319     -0.1949
    106  CA        -1.7360   18.8640   46.3130 C.3   319  SER319      0.1924
    107  C         -1.7040   17.3550   46.5540 C.2   319  SER319      0.2314
    108  O         -2.7470   16.7060   46.6890 O.2   319  SER319     -0.2863
    109  CB        -1.1000   19.5660   47.5120 C.3   319  SER319      0.2116
    110  OG        -1.6230   19.0330   48.7310 O.3   319  SER319     -0.2180
    111  N         -6.6970   17.3700   48.0940 N.3   323  THR323     -0.1218
    112  CA        -7.3330   18.4310   47.3230 C.3   323  THR323      0.1862
    113  C         -7.8070   19.4730   48.3540 C.2   323  THR323      0.2287
    114  O         -8.2880   19.1040   49.4310 O.2   323  THR323     -0.2866
    115  CB        -8.5430   17.8880   46.5180 C.3   323  THR323      0.1770
    116  OG1       -8.1480   16.7360   45.7700 O.3   323  THR323     -0.2211
    117  CG2       -9.0880   18.9570   45.5500 C.3   323  THR323      0.0375
@<TRIPOS>BOND
     1    67    66    2
     2    66    65    1
     3    56    57    1
     4    64    65    1
     5    64    58   am
     6    65    68    1
     7    57    58    1
     8    57    60    1
     9    58    59    2
    10    61    60    1
    11    61    63    1
    12    68    69    1
    13    78    77    2
    14    75    76    1
    15    60    62    1
    16    77    76    1
    17    76    79    1
    18    69    71   ar
    19    69    70   ar
    20    71    73   ar
    21    54    53    1
    22    43    41    1
    23    52    51    2
    24    53    55    1
    25    53    50    1
    26    79    81    1
    27    79    80    1
    28    70    72   ar
    29    51    50    1
    30    73    74   ar
    31    41    40    2
    32    41    42    1
    33    40    39    1
    34    36    35    2
    35    50    49    1
    36    30    28   ar
    37    30    31   ar
    38    32    31    1
    39    28    26   ar
    40    72    74   ar
    41    35    34    1
    42    31    29   ar
    43    38    39    1
    44    38    37    1
    45    24    23    2
    46    26    25    1
    47    26    27   ar
    48    29    27   ar
    49    49    46   am
    50    25    22    1
    51    23    22    1
    52    37    34    1
    53    22    21    1
    54    34    33    1
    55    46    47    2
    56    46    45    1
    57    82    83    1
    58    87    86    1
    59    44    45    1
    60    86    83    1
    61    86    88    1
    62    85    84    2
    63    20    18    1
    64    45    48    1
    65    83    84    1
    66    18    19    1
    67    18    17    1
    68    84    89   am
    69    16    15    2
    70    15    14    1
    71    17    14    1
    72    89    90    1
    73    14    13    1
    74    90    91    1
    75    90    93    1
    76   101    91   am
    77   101   102    1
    78   104   103    2
    79    10     8   ar
    80    10    11   ar
    81    91    92    2
    82    93    94    1
    83    12    11    1
    84   102   103    1
    85   103   105   am
    86     8     6   ar
    87   117   115    1
    88    11     9   ar
    89    95    94   ar
    90    95    97   ar
    91   116   115    1
    92    94    96   ar
    93   105   106    1
    94     4     3    2
    95   106   107    1
    96   106   109    1
    97   115   112    1
    98   107   108    2
    99     3     2    1
   100    97    99   ar
   101     6     5    1
   102     6     7   ar
   103     9     7   ar
   104    96    98   ar
   105   112   111    1
   106   112   113    1
   107     5     2    1
   108   109   110    1
   109     2     1    1
   110    99    98   ar
   111    99   100    1
   112   113   114    2
