@<TRIPOS>MOLECULE
tmp/4equA00.pdb
 206 193 0 0 0
SMALL
GASTEIGER

@<TRIPOS>ATOM
      1  N         72.3680   24.9230   18.0350 N.3    19  LEU19      -0.1245
      2  CA        70.9630   24.6250   17.7700 C.3    19  LEU19       0.1561
      3  C         70.2080   24.4080   19.0750 C.2    19  LEU19       0.2260
      4  O         69.6820   25.3560   19.6500 O.2    19  LEU19      -0.2867
      5  CB        70.8310   23.3830   16.8850 C.3    19  LEU19       0.0270
      6  CG        71.5380   23.4650   15.5250 C.3    19  LEU19       0.0019
      7  CD1       71.3810   22.1630   14.7500 C.3    19  LEU19       0.0001
      8  CD2       71.0320   24.6370   14.6940 C.3    19  LEU19       0.0001
      9  N         73.7790   21.0320   21.7040 N.3    22  VAL22      -0.1245
     10  CA        73.6200   20.5130   20.3390 C.3    22  VAL22       0.1561
     11  C         74.1180   21.5540   19.3270 C.2    22  VAL22       0.2260
     12  O         73.6520   22.6920   19.3220 O.2    22  VAL22      -0.2867
     13  CB        72.1490   20.1560   20.0130 C.3    22  VAL22       0.0252
     14  CG1       72.0360   19.5230   18.6310 C.3    22  VAL22       0.0019
     15  CG2       71.5770   19.2160   21.0610 C.3    22  VAL22       0.0019
     16  N         74.0390   17.6970   12.7170 N.3    35  ALA35      -0.1245
     17  CA        73.6250   18.1990   14.0150 C.3    35  ALA35       0.1562
     18  C         74.3130   17.2880   15.0180 C.2    35  ALA35       0.2260
     19  O         74.1570   16.0670   14.9440 O.2    35  ALA35      -0.2867
     20  CB        72.1080   18.1070   14.1580 C.3    35  ALA35       0.0290
     21  N         75.0230   16.1700   18.9380 N.3    37  LYS37      -0.1245
     22  CA        74.6780   16.1750   20.3580 C.3    37  LYS37       0.1561
     23  C         75.8660   15.7020   21.1990 C.2    37  LYS37       0.2260
     24  O         76.3340   14.5710   21.0510 O.2    37  LYS37      -0.2867
     25  CB        73.4540   15.2980   20.6450 C.3    37  LYS37       0.0271
     26  CG        72.9120   15.5790   22.0440 C.3    37  LYS37       0.0035
     27  CD        71.5250   14.9900   22.3550 C.3    37  LYS37       0.0206
     28  CE        71.3970   13.5000   22.0920 C.3    37  LYS37       0.1093
     29  NZ        70.1230   12.9550   22.6440 N.3    37  LYS37      -0.1314
     30  N         69.8730    4.9470   22.6210 N.3    47  GLU47      -0.1245
     31  CA        69.4670    5.8290   21.5260 C.3    47  GLU47       0.1567
     32  C         70.2280    5.5090   20.2360 C.2    47  GLU47       0.2260
     33  O         69.6440    5.4830   19.1450 O.2    47  GLU47      -0.2867
     34  CB        69.6530    7.3040   21.9180 C.3    47  GLU47       0.0388
     35  CG        69.2260    8.2770   20.8340 C.3    47  GLU47       0.1160
     36  CD        69.2980    9.7420   21.2500 C.2    47  GLU47       0.3649
     37  OE1       69.6750   10.0410   22.4070 O.co2  47  GLU47      -0.2457
     38  OE2       68.9630   10.6000   20.3940 O.co2  47  GLU47      -0.2457
     39  N         69.1430    2.2280   18.5280 N.3    50  ILE50      -0.1231
     40  CA        67.8990    2.4740   17.7930 C.3    50  ILE50       0.1692
     41  C         68.2090    3.1880   16.4680 C.2    50  ILE50       0.2591
     42  O         67.8620    2.6890   15.3960 O.2    50  ILE50      -0.2718
     43  CB        66.8840    3.3010   18.6160 C.3    50  ILE50       0.0266
     44  CG1       66.3790    2.4850   19.8160 C.3    50  ILE50       0.0019
     45  CG2       65.7030    3.7190   17.7530 C.3    50  ILE50       0.0020
     46  CD1       65.3650    3.2090   20.6820 C.3    50  ILE50       0.0001
     47  N         68.8820    4.3350   16.5450 N.am   51  LEU51      -0.1980
     48  CA        69.2510    5.0860   15.3430 C.3    51  LEU51       0.1596
     49  C         70.0140    4.2060   14.3430 C.2    51  LEU51       0.2287
     50  O         69.7130    4.2360   13.1520 O.2    51  LEU51      -0.2864
     51  CB        70.0820    6.3240   15.6940 C.3    51  LEU51       0.0297
     52  CG        69.3710    7.5070   16.3650 C.3    51  LEU51       0.0022
     53  CD1       70.3700    8.4950   16.9580 C.3    51  LEU51       0.0001
     54  CD2       68.4520    8.2160   15.3910 C.3    51  LEU51       0.0001
     55  N         67.7190    2.0670   12.4350 N.3    54  CYS54      -0.1235
     56  CA        66.6550    2.7730   11.7260 C.3    54  CYS54       0.1677
     57  C         67.1700    3.4380   10.4650 C.2    54  CYS54       0.2270
     58  O         67.1090    4.6580   10.3430 O.2    54  CYS54      -0.2867
     59  CB        65.9670    3.8080   12.6310 C.3    54  CYS54       0.0956
     60  SG        64.9520    3.0640   13.9330 S.3    54  CYS54      -0.0801
     61  N         63.5510    8.6760    8.2360 N.3    59  ILE59      -0.1231
     62  CA        63.9380    8.6990    9.6400 C.3    59  ILE59       0.1692
     63  C         65.3110    9.3370    9.7140 C.2    59  ILE59       0.2591
     64  O         66.1110    9.1200    8.8100 O.2    59  ILE59      -0.2718
     65  CB        63.9420    7.2720   10.2550 C.3    59  ILE59       0.0266
     66  CG1       62.4960    6.7920   10.4290 C.3    59  ILE59       0.0019
     67  CG2       64.6910    7.2460   11.5820 C.3    59  ILE59       0.0020
     68  CD1       62.3940    5.3120   10.6560 C.3    59  ILE59       0.0001
     69  N         65.5780   10.1330   10.7600 N.am   60  VAL60      -0.1980
     70  CA        66.8850   10.7930   10.9020 C.3    60  VAL60       0.1595
     71  C         67.9580    9.7640   10.6940 C.2    60  VAL60       0.2287
     72  O         67.7830    8.6120   11.0640 O.2    60  VAL60      -0.2864
     73  CB        67.1180   11.4680   12.2830 C.3    60  VAL60       0.0276
     74  CG1       66.4000   12.8130   12.3670 C.3    60  VAL60       0.0022
     75  CG2       66.7290   10.5480   13.4330 C.3    60  VAL60       0.0022
     76  N         76.9720   12.3680   19.2880 N.3    74  ILE74      -0.1245
     77  CA        75.9950   11.7090   18.4180 C.3    74  ILE74       0.1561
     78  C         75.6850   12.6340   17.2390 C.2    74  ILE74       0.2260
     79  O         75.1180   13.7070   17.4190 O.2    74  ILE74      -0.2867
     80  CB        74.6980   11.3710   19.1720 C.3    74  ILE74       0.0252
     81  CG1       75.0020   10.4840   20.3840 C.3    74  ILE74       0.0019
     82  CG2       73.6990   10.6840   18.2480 C.3    74  ILE74       0.0019
     83  CD1       73.7630   10.0660   21.1590 C.3    74  ILE74       0.0001
     84  N         73.9050   13.3750   13.7130 N.3    76  ILE76      -0.1231
     85  CA        72.7810   13.1100   12.8090 C.3    76  ILE76       0.1692
     86  C         72.8710   13.9930   11.5660 C.2    76  ILE76       0.2592
     87  O         73.3710   15.1140   11.6250 O.2    76  ILE76      -0.2718
     88  CB        71.4430   13.4320   13.5030 C.3    76  ILE76       0.0266
     89  CG1       71.1920   12.4860   14.6740 C.3    76  ILE76       0.0019
     90  CG2       70.2850   13.3540   12.5220 C.3    76  ILE76       0.0020
     91  CD1       71.4520   11.0310   14.3590 C.3    76  ILE76       0.0001
     92  N         72.3630   13.5080   10.4370 N.am   77  GLU77      -0.1966
     93  CA        72.3700   14.3250    9.2200 C.3    77  GLU77       0.1733
     94  C         71.5220   15.5790    9.4520 C.2    77  GLU77       0.2616
     95  O         70.4490   15.5040   10.0550 O.2    77  GLU77      -0.2715
     96  CB        71.8620   13.5430    8.0060 C.3    77  GLU77       0.0429
     97  CG        72.1550   14.2340    6.6760 C.3    77  GLU77       0.1163
     98  CD        71.9180   13.3340    5.4700 C.2    77  GLU77       0.3649
     99  OE1       70.7720   12.8990    5.2640 O.co2  77  GLU77      -0.2457
    100  OE2       72.8780   13.0670    4.7210 O.co2  77  GLU77      -0.2457
    101  N         72.0450   16.7290    9.0230 N.am   78  PHE78      -0.1960
    102  CA        71.3750   18.0150    9.2210 C.3    78  PHE78       0.1771
    103  C         70.1910   18.1440    8.2640 C.2    78  PHE78       0.2620
    104  O         70.3140   17.8790    7.0670 O.2    78  PHE78      -0.2715
    105  CB        72.3400   19.1710    9.0190 C.3    78  PHE78       0.0574
    106  CG        71.7880   20.5080    9.4430 C.ar   78  PHE78      -0.0200
    107  CD1       71.4390   20.7410   10.7650 C.ar   78  PHE78      -0.0042
    108  CD2       71.6350   21.5350    8.5240 C.ar   78  PHE78      -0.0042
    109  CE1       70.9410   21.9720   11.1610 C.ar   78  PHE78      -0.0003
    110  CE2       71.1490   22.7720    8.9160 C.ar   78  PHE78      -0.0003
    111  CZ        70.7960   22.9880   10.2370 C.ar   78  PHE78      -0.0000
    112  N         69.0490   18.5280    8.8270 N.am   79  CYS79      -0.1954
    113  CA        67.7870   18.7230    8.0870 C.3    79  CYS79       0.1828
    114  C         67.5300   20.2190    8.0230 C.2    79  CYS79       0.2467
    115  O         67.0350   20.7820    8.9970 O.2    79  CYS79      -0.2730
    116  CB        66.6490   18.0370    8.8300 C.3    79  CYS79       0.0996
    117  SG        66.8580   16.2370    8.9090 S.3    79  CYS79      -0.0797
    118  N         67.9060   20.8760    6.9070 N.am   80  PRO80      -0.2726
    119  CA        67.8820   22.3450    6.9220 C.3    80  PRO80       0.1402
    120  C         66.4800   22.9660    7.0570 C.2    80  PRO80       0.2269
    121  O         66.3710   24.1330    7.3670 O.2    80  PRO80      -0.2865
    122  CB        68.5580   22.7470    5.5830 C.3    80  PRO80       0.0296
    123  CG        69.1320   21.5000    5.0010 C.3    80  PRO80       0.0237
    124  CD        68.4780   20.3270    5.6590 C.3    80  PRO80       0.0939
    125  N         64.1980   22.4670    9.3060 N.3    82  GLY82      -0.1210
    126  CA        63.7000   22.5470   10.6700 C.3    82  GLY82       0.1956
    127  C         62.4940   21.6430   10.8910 C.2    82  GLY82       0.2611
    128  O         62.1290   20.8860   10.0040 O.2    82  GLY82      -0.2717
    129  N         61.8640   21.7670   12.0570 N.am   83  ALA83      -0.1979
    130  CA        60.6890   20.9810   12.4220 C.3    83  ALA83       0.1597
    131  C         59.3860   21.5850   11.8980 C.2    83  ALA83       0.2287
    132  O         59.2700   22.8010   11.7670 O.2    83  ALA83      -0.2864
    133  CB        60.6230   20.8340   13.9330 C.3    83  ALA83       0.0319
    134  N         59.4140    1.3330   11.4850 N.3   114  LEU114     -0.1245
    135  CA        59.6960    1.2110   12.9260 C.3   114  LEU114      0.1561
    136  C         58.9720    0.0160   13.5760 C.2   114  LEU114      0.2260
    137  O         59.5970   -0.7620   14.2740 O.2   114  LEU114     -0.2867
    138  CB        59.3360    2.5010   13.6780 C.3   114  LEU114      0.0270
    139  CG        60.2530    3.6940   13.4310 C.3   114  LEU114      0.0019
    140  CD1       59.6960    4.9210   14.1270 C.3   114  LEU114      0.0001
    141  CD2       61.6860    3.3770   13.8540 C.3   114  LEU114      0.0001
    142  N         57.6050    4.6000   18.6400 N.3   121  HIS121     -0.1241
    143  CA        58.1300    5.9440   18.7940 C.3   121  HIS121      0.1621
    144  C         57.6950    6.5350   20.1080 C.2   121  HIS121      0.2264
    145  O         58.5310    6.9190   20.9180 O.2   121  HIS121     -0.2867
    146  CB        57.7320    6.8050   17.6320 C.3   121  HIS121      0.0745
    147  CG        58.3880    8.1670   17.6420 C.ar  121  HIS121      0.0817
    148  ND1       58.0850    9.1120   18.5530 N.ar  121  HIS121     -0.2268
    149  CD2       59.3650    8.7120   16.8220 C.ar  121  HIS121      0.1154
    150  CE1       58.8200   10.1930   18.3240 C.ar  121  HIS121      0.1986
    151  NE2       59.6040    9.9540   17.2640 N.ar  121  HIS121     -0.2212
    152  N         61.2260   16.5050   11.1900 N.3   130  LEU130     -0.1245
    153  CA        62.1800   17.3930   10.5440 C.3   130  LEU130      0.1561
    154  C         61.9670   17.3740    9.0230 C.2   130  LEU130      0.2260
    155  O         61.4750   16.3970    8.4930 O.2   130  LEU130     -0.2867
    156  CB        63.6120   16.9700   10.8840 C.3   130  LEU130      0.0270
    157  CG        64.0300   17.1660   12.3440 C.3   130  LEU130      0.0019
    158  CD1       65.4390   16.5950   12.5630 C.3   130  LEU130      0.0001
    159  CD2       63.9570   18.6290   12.7500 C.3   130  LEU130      0.0001
    160  N         61.7090   11.6590   10.5340 N.3   139  LEU139     -0.1231
    161  CA        61.1320   11.4730   11.8530 C.3   139  LEU139      0.1693
    162  C         62.2640   11.4480   12.8650 C.2   139  LEU139      0.2592
    163  O         63.2690   10.7740   12.6550 O.2   139  LEU139     -0.2718
    164  CB        60.3530   10.1730   11.9060 C.3   139  LEU139      0.0284
    165  CG        59.4240    9.8870   13.0810 C.3   139  LEU139      0.0019
    166  CD1       58.3140   10.9340   13.1720 C.3   139  LEU139      0.0001
    167  CD2       58.8470    8.4790   12.8800 C.3   139  LEU139      0.0001
    168  N         62.1060   12.2350   13.9290 N.am  140  ALA140     -0.1966
    169  CA        63.1330   12.4180   14.9440 C.3   140  ALA140      0.1728
    170  C         62.4980   12.2500   16.3090 C.2   140  ALA140      0.2616
    171  O         61.2800   12.0600   16.4310 O.2   140  ALA140     -0.2715
    172  CB        63.7380   13.8130   14.8300 C.3   140  ALA140      0.0334
    173  N         63.3450   12.3100   17.3300 N.am  141  ASP141     -0.1957
    174  CA        62.8870   12.4340   18.7020 C.3   141  ASP141      0.1840
    175  C         63.9330   13.1590   19.5220 C.2   141  ASP141      0.2622
    176  O         65.1150   12.8530   19.4550 O.2   141  ASP141     -0.2715
    177  CB        62.5330   11.0890   19.3280 C.3   141  ASP141      0.1450
    178  CG        61.7310   11.2460   20.6420 C.2   141  ASP141      0.3671
    179  OD1       61.2760   12.3780   20.9930 O.co2 141  ASP141     -0.2456
    180  OD2       61.5590   10.2290   21.3270 O.co2 141  ASP141     -0.2456
    181  N         63.4760   14.1420   20.2790 N.am  142  PHE142     -0.1974
    182  CA        64.3390   14.9730   21.0950 C.3   142  PHE142      0.1639
    183  C         63.9660   14.8260   22.5850 C.2   142  PHE142      0.2290
    184  O         63.0020   14.1170   22.9330 O.2   142  PHE142     -0.2864
    185  CB        64.1870   16.4320   20.6530 C.3   142  PHE142      0.0560
    186  CG        64.2330   16.6310   19.1570 C.ar  142  PHE142     -0.0200
    187  CD1       65.3630   16.2870   18.4290 C.ar  142  PHE142     -0.0042
    188  CD2       63.1590   17.1870   18.4840 C.ar  142  PHE142     -0.0042
    189  CE1       65.4150   16.4860   17.0610 C.ar  142  PHE142     -0.0003
    190  CE2       63.2030   17.3860   17.1170 C.ar  142  PHE142     -0.0003
    191  CZ        64.3330   17.0320   16.4000 C.ar  142  PHE142     -0.0000
    192  N         64.3450   11.1390   24.8490 N.3   145  SER145     -0.1217
    193  CA        63.9910   10.2480   23.7440 C.3   145  SER145      0.1889
    194  C         63.1110    9.1120   24.2380 C.2   145  SER145      0.2288
    195  O         63.4990    8.3790   25.1410 O.2   145  SER145     -0.2866
    196  CB        65.2510    9.6880   23.0890 C.3   145  SER145      0.2089
    197  OG        66.1120    9.1140   24.0560 O.3   145  SER145     -0.2183
    198  N         61.6470    6.6410   22.2580 N.3   147  LYS147     -0.1245
    199  CA        61.6740    5.4210   21.4260 C.3   147  LYS147      0.1561
    200  C         62.2650    4.2010   22.1580 C.2   147  LYS147      0.2260
    201  O         63.1660    4.3420   22.9870 O.2   147  LYS147     -0.2867
    202  CB        62.4530    5.6790   20.1320 C.3   147  LYS147      0.0271
    203  CG        61.7180    6.8180   19.3730 C.3   147  LYS147      0.0035
    204  CD        62.1830    6.9150   17.9520 C.3   147  LYS147      0.0206
    205  CE        63.5750    7.3430   17.8110 C.3   147  LYS147      0.1093
    206  NZ        63.9650    7.4280   16.3340 N.3   147  LYS147     -0.1314
@<TRIPOS>BOND
     1   100    98   ar
     2   123   122    1
     3   123   124    1
     4    99    98   ar
     5    98    97    1
     6   122   119    1
     7   124   118    1
     8    97    96    1
     9   118   119    1
    10   118   114   am
    11   119   120    1
    12   120   121    2
    13   104   103    2
    14    96    93    1
    15   114   113    1
    16   114   115    2
    17   113   112    1
    18   113   116    1
    19    61    62    1
    20   103   112   am
    21   103   102    1
    22   155   154    2
    23   108   110   ar
    24   108   106   ar
    25    64    63    2
    26   116   117    1
    27   110   111   ar
    28   105   102    1
    29   105   106    1
    30   154   153    1
    31   101   102    1
    32   101    94   am
    33    93    94    1
    34    93    92    1
    35   125   126    1
    36   106   107   ar
    37    94    95    2
    38    62    63    1
    39    62    65    1
    40    63    69   am
    41   128   127    2
    42   111   109   ar
    43    65    66    1
    44    65    67    1
    45    58    57    2
    46    66    68    1
    47    92    86   am
    48    57    56    1
    49   160   161    1
    50   153   156    1
    51   153   152    1
    52   126   127    1
    53    71    70    1
    54    71    72    2
    55    69    70    1
    56   107   109   ar
    57   156   157    1
    58   127   129   am
    59    70    73    1
    60   134   135    1
    61    86    87    2
    62    86    85    1
    63    56    55    1
    64    56    59    1
    65   132   131    2
    66   161   164    1
    67   161   162    1
    68   131   130    1
    69   164   165    1
    70   129   130    1
    71    73    74    1
    72    73    75    1
    73   157   158    1
    74   157   159    1
    75   130   133    1
    76    90    88    1
    77    59    60    1
    78   163   162    2
    79    16    17    1
    80    85    88    1
    81    85    84    1
    82   162   168   am
    83   167   165    1
    84   135   136    1
    85   135   138    1
    86   165   166    1
    87    50    49    2
    88   139   138    1
    89   139   141    1
    90   139   140    1
    91    88    89    1
    92   136   137    2
    93   168   169    1
    94    17    20    1
    95    17    18    1
    96    49    48    1
    97    91    89    1
    98     8     6    1
    99     7     6    1
   100   172   169    1
   101    19    18    2
   102   169   170    1
   103    48    51    1
   104    48    47    1
   105    54    52    1
   106    42    41    2
   107     6     5    1
   108    51    52    1
   109   170   171    2
   110   170   173   am
   111   206   205    1
   112    52    53    1
   113   191   189   ar
   114   191   190   ar
   115    41    47   am
   116    41    40    1
   117   149   151   ar
   118   149   147   ar
   119     5     2    1
   120   189   187   ar
   121   190   188   ar
   122    78    79    2
   123    78    77    1
   124   151   150   ar
   125   173   174    1
   126   146   147    1
   127   146   143    1
   128   147   148   ar
   129    45    43    1
   130     2     1    1
   131     2     3    1
   132    40    39    1
   133    40    43    1
   134   205   204    1
   135   204   203    1
   136    82    80    1
   137   150   148   ar
   138    77    80    1
   139    77    76    1
   140   187   186   ar
   141   188   186   ar
   142    43    44    1
   143    14    13    1
   144   142   143    1
   145   174   177    1
   146   174   175    1
   147   143   144    1
   148    21    22    1
   149     3     4    2
   150    33    32    2
   151   186   185    1
   152    80    81    1
   153    12    11    2
   154    11    10    1
   155   177   178    1
   156   203   202    1
   157   176   175    2
   158   175   181   am
   159    44    46    1
   160    13    10    1
   161    13    15    1
   162   144   145    2
   163   202   199    1
   164    32    31    1
   165   181   182    1
   166    10     9    1
   167    22    25    1
   168    22    23    1
   169    81    83    1
   170    38    36   ar
   171   178   179   ar
   172   178   180   ar
   173    25    26    1
   174   185   182    1
   175    35    36    1
   176    35    34    1
   177    24    23    2
   178   182   183    1
   179    36    37   ar
   180   199   200    1
   181   199   198    1
   182    31    34    1
   183    31    30    1
   184    26    27    1
   185    28    27    1
   186    28    29    1
   187   200   201    2
   188   183   184    2
   189   196   193    1
   190   196   197    1
   191   193   194    1
   192   193   192    1
   193   194   195    2
