@<TRIPOS>MOLECULE
tmp/4er0A00.pdb
 218 210 0 0 0
SMALL
GASTEIGER

@<TRIPOS>ATOM
      1  N         30.1690   66.6410    2.2840 N.3   116  SER116     -0.1217
      2  CA        28.9560   65.8730    2.5970 C.3   116  SER116      0.1889
      3  C         29.2590   64.8180    3.6820 C.2   116  SER116      0.2288
      4  O         28.5100   64.6990    4.6680 O.2   116  SER116     -0.2866
      5  CB        28.4010   65.1660    1.3380 C.3   116  SER116      0.2089
      6  OG        28.6390   65.9160    0.1560 O.3   116  SER116     -0.2183
      7  N         28.8450   65.9800    7.0280 N.3   119  LEU119     -0.1231
      8  CA        27.4460   66.3000    7.2850 C.3   119  LEU119      0.1693
      9  C         26.6600   65.0600    7.5100 C.2   119  LEU119      0.2591
     10  O         25.9000   64.9470    8.5140 O.2   119  LEU119     -0.2718
     11  CB        26.8420   67.0240    6.0910 C.3   119  LEU119      0.0284
     12  CG        26.8780   68.5310    6.1260 C.3   119  LEU119      0.0019
     13  CD1       26.2570   69.0400    4.8200 C.3   119  LEU119      0.0001
     14  CD2       26.1260   69.0510    7.3710 C.3   119  LEU119      0.0001
     15  N         26.7970   64.1230    6.5780 N.am  120  VAL120     -0.1980
     16  CA        26.1480   62.8400    6.7020 C.3   120  VAL120      0.1595
     17  C         26.4860   62.2120    8.0360 C.2   120  VAL120      0.2287
     18  O         25.6370   61.6320    8.6890 O.2   120  VAL120     -0.2864
     19  CB        26.5730   61.9170    5.5900 C.3   120  VAL120      0.0276
     20  CG1       26.0610   60.4780    5.8440 C.3   120  VAL120      0.0022
     21  CG2       26.0790   62.4650    4.2460 C.3   120  VAL120      0.0022
     22  N         24.5080   63.7150   10.6780 N.3   123  MET123     -0.1245
     23  CA        23.1220   63.2610   10.5920 C.3   123  MET123      0.1570
     24  C         22.9750   61.8640   11.1190 C.2   123  MET123      0.2261
     25  O         22.0360   61.5720   11.8340 O.2   123  MET123     -0.2867
     26  CB        22.6160   63.3370    9.1560 C.3   123  MET123      0.0387
     27  CG        22.7320   64.7370    8.5150 C.3   123  MET123      0.0595
     28  SD        21.7640   65.9650    9.3950 S.3   123  MET123     -0.1393
     29  CE        22.8160   67.4240    9.2600 C.3   123  MET123      0.0692
     30  N         18.3860   56.9990   -0.1180 N.3   137  ASP137     -0.1225
     31  CA        18.9230   58.2300   -0.6460 C.3   137  ASP137      0.1805
     32  C         18.3500   58.4640   -2.0320 C.2   137  ASP137      0.2598
     33  O         18.6410   57.7230   -2.9740 O.2   137  ASP137     -0.2718
     34  CB        20.4560   58.1410   -0.7380 C.3   137  ASP137      0.1424
     35  CG        21.0850   59.4170   -1.2610 C.2   137  ASP137      0.3668
     36  OD1       20.4430   60.4900   -1.1950 O.co2 137  ASP137     -0.2456
     37  OD2       22.2110   59.3630   -1.7520 O.co2 137  ASP137     -0.2456
     38  N         17.5380   59.5110   -2.1670 N.am  138  LEU138     -0.1966
     39  CA        16.8670   59.8040   -3.4310 C.3   138  LEU138      0.1728
     40  C         17.7550   60.6450   -4.3480 C.2   138  LEU138      0.2617
     41  O         17.9740   61.8200   -4.1120 O.2   138  LEU138     -0.2715
     42  CB        15.5240   60.5140   -3.1890 C.3   138  LEU138      0.0311
     43  CG        14.4760   59.8170   -2.3110 C.3   138  LEU138      0.0022
     44  CD1       13.3420   60.7950   -2.0290 C.3   138  LEU138      0.0001
     45  CD2       13.9320   58.4760   -2.9490 C.3   138  LEU138      0.0001
     46  N         18.1580   60.0470   -5.4620 N.am  139  GLY139     -0.1940
     47  CA        19.1410   60.6380   -6.3590 C.3   139  GLY139      0.2014
     48  C         20.5290   60.4130   -5.7890 C.2   139  GLY139      0.2640
     49  O         21.1510   61.3430   -5.2700 O.2   139  GLY139     -0.2714
     50  N         20.9890   59.1620   -5.8440 N.am  140  SER140     -0.1935
     51  CA        22.0800   58.7100   -4.9790 C.3   140  SER140      0.2055
     52  C         23.5220   58.8630   -5.6210 C.2   140  SER140      0.2643
     53  O         24.5480   58.6160   -4.9670 O.2   140  SER140     -0.2714
     54  CB        21.8190   57.2580   -4.5350 C.3   140  SER140      0.2130
     55  OG        21.2660   56.4870   -5.5980 O.3   140  SER140     -0.2179
     56  N         23.5790   59.3030   -6.8580 N.am  141  GLY141     -0.1954
     57  CA        24.8560   59.6010   -7.4890 C.3   141  GLY141      0.1869
     58  C         25.6820   58.3400   -7.6620 C.2   141  GLY141      0.2309
     59  O         25.1770   57.3170   -8.1430 O.2   141  GLY141     -0.2863
     60  N         27.8200   57.3010   -2.5350 N.3   144  GLN144     -0.1231
     61  CA        28.7390   57.3950   -1.4450 C.3   144  GLN144      0.1698
     62  C         27.9990   57.5330   -0.1270 C.2   144  GLN144      0.2592
     63  O         28.4540   57.0220    0.9030 O.2   144  GLN144     -0.2718
     64  CB        29.7380   58.5380   -1.6650 C.3   144  GLN144      0.0381
     65  CG        29.1380   59.8940   -1.5790 C.3   144  GLN144      0.0905
     66  CD        29.3290   60.6840   -2.8580 C.2   144  GLN144      0.2608
     67  OE1       28.3510   60.9610   -3.5980 O.2   144  GLN144     -0.2717
     68  NE2       30.6090   61.0370   -3.1580 N.am  144  GLN144     -0.0878
     69  N         26.8440   58.1770   -0.1580 N.am  145  VAL145     -0.1980
     70  CA        26.0690   58.4130    1.0480 C.3   145  VAL145      0.1595
     71  C         25.3630   57.1260    1.5420 C.2   145  VAL145      0.2287
     72  O         25.3380   56.8280    2.7480 O.2   145  VAL145     -0.2864
     73  CB        25.0400   59.5220    0.8020 C.3   145  VAL145      0.0276
     74  CG1       24.1270   59.6960    2.0060 C.3   145  VAL145      0.0022
     75  CG2       25.7590   60.8540    0.4510 C.3   145  VAL145      0.0022
     76  N         18.6270   55.2400   -5.2110 N.3   161  VAL161     -0.1231
     77  CA        18.1180   55.2500   -6.5520 C.3   161  VAL161      0.1692
     78  C         18.7180   56.3970   -7.3070 C.2   161  VAL161      0.2592
     79  O         18.8730   57.5120   -6.7680 O.2   161  VAL161     -0.2718
     80  CB        16.5710   55.3540   -6.5620 C.3   161  VAL161      0.0266
     81  CG1       16.0790   56.5890   -5.7170 C.3   161  VAL161      0.0020
     82  CG2       16.0490   55.4100   -7.9990 C.3   161  VAL161      0.0020
     83  N         19.1040   56.1230   -8.5480 N.am  162  GLU162     -0.1966
     84  CA        19.7510   57.1270   -9.4140 C.3   162  GLU162      0.1733
     85  C         19.3810   56.8550  -10.8450 C.2   162  GLU162      0.2616
     86  O         19.3290   55.6930  -11.2720 O.2   162  GLU162     -0.2715
     87  CB        21.2680   57.0460   -9.2550 C.3   162  GLU162      0.0429
     88  CG        22.0460   57.7830  -10.2880 C.3   162  GLU162      0.1163
     89  CD        21.7760   59.2450  -10.2640 C.2   162  GLU162      0.3649
     90  OE1       22.2330   59.9130   -9.3260 O.co2 162  GLU162     -0.2457
     91  OE2       21.0850   59.7400  -11.1800 O.co2 162  GLU162     -0.2457
     92  N         19.1340   57.9100  -11.6070 N.am  163  LYS163     -0.1963
     93  CA        18.5280   57.7320  -12.9250 C.3   163  LYS163      0.1728
     94  C         19.4940   57.9420  -14.0880 C.2   163  LYS163      0.2616
     95  O         19.3110   57.3460  -15.1320 O.2   163  LYS163     -0.2715
     96  CB        17.2660   58.6090  -13.0870 C.3   163  LYS163      0.0311
     97  CG        17.5100   60.1160  -13.1560 C.3   163  LYS163      0.0038
     98  CD        16.3470   60.8230  -13.8840 C.3   163  LYS163      0.0206
     99  CE        16.6210   62.3120  -14.0510 C.3   163  LYS163      0.1093
    100  NZ        15.5690   62.9850  -14.8690 N.3   163  LYS163     -0.1314
    101  N         20.5100   58.7870  -13.9050 N.am  164  ALA164     -0.1977
    102  CA        21.4660   59.0850  -14.9830 C.3   164  ALA164      0.1597
    103  C         22.4030   57.8820  -15.2570 C.2   164  ALA164      0.2287
    104  O         22.7530   57.1440  -14.3390 O.2   164  ALA164     -0.2864
    105  CB        22.2840   60.3540  -14.6480 C.3   164  ALA164      0.0319
    106  N         26.5080   58.1190  -13.4970 N.3   167  PRO167     -0.2116
    107  CA        26.6240   57.8550  -12.0600 C.3   167  PRO167      0.1372
    108  C         26.1650   56.4690  -11.6920 C.2   167  PRO167      0.2244
    109  O         26.7620   55.8420  -10.8350 O.2   167  PRO167     -0.2868
    110  CB        25.6940   58.9040  -11.4280 C.3   167  PRO167      0.0268
    111  CG        25.4340   59.9150  -12.5180 C.3   167  PRO167      0.0207
    112  CD        25.4780   59.1460  -13.7700 C.3   167  PRO167      0.0892
    113  N         17.0030   53.8470  -11.4520 N.3   197  GLY197     -0.1210
    114  CA        15.5750   54.1180  -11.3150 C.3   197  GLY197      0.1956
    115  C         15.2940   55.6040  -11.3910 C.2   197  GLY197      0.2612
    116  O         16.2180   56.4170  -11.3460 O.2   197  GLY197     -0.2717
    117  N         14.0160   55.9520  -11.5510 N.am  198  ASP198     -0.1959
    118  CA        13.5380   57.3170  -11.3410 C.3   198  ASP198      0.1840
    119  C         12.6500   57.3110  -10.1130 C.2   198  ASP198      0.2622
    120  O         11.6750   56.5760  -10.0650 O.2   198  ASP198     -0.2715
    121  CB        12.7350   57.8010  -12.5530 C.3   198  ASP198      0.1450
    122  CG        12.4170   59.2910  -12.4850 C.2   198  ASP198      0.3671
    123  OD1       12.4400   59.8570  -11.3720 O.co2 198  ASP198     -0.2456
    124  OD2       12.1720   59.8990  -13.5390 O.co2 198  ASP198     -0.2456
    125  N         12.9910   58.1120   -9.1080 N.am  199  PHE199     -0.1960
    126  CA        12.2930   58.0100   -7.8200 C.3   199  PHE199      0.1771
    127  C         10.9400   58.6970   -7.8530 C.2   199  PHE199      0.2619
    128  O         10.2000   58.6670   -6.8720 O.2   199  PHE199     -0.2715
    129  CB        13.1420   58.5510   -6.6730 C.3   199  PHE199      0.0574
    130  CG        13.5390   59.9770   -6.8300 C.ar  199  PHE199     -0.0200
    131  CD1       12.5830   60.9790   -6.9040 C.ar  199  PHE199     -0.0042
    132  CD2       14.8810   60.3350   -6.8430 C.ar  199  PHE199     -0.0042
    133  CE1       12.9600   62.2890   -7.0320 C.ar  199  PHE199     -0.0003
    134  CE2       15.2510   61.6340   -6.9520 C.ar  199  PHE199     -0.0003
    135  CZ        14.2970   62.6190   -7.0620 C.ar  199  PHE199     -0.0000
    136  N         10.6280   59.3230   -8.9870 N.am  200  LEU200     -0.1977
    137  CA         9.2890   59.8360   -9.2430 C.3   200  LEU200      0.1596
    138  C          8.3860   58.7780   -9.9020 C.2   200  LEU200      0.2287
    139  O          7.2270   59.0590  -10.2100 O.2   200  LEU200     -0.2864
    140  CB         9.3600   61.0710  -10.1460 C.3   200  LEU200      0.0297
    141  CG         9.9330   62.3240   -9.5120 C.3   200  LEU200      0.0022
    142  CD1        9.9030   63.4660  -10.4980 C.3   200  LEU200      0.0001
    143  CD2        9.1730   62.6870   -8.2400 C.3   200  LEU200      0.0001
    144  N         16.8490   60.4750    2.8530 N.3   215  PHE215     -0.1227
    145  CA        17.7700   61.6080    2.7100 C.3   215  PHE215      0.1736
    146  C         17.5780   62.0650    1.3270 C.2   215  PHE215      0.2595
    147  O         17.4490   61.2450    0.4230 O.2   215  PHE215     -0.2718
    148  CB        19.2360   61.1580    2.8590 C.3   215  PHE215      0.0547
    149  CG        19.7360   61.0720    4.2980 C.ar  215  PHE215     -0.0202
    150  CD1       18.8810   61.1030    5.3610 C.ar  215  PHE215     -0.0042
    151  CD2       21.1050   60.8870    4.5540 C.ar  215  PHE215     -0.0042
    152  CE1       19.3730   61.0070    6.6980 C.ar  215  PHE215     -0.0003
    153  CE2       21.6000   60.7860    5.8720 C.ar  215  PHE215     -0.0003
    154  CZ        20.7320   60.8610    6.9360 C.ar  215  PHE215     -0.0000
    155  N         17.5470   63.3600    1.1170 N.am  216  VAL216     -0.1966
    156  CA        17.4600   63.8620   -0.2330 C.3   216  VAL216      0.1727
    157  C         18.0730   65.1910   -0.2970 C.2   216  VAL216      0.2616
    158  O         17.8580   66.0020    0.5630 O.2   216  VAL216     -0.2715
    159  CB        15.9810   63.9400   -0.7450 C.3   216  VAL216      0.0290
    160  CG1       15.1080   64.7360    0.2110 C.3   216  VAL216      0.0023
    161  CG2       15.9470   64.5110   -2.1540 C.3   216  VAL216      0.0023
    162  N         18.9110   65.3930   -1.2950 N.am  217  ASN217     -0.1972
    163  CA        19.6410   66.6200   -1.4250 C.3   217  ASN217      0.1688
    164  C         19.0120   67.4490   -2.4920 C.2   217  ASN217      0.2292
    165  O         19.4290   67.3930   -3.6520 O.2   217  ASN217     -0.2864
    166  CB        21.0630   66.3250   -1.7960 C.3   217  ASN217      0.1181
    167  CG        21.9380   67.5600   -1.7650 C.2   217  ASN217      0.2629
    168  OD1       21.4410   68.6960   -1.6130 O.2   217  ASN217     -0.2716
    169  ND2       23.2580   67.3510   -1.8730 N.am  217  ASN217     -0.0877
    170  N         16.6020   71.4910   -6.6060 N.3   221  PHE221     -0.1241
    171  CA        15.4220   70.9210   -7.2220 C.3   221  PHE221      0.1605
    172  C         14.4500   72.0550   -7.5830 C.2   221  PHE221      0.2264
    173  O         14.4000   73.0920   -6.9090 O.2   221  PHE221     -0.2867
    174  CB        14.7500   69.9100   -6.2860 C.3   221  PHE221      0.0534
    175  CG        15.3960   68.5370   -6.2890 C.ar  221  PHE221     -0.0203
    176  CD1       16.5830   68.2900   -6.9920 C.ar  221  PHE221     -0.0042
    177  CD2       14.8200   67.4950   -5.5780 C.ar  221  PHE221     -0.0042
    178  CE1       17.1730   67.0010   -6.9830 C.ar  221  PHE221     -0.0003
    179  CE2       15.4010   66.2260   -5.5710 C.ar  221  PHE221     -0.0003
    180  CZ        16.5780   65.9820   -6.2840 C.ar  221  PHE221     -0.0000
    181  N          9.4400   69.2640   -9.2130 N.3   225  VAL225     -0.1245
    182  CA        10.0030   68.0830   -8.5810 C.3   225  VAL225      0.1561
    183  C          9.7200   68.0930   -7.0990 C.2   225  VAL225      0.2260
    184  O          9.2760   67.0910   -6.5620 O.2   225  VAL225     -0.2867
    185  CB        11.5310   67.9540   -8.8190 C.3   225  VAL225      0.0252
    186  CG1       12.1120   66.9020   -7.9180 C.3   225  VAL225      0.0019
    187  CG2       11.8100   67.6160  -10.2720 C.3   225  VAL225      0.0019
    188  N         15.3210   63.9450    5.7070 N.3   243  VAL243     -0.1231
    189  CA        16.4010   64.9010    5.9050 C.3   243  VAL243      0.1692
    190  C         16.7980   65.4520    4.5690 C.2   243  VAL243      0.2593
    191  O         17.0770   64.6990    3.6500 O.2   243  VAL243     -0.2718
    192  CB        17.6290   64.2340    6.5540 C.3   243  VAL243      0.0266
    193  CG1       18.7140   65.2240    6.7460 C.3   243  VAL243      0.0020
    194  CG2       17.2530   63.6190    7.8910 C.3   243  VAL243      0.0020
    195  N         16.8210   66.7790    4.4480 N.am  244  SER244     -0.1938
    196  CA        17.0660   67.3980    3.1630 C.3   244  SER244      0.2055
    197  C         17.8880   68.6570    3.3140 C.2   244  SER244      0.2643
    198  O         18.0600   69.1720    4.4240 O.2   244  SER244     -0.2714
    199  CB        15.7390   67.7750    2.5170 C.3   244  SER244      0.2130
    200  OG        15.0810   68.7620    3.3330 O.3   244  SER244     -0.2179
    201  N         18.3310   69.1960    2.1730 N.am  245  SER245     -0.1949
    202  CA        19.0760   70.4150    2.1570 C.3   245  SER245      0.1924
    203  C         18.1620   71.6240    1.9520 C.2   245  SER245      0.2314
    204  O         18.5750   72.7680    2.1760 O.2   245  SER245     -0.2863
    205  CB        20.1580   70.3750    1.0720 C.3   245  SER245      0.2116
    206  OG        19.6430   70.0020   -0.1990 O.3   245  SER245     -0.2180
    207  N         20.5510   71.9630    7.3290 N.3   288  TYR288     -0.1241
    208  CA        19.8370   70.7880    6.8820 C.3   288  TYR288      0.1605
    209  C         18.5630   70.6810    7.6610 C.2   288  TYR288      0.2264
    210  O         18.4480   71.2240    8.7910 O.2   288  TYR288     -0.2867
    211  CB        20.6820   69.5600    7.1010 C.3   288  TYR288      0.0534
    212  CG        21.6630   69.4520    5.9890 C.ar  288  TYR288     -0.0201
    213  CD1       21.2610   68.9320    4.7620 C.ar  288  TYR288     -0.0009
    214  CD2       22.9450   70.0060    6.0960 C.ar  288  TYR288     -0.0009
    215  CE1       22.0860   68.9770    3.6630 C.ar  288  TYR288      0.0417
    216  CE2       23.7920   70.0560    4.9960 C.ar  288  TYR288      0.0417
    217  CZ        23.3390   69.5510    3.7850 C.ar  288  TYR288      0.1957
    218  OH        24.0680   69.7030    2.6470 O.3   288  TYR288     -0.2866
@<TRIPOS>BOND
     1   103   102    1
     2   103   104    2
     3    95    94    2
     4   102   105    1
     5   102   101    1
     6   100    99    1
     7    94   101   am
     8    94    93    1
     9    99    98    1
    10    98    97    1
    11   112   106    1
    12   112   111    1
    13   124   122   ar
    14   106   107    1
    15    97    96    1
    16    96    93    1
    17    93    92    1
    18   121   122    1
    19   121   118    1
    20   111   110    1
    21   122   123   ar
    22   107   108    1
    23   107   110    1
    24   108   109    2
    25    92    85   am
    26   117   115   am
    27   117   118    1
    28   113   114    1
    29   115   116    2
    30   115   114    1
    31   118   119    1
    32    86    85    2
    33    91    89   ar
    34    85    84    1
    35   142   141    1
    36    88    89    1
    37    88    87    1
    38   187   185    1
    39    89    90   ar
    40   139   138    2
    41   140   141    1
    42   140   137    1
    43   119   120    2
    44   119   125   am
    45   138   137    1
    46   141   143    1
    47    84    87    1
    48    84    83    1
    49   137   136    1
    50   181   182    1
    51   125   126    1
    52   136   127   am
    53   185   182    1
    54   185   186    1
    55   182   183    1
    56    83    78   am
    57    59    58    2
    58    82    80    1
    59   127   126    1
    60   127   128    2
    61   126   129    1
    62    58    57    1
    63   172   171    1
    64   172   173    2
    65    57    56    1
    66    78    79    2
    67    78    77    1
    68   171   170    1
    69   171   174    1
    70   183   184    2
    71   135   133   ar
    72   135   134   ar
    73   133   131   ar
    74   176   178   ar
    75   176   175   ar
    76   178   180   ar
    77   134   132   ar
    78   131   130   ar
    79    56    52   am
    80   132   130   ar
    81   130   129    1
    82    80    77    1
    83    80    81    1
    84    77    76    1
    85    47    48    1
    86    47    46    1
    87   175   174    1
    88   175   177   ar
    89   180   179   ar
    90    50    48   am
    91    50    51    1
    92    48    49    2
    93    52    51    1
    94    52    53    2
    95    55    54    1
    96   177   179   ar
    97    46    40   am
    98    51    54    1
    99    40    41    2
   100    40    39    1
   101   165   164    2
   102    67    66    2
   103    39    42    1
   104    39    38    1
   105    42    43    1
   106    68    66   am
   107    33    32    2
   108    45    43    1
   109    66    65    1
   110    60    61    1
   111   164   163    1
   112    43    44    1
   113    38    32   am
   114   161   159    1
   115    32    31    1
   116   169   167   am
   117   166   167    1
   118   166   163    1
   119   167   168    2
   120    37    35   ar
   121    64    65    1
   122    64    61    1
   123    61    62    1
   124   163   162    1
   125   162   157   am
   126    35    36   ar
   127    35    34    1
   128   159   156    1
   129   159   160    1
   130    34    31    1
   131    31    30    1
   132   157   156    1
   133   157   158    2
   134   156   155    1
   135   206   205    1
   136    69    62   am
   137    69    70    1
   138    62    63    2
   139     6     5    1
   140   147   146    2
   141    75    73    1
   142    73    70    1
   143    73    74    1
   144    70    71    1
   145   205   202    1
   146   155   146   am
   147   146   145    1
   148     5     2    1
   149    71    72    2
   150   203   202    1
   151   203   204    2
   152   202   201    1
   153   201   197   am
   154     1     2    1
   155   199   196    1
   156   199   200    1
   157     2     3    1
   158   218   217    1
   159   145   144    1
   160   145   148    1
   161   148   149    1
   162   196   197    1
   163   196   195    1
   164   197   198    2
   165   191   190    2
   166   215   217   ar
   167   215   213   ar
   168     3     4    2
   169   217   216   ar
   170    21    19    1
   171   149   151   ar
   172   149   150   ar
   173   195   190   am
   174   151   153   ar
   175   190   189    1
   176   213   212   ar
   177    13    12    1
   178   216   214   ar
   179   150   152   ar
   180    19    20    1
   181    19    16    1
   182   188   189    1
   183   153   154   ar
   184   189   192    1
   185   212   214   ar
   186   212   211    1
   187    11    12    1
   188    11     8    1
   189    12    14    1
   190   192   193    1
   191   192   194    1
   192    15    16    1
   193    15     9   am
   194   152   154   ar
   195    16    17    1
   196   208   211    1
   197   208   207    1
   198   208   209    1
   199     7     8    1
   200     8     9    1
   201     9    10    2
   202   209   210    2
   203    17    18    2
   204    27    26    1
   205    27    28    1
   206    26    23    1
   207    29    28    1
   208    23    22    1
   209    23    24    1
   210    24    25    2
