@<TRIPOS>MOLECULE
tmp/4er5A01.pdb
 173 168 0 0 0
SMALL
GASTEIGER

@<TRIPOS>ATOM
      1  N         35.7770   57.0340    6.1120 N.3    99  ARG99      -0.1245
      2  CA        36.1250   58.0470    5.1590 C.3    99  ARG99       0.1563
      3  C         37.2410   57.5490    4.2280 C.2    99  ARG99       0.2260
      4  O         37.1610   57.7450    3.0160 O.2    99  ARG99      -0.2867
      5  CB        36.5830   59.3330    5.8490 C.3    99  ARG99       0.0307
      6  CG        36.4870   60.5500    4.9410 C.3    99  ARG99       0.0489
      7  CD        37.3210   61.6950    5.4020 C.3    99  ARG99       0.2205
      8  NE        37.2870   61.8620    6.8510 N.pl3  99  ARG99      -0.0865
      9  CZ        36.5770   62.7730    7.5150 C.cat  99  ARG99       0.5346
     10  NH1       35.7920   63.6620    6.8820 N.pl3  99  ARG99       0.1354
     11  NH2       36.6650   62.7970    8.8470 N.pl3  99  ARG99       0.1354
     12  N         35.9430   54.7040    1.8500 N.3   102  LEU102     -0.1231
     13  CA        35.1090   55.2250    0.7560 C.3   102  LEU102      0.1693
     14  C         35.9530   55.9850   -0.2860 C.2   102  LEU102      0.2591
     15  O         35.6850   55.9060   -1.4750 O.2   102  LEU102     -0.2718
     16  CB        33.9630   56.1010    1.2720 C.3   102  LEU102      0.0284
     17  CG        32.8070   55.4270    2.0130 C.3   102  LEU102      0.0019
     18  CD1       31.9020   56.4860    2.6360 C.3   102  LEU102      0.0001
     19  CD2       31.9810   54.5420    1.1270 C.3   102  LEU102      0.0001
     20  N         36.9730   56.7110    0.1490 N.am  103  GLN103     -0.1979
     21  CA        37.8570   57.3930   -0.8050 C.3   103  GLN103      0.1601
     22  C         38.5770   56.3730   -1.6800 C.2   103  GLN103      0.2287
     23  O         38.7350   56.5400   -2.8830 O.2   103  GLN103     -0.2864
     24  CB        38.8940   58.2140   -0.0710 C.3   103  GLN103      0.0394
     25  CG        39.7500   59.0530   -0.9920 C.3   103  GLN103      0.0908
     26  CD        38.9170   60.0230   -1.8040 C.2   103  GLN103      0.2608
     27  OE1       38.3280   60.9510   -1.2390 O.2   103  GLN103     -0.2717
     28  NE2       38.8370   59.8050   -3.1290 N.am  103  GLN103     -0.0878
     29  N         36.1010   54.8020   -4.1360 N.3   106  TYR106     -0.1241
     30  CA        35.9080   55.7880   -5.1710 C.3   106  TYR106      0.1605
     31  C         37.1080   55.8490   -6.1270 C.2   106  TYR106      0.2264
     32  O         36.9310   55.8850   -7.3460 O.2   106  TYR106     -0.2867
     33  CB        35.6800   57.1260   -4.4920 C.3   106  TYR106      0.0534
     34  CG        35.2260   58.2240   -5.3750 C.ar  106  TYR106     -0.0201
     35  CD1       33.8650   58.4620   -5.5670 C.ar  106  TYR106     -0.0009
     36  CD2       36.1330   59.0510   -5.9920 C.ar  106  TYR106     -0.0009
     37  CE1       33.4290   59.4800   -6.3700 C.ar  106  TYR106      0.0417
     38  CE2       35.7040   60.0770   -6.7960 C.ar  106  TYR106      0.0417
     39  CZ        34.3470   60.2820   -6.9700 C.ar  106  TYR106      0.1957
     40  OH        33.9120   61.2980   -7.7560 O.3   106  TYR106     -0.2866
     41  N         36.2670   60.7660  -12.8410 N.3   113  PRO113     -0.2102
     42  CA        35.3830   61.5580  -11.9820 C.3   113  PRO113      0.1504
     43  C         34.8980   62.8820  -12.5670 C.2   113  PRO113      0.2575
     44  O         33.9150   63.4360  -12.0620 O.2   113  PRO113     -0.2718
     45  CB        36.2390   61.8030  -10.7350 C.3   113  PRO113      0.0282
     46  CG        37.2050   60.6730  -10.7160 C.3   113  PRO113      0.0208
     47  CD        37.5290   60.4270  -12.1510 C.3   113  PRO113      0.0893
     48  N         35.5580   63.3840  -13.6080 N.am  114  GLU114     -0.1980
     49  CA        35.0820   64.5900  -14.3020 C.3   114  GLU114      0.1602
     50  C         33.7580   64.3820  -15.0670 C.2   114  GLU114      0.2287
     51  O         33.0260   65.3490  -15.3130 O.2   114  GLU114     -0.2864
     52  CB        36.1620   65.1400  -15.2390 C.3   114  GLU114      0.0415
     53  CG        37.3650   65.6850  -14.4670 C.3   114  GLU114      0.1163
     54  CD        37.0570   66.8100  -13.5040 C.2   114  GLU114      0.3649
     55  OE1       36.2940   67.7140  -13.8340 O.co2 114  GLU114     -0.2457
     56  OE2       37.5600   66.7670  -12.3520 O.co2 114  GLU114     -0.2457
     57  N         31.1570   62.7700  -13.8900 N.3   116  LEU116     -0.1231
     58  CA        30.0690   62.9280  -12.9250 C.3   116  LEU116      0.1693
     59  C         29.8220   64.3950  -12.6660 C.2   116  LEU116      0.2592
     60  O         30.7680   65.1570  -12.4990 O.2   116  LEU116     -0.2718
     61  CB        30.4110   62.2640  -11.6000 C.3   116  LEU116      0.0284
     62  CG        30.6390   60.7670  -11.6390 C.3   116  LEU116      0.0019
     63  CD1       31.0590   60.3100  -10.2460 C.3   116  LEU116      0.0001
     64  CD2       29.3780   60.0610  -12.1250 C.3   116  LEU116      0.0001
     65  N         28.5510   64.7790  -12.6180 N.am  117  ASN117     -0.1960
     66  CA        28.1730   66.1630  -12.3390 C.3   117  ASN117      0.1819
     67  C         28.3780   66.5110  -10.8760 C.2   117  ASN117      0.2621
     68  O         28.1600   65.6710  -10.0050 O.2   117  ASN117     -0.2715
     69  CB        26.7180   66.4020  -12.7270 C.3   117  ASN117      0.1195
     70  CG        26.5010   66.2880  -14.2100 C.2   117  ASN117      0.2630
     71  OD1       27.4380   66.4380  -15.0000 O.2   117  ASN117     -0.2716
     72  ND2       25.2670   66.0190  -14.6040 N.am  117  ASN117     -0.0877
     73  N         28.8090   67.7480  -10.6190 N.am  118  ASN118     -0.1958
     74  CA        28.9350   68.2520   -9.2550 C.3   118  ASN118      0.1819
     75  C         27.5770   68.2720   -8.5620 C.2   118  ASN118      0.2621
     76  O         26.5560   68.5900   -9.1810 O.2   118  ASN118     -0.2715
     77  CB        29.5260   69.6710   -9.2160 C.3   118  ASN118      0.1195
     78  CG        29.5930   70.2330   -7.7860 C.2   118  ASN118      0.2630
     79  OD1       30.4250   69.8090   -6.9840 O.2   118  ASN118     -0.2716
     80  ND2       28.6940   71.1660   -7.4640 N.am  118  ASN118     -0.0877
     81  N         27.5890   67.9350   -7.2790 N.am  119  TYR119     -0.1974
     82  CA        26.3940   67.9770   -6.4470 C.3   119  TYR119      0.1639
     83  C         26.3790   69.2910   -5.6720 C.2   119  TYR119      0.2290
     84  O         27.0720   69.4280   -4.6600 O.2   119  TYR119     -0.2864
     85  CB        26.3730   66.8100   -5.4530 C.3   119  TYR119      0.0560
     86  CG        26.6880   65.4360   -6.0190 C.ar  119  TYR119     -0.0198
     87  CD1       26.2360   65.0280   -7.2890 C.ar  119  TYR119     -0.0009
     88  CD2       27.4060   64.5260   -5.2560 C.ar  119  TYR119     -0.0009
     89  CE1       26.5220   63.7360   -7.7720 C.ar  119  TYR119      0.0417
     90  CE2       27.6920   63.2570   -5.7150 C.ar  119  TYR119      0.0417
     91  CZ        27.2600   62.8540   -6.9660 C.ar  119  TYR119      0.1957
     92  OH        27.5850   61.5710   -7.3660 O.3   119  TYR119     -0.2866
     93  N         31.5200   71.7280   -2.8260 N.3   123  SER123     -0.1203
     94  CA        32.6540   72.0270   -3.7030 C.3   123  SER123      0.2005
     95  C         32.9100   70.8520   -4.6600 C.2   123  SER123      0.2461
     96  O         32.8210   69.6850   -4.2510 O.2   123  SER123     -0.2732
     97  CB        33.9290   72.3250   -2.8950 C.3   123  SER123      0.2103
     98  OG        33.9680   73.6760   -2.4710 O.3   123  SER123     -0.2182
     99  N         33.2240   71.1630   -5.9350 N.am  124  PRO124     -0.2717
    100  CA        33.4410   70.1260   -6.9490 C.3   124  PRO124      0.1535
    101  C         34.8210   69.4470   -6.9160 C.2   124  PRO124      0.2598
    102  O         34.9640   68.3390   -7.4460 O.2   124  PRO124     -0.2715
    103  CB        33.2370   70.8830   -8.2720 C.3   124  PRO124      0.0310
    104  CG        33.5810   72.3180   -7.9680 C.3   124  PRO124      0.0237
    105  CD        33.3740   72.5290   -6.4870 C.3   124  PRO124      0.0939
    106  N         35.8150   70.0910   -6.3050 N.am  125  GLU125     -0.1978
    107  CA        37.1650   69.5120   -6.2110 C.3   125  GLU125      0.1602
    108  C         37.4690   68.9510   -4.8100 C.2   125  GLU125      0.2287
    109  O         38.6310   68.9310   -4.3840 O.2   125  GLU125     -0.2864
    110  CB        38.2110   70.5690   -6.5980 C.3   125  GLU125      0.0415
    111  CG        38.0870   71.0600   -8.0180 C.3   125  GLU125      0.1163
    112  CD        38.3750   70.0400   -9.0730 C.2   125  GLU125      0.3649
    113  OE1       38.9770   68.9730   -8.7810 O.co2 125  GLU125     -0.2457
    114  OE2       38.0860   70.3730  -10.2320 O.co2 125  GLU125     -0.2457
    115  N         35.4610   66.0000   -3.0290 N.3   127  TYR127     -0.1227
    116  CA        35.2800   64.5440   -2.7950 C.3   127  TYR127      0.1736
    117  C         34.6260   64.2230   -1.4380 C.2   127  TYR127      0.2596
    118  O         35.0130   63.2630   -0.7380 O.2   127  TYR127     -0.2718
    119  CB        36.6240   63.7750   -2.9300 C.3   127  TYR127      0.0548
    120  CG        37.2830   63.9490   -4.2850 C.ar  127  TYR127     -0.0200
    121  CD1       37.2170   62.9460   -5.2600 C.ar  127  TYR127     -0.0009
    122  CD2       37.9620   65.1270   -4.5990 C.ar  127  TYR127     -0.0009
    123  CE1       37.8140   63.1210   -6.5150 C.ar  127  TYR127      0.0417
    124  CE2       38.5560   65.3120   -5.8420 C.ar  127  TYR127      0.0417
    125  CZ        38.4800   64.3130   -6.7970 C.ar  127  TYR127      0.1957
    126  OH        39.0780   64.5350   -8.0230 O.3   127  TYR127     -0.2866
    127  N         33.6460   65.0370   -1.0660 N.am  128  GLY128     -0.1957
    128  CA        32.8780   64.8010    0.1520 C.3   128  GLY128      0.1869
    129  C         33.5250   65.2890    1.4290 C.2   128  GLY128      0.2309
    130  O         33.0240   64.9990    2.5130 O.2   128  GLY128     -0.2863
    131  N         30.4270   66.8820    2.5760 N.3   131  SER131     -0.1202
    132  CA        29.2070   66.0700    2.4950 C.3   131  SER131      0.2020
    133  C         29.3370   64.8080    3.3610 C.2   131  SER131      0.2618
    134  O         28.3870   64.4200    4.0550 O.2   131  SER131     -0.2717
    135  CB        28.8530   65.7040    1.0440 C.3   131  SER131      0.2103
    136  OG        29.7530   64.7410    0.4990 O.3   131  SER131     -0.2182
    137  N         30.5140   64.1810    3.3240 N.am  132  PHE132     -0.1975
    138  CA        30.7850   63.0380    4.1780 C.3   132  PHE132      0.1639
    139  C         30.5220   63.3760    5.6440 C.2   132  PHE132      0.2290
    140  O         29.8670   62.6100    6.3380 O.2   132  PHE132     -0.2864
    141  CB        32.2200   62.5140    4.0190 C.3   132  PHE132      0.0560
    142  CG        32.4800   61.2890    4.8380 C.ar  132  PHE132     -0.0200
    143  CD1       32.2010   60.0210    4.3310 C.ar  132  PHE132     -0.0042
    144  CD2       32.9090   61.3970    6.1540 C.ar  132  PHE132     -0.0042
    145  CE1       32.4050   58.9010    5.1030 C.ar  132  PHE132     -0.0003
    146  CE2       33.0980   60.2610    6.9350 C.ar  132  PHE132     -0.0003
    147  CZ        32.8570   59.0280    6.4140 C.ar  132  PHE132     -0.0000
    148  N         27.7080   57.0820   -2.9050 N.3   159  GLN159     -0.1245
    149  CA        28.6280   57.4600   -1.8470 C.3   159  GLN159      0.1566
    150  C         27.9150   57.5950   -0.4960 C.2   159  GLN159      0.2260
    151  O         28.4680   57.2540    0.5370 O.2   159  GLN159     -0.2867
    152  CB        29.4620   58.7140   -2.2280 C.3   159  GLN159      0.0367
    153  CG        28.7480   59.8760   -2.9520 C.3   159  GLN159      0.0905
    154  CD        28.4970   59.6190   -4.4510 C.2   159  GLN159      0.2608
    155  OE1       27.6380   58.8180   -4.8190 O.2   159  GLN159     -0.2717
    156  NE2       29.2350   60.3130   -5.3130 N.am  159  GLN159     -0.0878
    157  N         28.1440   54.9220    2.9150 N.3   163  GLN163     -0.1245
    158  CA        28.4420   55.4770    4.2420 C.3   163  GLN163      0.1566
    159  C         27.3800   55.0170    5.2400 C.2   163  GLN163      0.2260
    160  O         27.6830   54.4480    6.2850 O.2   163  GLN163     -0.2867
    161  CB        28.4760   57.0060    4.2060 C.3   163  GLN163      0.0367
    162  CG        28.8610   57.6270    5.5370 C.3   163  GLN163      0.0905
    163  CD        29.1370   59.1130    5.4560 C.2   163  GLN163      0.2608
    164  OE1       29.0260   59.7220    4.4010 O.2   163  GLN163     -0.2717
    165  NE2       29.4920   59.7090    6.5960 N.am  163  GLN163     -0.0878
    166  N         31.3230   50.6090   -7.6610 N.3   189  MET189     -0.1245
    167  CA        31.4270   51.0150   -6.2640 C.3   189  MET189      0.1570
    168  C         30.9630   49.8810   -5.3650 C.2   189  MET189      0.2261
    169  O         31.6170   49.5500   -4.3990 O.2   189  MET189     -0.2867
    170  CB        30.6160   52.2760   -5.9910 C.3   189  MET189      0.0387
    171  CG        31.1090   53.5410   -6.7030 C.3   189  MET189      0.0595
    172  SD        32.4790   54.3450   -5.8430 S.3   189  MET189     -0.1393
    173  CE        31.7400   54.9180   -4.2880 C.3   189  MET189      0.0692
@<TRIPOS>BOND
     1    51    50    2
     2    52    53    1
     3    52    49    1
     4    50    49    1
     5    71    70    2
     6    72    70   am
     7    53    54    1
     8    49    48    1
     9    70    69    1
    10    57    58    1
    11    55    54   ar
    12    48    43   am
    13    54    56   ar
    14    58    59    1
    15    58    61    1
    16    41    47    1
    17    41    42    1
    18    69    66    1
    19    59    65   am
    20    59    60    2
    21    65    66    1
    22    43    44    2
    23    43    42    1
    24    66    67    1
    25    47    46    1
    26    64    62    1
    27    42    45    1
    28    62    61    1
    29    62    63    1
    30    67    73   am
    31    67    68    2
    32    45    46    1
    33    73    74    1
    34   114   112   ar
    35    74    77    1
    36    74    75    1
    37    77    78    1
    38    76    75    2
    39   112   113   ar
    40   112   111    1
    41    75    81   am
    42   103   104    1
    43   103   100    1
    44   126   125    1
    45   111   110    1
    46   104   105    1
    47    78    80   am
    48    78    79    2
    49    89    87   ar
    50    89    91   ar
    51    40    39    1
    52   166   167    1
    53   102   101    2
    54    92    91    1
    55    32    31    2
    56    87    86   ar
    57    81    82    1
    58    39    38   ar
    59    39    37   ar
    60    91    90   ar
    61   100   101    1
    62   100    99    1
    63   101   106   am
    64   125   123   ar
    65   125   124   ar
    66    38    36   ar
    67   171   170    1
    68   171   172    1
    69   110   107    1
    70   123   121   ar
    71   105    99    1
    72    82    83    1
    73    82    85    1
    74    37    35   ar
    75   106   107    1
    76   167   170    1
    77   167   168    1
    78   107   108    1
    79    31    30    1
    80    86    85    1
    81    86    88   ar
    82    36    34   ar
    83    99    95   am
    84   172   173    1
    85   124   122   ar
    86    90    88   ar
    87    83    84    2
    88    35    34   ar
    89    34    33    1
    90   168   169    2
    91   156   154   am
    92   121   120   ar
    93    30    33    1
    94    30    29    1
    95   155   154    2
    96   108   109    2
    97    95    96    2
    98    95    94    1
    99   122   120   ar
   100   154   153    1
   101   120   119    1
   102    94    97    1
   103    94    93    1
   104    28    26   am
   105   115   116    1
   106   153   152    1
   107   119   116    1
   108   148   149    1
   109    97    98    1
   110    23    22    2
   111   116   117    1
   112   152   149    1
   113   149   150    1
   114    26    27    2
   115    26    25    1
   116    22    21    1
   117    15    14    2
   118   117   127   am
   119   117   118    2
   120   127   128    1
   121    25    24    1
   122    21    24    1
   123    21    20    1
   124   150   151    2
   125    14    20   am
   126    14    13    1
   127   128   129    1
   128   136   135    1
   129    13    16    1
   130    13    12    1
   131   135   132    1
   132    19    17    1
   133    16    17    1
   134   129   130    2
   135    17    18    1
   136   132   131    1
   137   132   133    1
   138   157   158    1
   139     4     3    2
   140   137   133   am
   141   137   138    1
   142   133   134    2
   143   141   138    1
   144   141   142    1
   145   138   139    1
   146   161   158    1
   147   161   162    1
   148     3     2    1
   149   158   159    1
   150   143   142   ar
   151   143   145   ar
   152   164   163    2
   153   142   144   ar
   154     6     7    1
   155     6     5    1
   156   145   147   ar
   157     2     5    1
   158     2     1    1
   159   159   160    2
   160     7     8    1
   161   163   162    1
   162   163   165   am
   163   139   140    2
   164   144   146   ar
   165   147   146   ar
   166     8     9    2
   167    10     9    1
   168     9    11    1
