@<TRIPOS>MOLECULE
tmp/4ereB00.pdb
 157 148 0 0 0
SMALL
GASTEIGER

@<TRIPOS>ATOM
      1  N         30.4210    3.6570   26.5190 N.3     3  ILE3       -0.1245
      2  CA        30.7810    2.5020   27.3310 C.3     3  ILE3        0.1561
      3  C         32.2940    2.4270   27.5800 C.2     3  ILE3        0.2260
      4  O         33.0570    2.2950   26.6570 O.2     3  ILE3       -0.2867
      5  CB        30.2590    1.1870   26.6800 C.3     3  ILE3        0.0252
      6  CG1       28.8270    1.3850   26.1290 C.3     3  ILE3        0.0019
      7  CG2       30.2170    0.1350   27.7270 C.3     3  ILE3        0.0019
      8  CD1       27.7860    1.7770   27.1940 C.3     3  ILE3        0.0001
      9  N         32.6180   -3.2400   29.9480 N.3     8  GLN8       -0.1245
     10  CA        32.4120   -4.3650   29.0320 C.3     8  GLN8        0.1566
     11  C         32.9150   -5.6770   29.6160 C.2     8  GLN8        0.2260
     12  O         32.3940   -6.7500   29.3350 O.2     8  GLN8       -0.2867
     13  CB        33.1170   -4.1030   27.7010 C.3     8  GLN8        0.0367
     14  CG        32.5360   -2.9720   26.8560 C.3     8  GLN8        0.0905
     15  CD        33.3100   -2.7430   25.5520 C.2     8  GLN8        0.2608
     16  OE1       33.3870   -3.6160   24.6990 O.2     8  GLN8       -0.2717
     17  NE2       33.8890   -1.5500   25.4100 N.am    8  GLN8       -0.0878
     18  N         30.4130   -8.1170   27.5630 N.3    35  LYS35      -0.1245
     19  CA        30.7410   -8.1580   26.1450 C.3    35  LYS35       0.1561
     20  C         30.3150   -9.4690   25.5050 C.2    35  LYS35       0.2260
     21  O         29.9970   -9.4940   24.3190 O.2    35  LYS35      -0.2867
     22  CB        32.2410   -7.9140   25.9100 C.3    35  LYS35       0.0271
     23  CG        32.4940   -6.8840   24.8020 C.3    35  LYS35       0.0035
     24  CD        31.1720   -6.2350   24.3490 C.3    35  LYS35       0.0206
     25  CE        31.2350   -5.4600   23.0220 C.3    35  LYS35       0.1093
     26  NZ        31.2200   -6.3250   21.7850 N.3    35  LYS35      -0.1314
     27  N         26.6740   -9.2310   24.9620 N.3    38  LEU38      -0.1245
     28  CA        26.4260   -8.4540   23.7680 C.3    38  LEU38       0.1561
     29  C         26.5190   -9.3450   22.5730 C.2    38  LEU38       0.2260
     30  O         25.6310   -9.3440   21.7260 O.2    38  LEU38      -0.2867
     31  CB        27.4480   -7.3410   23.6460 C.3    38  LEU38       0.0270
     32  CG        26.9360   -6.1000   24.3630 C.3    38  LEU38       0.0019
     33  CD1       28.0380   -5.0580   24.4070 C.3    38  LEU38       0.0001
     34  CD2       25.6780   -5.5660   23.6430 C.3    38  LEU38       0.0001
     35  N         23.6260  -11.8690   22.0450 N.3    41  LEU41      -0.1231
     36  CA        22.4120  -11.1940   21.6090 C.3    41  LEU41       0.1693
     37  C         22.4650  -10.8520   20.1250 C.2    41  LEU41       0.2592
     38  O         21.4580  -10.9390   19.4300 O.2    41  LEU41      -0.2718
     39  CB        22.1800   -9.9170   22.4180 C.3    41  LEU41       0.0284
     40  CG        21.7240  -10.2470   23.8350 C.3    41  LEU41       0.0019
     41  CD1       21.5990   -8.9860   24.6580 C.3    41  LEU41       0.0001
     42  CD2       20.3940  -10.9830   23.7590 C.3    41  LEU41       0.0001
     43  N         23.6390  -10.4440   19.6490 N.am   42  GLY42      -0.1957
     44  CA        23.7790  -10.1030   18.2420 C.3    42  GLY42       0.1869
     45  C         23.6400  -11.3720   17.4130 C.2    42  GLY42       0.2309
     46  O         23.0150  -11.3950   16.3540 O.2    42  GLY42      -0.2863
     47  N         20.0360  -12.1650   17.1070 N.3    45  ILE45      -0.1231
     48  CA        19.4180  -11.2640   16.1280 C.3    45  ILE45       0.1692
     49  C         19.6030  -11.7550   14.7000 C.2    45  ILE45       0.2591
     50  O         18.6790  -11.6930   13.8810 O.2    45  ILE45      -0.2718
     51  CB        20.0340   -9.8490   16.2050 C.3    45  ILE45       0.0266
     52  CG1       19.8030   -9.2610   17.5950 C.3    45  ILE45       0.0019
     53  CG2       19.3980   -8.9150   15.1500 C.3    45  ILE45       0.0020
     54  CD1       20.4180   -7.8990   17.8490 C.3    45  ILE45       0.0001
     55  N         20.8020  -12.2420   14.4070 N.am   46  MET46      -0.1979
     56  CA        21.1020  -12.7180   13.0660 C.3    46  MET46       0.1605
     57  C         20.7290  -14.1720   12.7390 C.2    46  MET46       0.2287
     58  O         20.5280  -14.4830   11.5710 O.2    46  MET46      -0.2864
     59  CB        22.5750  -12.5170   12.7850 C.3    46  MET46       0.0413
     60  CG        22.9940  -11.0480   12.6210 C.3    46  MET46       0.0598
     61  SD        23.7120  -10.7320   11.0330 S.3    46  MET46      -0.1393
     62  CE        24.4470  -12.4060   10.6300 C.3    46  MET46       0.0692
     63  N         16.5500   -8.3300   11.9410 N.3    51  TYR51      -0.1241
     64  CA        17.0470   -7.1250   11.3090 C.3    51  TYR51       0.1605
     65  C         16.3090   -7.0720    9.9630 C.2    51  TYR51       0.2264
     66  O         15.5500   -7.9650    9.6590 O.2    51  TYR51      -0.2867
     67  CB        18.5490   -7.2400   11.0920 C.3    51  TYR51       0.0534
     68  CG        19.0290   -8.4200   10.2750 C.ar   51  TYR51      -0.0201
     69  CD1       18.8420   -8.4670    8.8940 C.ar   51  TYR51      -0.0009
     70  CD2       19.6530   -9.4980   10.8960 C.ar   51  TYR51      -0.0009
     71  CE1       19.2570   -9.5680    8.1430 C.ar   51  TYR51       0.0417
     72  CE2       20.0790  -10.6200   10.1570 C.ar   51  TYR51       0.0417
     73  CZ        19.8740  -10.6440    8.7750 C.ar   51  TYR51       0.1957
     74  OH        20.2850  -11.7270    8.0240 O.3    51  TYR51      -0.2866
     75  N         16.0950   -2.2050   15.2000 N.3    54  VAL54      -0.1245
     76  CA        15.8100   -3.6300   15.3340 C.3    54  VAL54       0.1561
     77  C         14.3960   -3.7240   15.9180 C.2    54  VAL54       0.2260
     78  O         14.0880   -3.1390   16.9840 O.2    54  VAL54      -0.2867
     79  CB        16.8070   -4.3950   16.2790 C.3    54  VAL54       0.0252
     80  CG1       16.2150   -5.7550   16.6570 C.3    54  VAL54       0.0019
     81  CG2       18.1400   -4.5720   15.5700 C.3    54  VAL54       0.0019
     82  N         13.0190  -11.3170   22.6520 N.3    61  LEU61      -0.1245
     83  CA        13.9000  -10.1610   22.8660 C.3    61  LEU61       0.1561
     84  C         13.1390   -8.8950   23.2470 C.2    61  LEU61       0.2260
     85  O         13.6320   -8.0800   24.0160 O.2    61  LEU61      -0.2867
     86  CB        14.7410   -9.9140   21.6070 C.3    61  LEU61       0.0270
     87  CG        15.7140   -8.7560   21.7810 C.3    61  LEU61       0.0019
     88  CD1       16.8140   -9.1540   22.7610 C.3    61  LEU61       0.0001
     89  CD2       16.2880   -8.4030   20.4310 C.3    61  LEU61       0.0001
     90  N         13.6450   -6.7940   26.5470 N.3    65  PHE65      -0.1241
     91  CA        13.8620   -5.3480   26.5980 C.3    65  PHE65       0.1605
     92  C         12.6880   -4.4520   26.9390 C.2    65  PHE65       0.2264
     93  O         12.8810   -3.2950   27.2440 O.2    65  PHE65      -0.2867
     94  CB        14.4970   -4.8610   25.2900 C.3    65  PHE65       0.0534
     95  CG        15.9210   -5.2900   25.1200 C.ar   65  PHE65      -0.0203
     96  CD1       16.5610   -5.9690   26.1420 C.ar   65  PHE65      -0.0042
     97  CD2       16.6090   -5.0580   23.9280 C.ar   65  PHE65      -0.0042
     98  CE1       17.8530   -6.4190   25.9980 C.ar   65  PHE65      -0.0003
     99  CE2       17.9170   -5.5060   23.7660 C.ar   65  PHE65      -0.0003
    100  CZ        18.5420   -6.1990   24.8190 C.ar   65  PHE65      -0.0000
    101  N         14.2940   -0.6450   18.8290 N.3    70  PHE70      -0.1241
    102  CA        15.3710    0.1650   19.3770 C.3    70  PHE70       0.1605
    103  C         16.4560    0.4370   18.3290 C.2    70  PHE70       0.2264
    104  O         16.5520   -0.2620   17.3280 O.2    70  PHE70      -0.2867
    105  CB        15.9740   -0.5390   20.5950 C.3    70  PHE70       0.0534
    106  CG        16.5660   -1.8790   20.2820 C.ar   70  PHE70      -0.0203
    107  CD1       17.8380   -1.9880   19.7210 C.ar   70  PHE70      -0.0042
    108  CD2       15.8410   -3.0290   20.5270 C.ar   70  PHE70      -0.0042
    109  CE1       18.3750   -3.2320   19.4040 C.ar   70  PHE70      -0.0003
    110  CE2       16.3660   -4.2910   20.2120 C.ar   70  PHE70      -0.0003
    111  CZ        17.6360   -4.3910   19.6520 C.ar   70  PHE70      -0.0000
    112  N         20.2380    0.4490   17.0740 N.3    72  VAL72      -0.1231
    113  CA        21.4540   -0.2870   17.3810 C.3    72  VAL72       0.1692
    114  C         22.5630    0.6500   17.8150 C.2    72  VAL72       0.2591
    115  O         23.4830    0.2370   18.4640 O.2    72  VAL72      -0.2718
    116  CB        21.9470   -1.0930   16.1910 C.3    72  VAL72       0.0266
    117  CG1       20.9900   -2.2420   15.9250 C.3    72  VAL72       0.0020
    118  CG2       22.0690   -0.1760   14.9610 C.3    72  VAL72       0.0020
    119  N         22.4520    1.9180   17.4370 N.am   73  LYS73      -0.1980
    120  CA        23.4550    2.9220   17.7710 C.3    73  LYS73       0.1596
    121  C         23.3700    3.4620   19.1960 C.2    73  LYS73       0.2287
    122  O         24.2730    4.1440   19.6550 O.2    73  LYS73      -0.2864
    123  CB        23.3620    4.0850   16.7690 C.3    73  LYS73       0.0298
    124  CG        23.8430    3.7530   15.3710 C.3    73  LYS73       0.0038
    125  CD        25.3740    3.6900   15.3040 C.3    73  LYS73       0.0206
    126  CE        25.8500    3.6700   13.8460 C.3    73  LYS73       0.1093
    127  NZ        27.2780    4.0730   13.6850 N.3    73  LYS73      -0.1314
    128  N         23.9090    2.4800   22.2610 N.3    75  HIS75      -0.1241
    129  CA        24.5880    1.4920   23.0980 C.3    75  HIS75       0.1621
    130  C         24.3010    1.5360   24.6040 C.2    75  HIS75       0.2264
    131  O         24.1110    0.4960   25.2190 O.2    75  HIS75      -0.2867
    132  CB        26.0890    1.5840   22.8480 C.3    75  HIS75       0.0745
    133  CG        26.4810    1.2600   21.4390 C.ar   75  HIS75       0.0817
    134  ND1       27.7910    1.2470   21.0110 N.ar   75  HIS75      -0.2268
    135  CD2       25.7300    0.9400   20.3590 C.ar   75  HIS75       0.1154
    136  CE1       27.8300    0.9340   19.7270 C.ar   75  HIS75       0.1986
    137  NE2       26.5930    0.7430   19.3070 N.ar   75  HIS75      -0.2212
    138  N         20.8930    0.3210   25.2470 N.3    78  ILE78      -0.1231
    139  CA        20.9050   -1.1190   25.0460 C.3    78  ILE78       0.1692
    140  C         21.4790   -1.8150   26.2890 C.2    78  ILE78       0.2592
    141  O         20.9940   -2.8590   26.6960 O.2    78  ILE78      -0.2718
    142  CB        21.7420   -1.5040   23.8000 C.3    78  ILE78       0.0266
    143  CG1       20.9790   -1.1010   22.5380 C.3    78  ILE78       0.0019
    144  CG2       22.0300   -3.0230   23.8020 C.3    78  ILE78       0.0020
    145  CD1       21.7770   -1.1920   21.2410 C.3    78  ILE78       0.0001
    146  N         22.5170   -1.2350   26.8850 N.am   79  TYR79      -0.1976
    147  CA        23.1130   -1.8010   28.0900 C.3    79  TYR79       0.1639
    148  C         22.0810   -1.7270   29.1900 C.2    79  TYR79       0.2290
    149  O         21.9020   -2.6520   29.9630 O.2    79  TYR79      -0.2864
    150  CB        24.3420   -1.0030   28.5280 C.3    79  TYR79       0.0560
    151  CG        25.6400   -1.6300   28.0990 C.ar   79  TYR79      -0.0198
    152  CD1       25.9510   -1.7620   26.7520 C.ar   79  TYR79      -0.0009
    153  CD2       26.5380   -2.1320   29.0400 C.ar   79  TYR79      -0.0009
    154  CE1       27.1140   -2.3760   26.3490 C.ar   79  TYR79       0.0417
    155  CE2       27.7090   -2.7560   28.6530 C.ar   79  TYR79       0.0417
    156  CZ        27.9940   -2.8760   27.3010 C.ar   79  TYR79       0.1957
    157  OH        29.1530   -3.5000   26.9060 O.3    79  TYR79      -0.2866
@<TRIPOS>BOND
     1    74    73    1
     2    71    73   ar
     3    71    69   ar
     4    73    72   ar
     5    69    68   ar
     6    66    65    2
     7    65    64    1
     8    72    70   ar
     9    68    70   ar
    10    68    67    1
    11    62    61    1
    12    61    60    1
    13    67    64    1
    14    64    63    1
    15    58    57    2
    16    60    59    1
    17    57    56    1
    18    59    56    1
    19    56    55    1
    20   127   126    1
    21   126   125    1
    22    50    49    2
    23    55    49   am
    24    49    48    1
    25   118   116    1
    26    53    51    1
    27    75    76    1
    28   125   124    1
    29    76    77    1
    30    76    79    1
    31   124   123    1
    32    81    79    1
    33    77    78    2
    34   117   116    1
    35    48    51    1
    36    48    47    1
    37   116   113    1
    38    51    52    1
    39    79    80    1
    40    46    45    2
    41   123   120    1
    42   112   113    1
    43   104   103    2
    44   113   114    1
    45    45    44    1
    46   119   120    1
    47   119   114   am
    48    52    54    1
    49   120   121    1
    50   114   115    2
    51    44    43    1
    52   103   102    1
    53   101   102    1
    54   121   122    2
    55   137   136   ar
    56   137   135   ar
    57   102   105    1
    58   109   111   ar
    59   109   107   ar
    60    38    37    2
    61    43    37   am
    62   111   110   ar
    63   107   106   ar
    64   136   134   ar
    65    37    36    1
    66   110   108   ar
    67   106   108   ar
    68   106   105    1
    69   135   133   ar
    70    89    87    1
    71   134   133   ar
    72   145   143    1
    73   133   132    1
    74    86    87    1
    75    86    83    1
    76    36    35    1
    77    36    39    1
    78    30    29    2
    79    87    88    1
    80    26    25    1
    81   128   129    1
    82    39    40    1
    83   143   142    1
    84    29    28    1
    85    82    83    1
    86   132   129    1
    87    83    84    1
    88    25    24    1
    89   129   130    1
    90    84    85    2
    91    34    32    1
    92    31    28    1
    93    31    32    1
    94    42    40    1
    95    99    97   ar
    96    99   100   ar
    97    28    27    1
    98   142   144    1
    99   142   139    1
   100    40    41    1
   101    97    95   ar
   102    21    20    2
   103    24    23    1
   104    32    33    1
   105   130   131    2
   106    16    15    2
   107    23    22    1
   108   100    98   ar
   109   139   138    1
   110   139   140    1
   111    95    94    1
   112    95    96   ar
   113    94    91    1
   114    17    15   am
   115    20    19    1
   116    15    14    1
   117    22    19    1
   118    98    96   ar
   119     6     5    1
   120     6     8    1
   121    19    18    1
   122   140   141    2
   123   140   146   am
   124   154   152   ar
   125   154   156   ar
   126     1     2    1
   127    90    91    1
   128    91    92    1
   129     4     3    2
   130     5     2    1
   131     5     7    1
   132   152   151   ar
   133    14    13    1
   134   146   147    1
   135   157   156    1
   136    92    93    2
   137   156   155   ar
   138     2     3    1
   139    13    10    1
   140   147   150    1
   141   147   148    1
   142   151   150    1
   143   151   153   ar
   144   155   153   ar
   145    10    11    1
   146    10     9    1
   147   148   149    2
   148    12    11    2
