@<TRIPOS>MOLECULE
tmp/4erkA00.pdb
 130 121 0 0 0
SMALL
GASTEIGER

@<TRIPOS>ATOM
      1  N        -20.0120   20.3560   37.9870 N.3    24  ILE24      -0.1231
      2  CA       -19.7280   19.6400   39.2220 C.3    24  ILE24       0.1692
      3  C        -18.4360   20.1590   39.8370 C.2    24  ILE24       0.2593
      4  O        -18.0080   19.7040   40.8950 O.2    24  ILE24      -0.2718
      5  CB       -19.6140   18.1230   38.9420 C.3    24  ILE24       0.0266
      6  CG1      -20.9800   17.5770   38.5230 C.3    24  ILE24       0.0019
      7  CG2      -19.1200   17.3850   40.1650 C.3    24  ILE24       0.0020
      8  CD1      -22.1110   17.9290   39.4770 C.3    24  ILE24       0.0001
      9  N        -17.8180   21.1240   39.1660 N.am   25  GLY25      -0.1942
     10  CA       -16.5870   21.6900   39.6780 C.3    25  GLY25       0.2014
     11  C        -15.4410   21.6140   38.6940 C.2    25  GLY25       0.2638
     12  O        -15.6470   21.4480   37.4910 O.2    25  GLY25      -0.2714
     13  N        -14.2280   21.7430   39.2180 N.am   26  GLU26      -0.1977
     14  CA       -13.0250   21.6920   38.4060 C.3    26  GLU26       0.1602
     15  C        -11.8730   21.2080   39.2650 C.2    26  GLU26       0.2287
     16  O        -12.0000   20.2060   39.9680 O.2    26  GLU26      -0.2864
     17  CB       -12.7110   23.0760   37.8460 C.3    26  GLU26       0.0415
     18  CG       -12.7160   23.1270   36.3340 C.3    26  GLU26       0.1163
     19  CD       -12.8400   24.5370   35.7990 C.2    26  GLU26       0.3649
     20  OE1      -11.8870   25.3270   35.9790 O.co2  26  GLU26      -0.2457
     21  OE2      -13.8900   24.8540   35.1970 O.co2  26  GLU26      -0.2457
     22  N        -15.1910   19.0450   35.5230 N.3    32  VAL32      -0.1245
     23  CA       -16.0860   17.9540   35.8960 C.3    32  VAL32       0.1561
     24  C        -17.5630   18.3190   35.7520 C.2    32  VAL32       0.2260
     25  O        -17.9590   19.4550   36.0170 O.2    32  VAL32      -0.2867
     26  CB       -15.8240   17.5140   37.3550 C.3    32  VAL32       0.0252
     27  CG1      -16.7200   16.3520   37.7170 C.3    32  VAL32       0.0019
     28  CG2      -14.3630   17.1410   37.5260 C.3    32  VAL32       0.0019
     29  N        -20.2870   10.7690   36.1940 N.3    45  ALA45      -0.1245
     30  CA       -19.4030   11.8870   36.4740 C.3    45  ALA45       0.1562
     31  C        -18.4220   11.9080   35.3120 C.2    45  ALA45       0.2260
     32  O        -17.8530   10.8710   34.9580 O.2    45  ALA45      -0.2867
     33  CB       -18.6660   11.6640   37.7730 C.3    45  ALA45       0.0290
     34  N        -15.0130   13.8810   33.6590 N.3    47  LYS47      -0.1245
     35  CA       -13.8850   14.7810   33.8320 C.3    47  LYS47       0.1561
     36  C        -13.3100   15.0960   32.4530 C.2    47  LYS47       0.2260
     37  O        -12.9610   14.1850   31.6980 O.2    47  LYS47      -0.2867
     38  CB       -12.7810   14.1180   34.6570 C.3    47  LYS47       0.0271
     39  CG       -12.9420   14.1540   36.1670 C.3    47  LYS47       0.0035
     40  CD       -11.7160   13.5280   36.8550 C.3    47  LYS47       0.0206
     41  CE       -11.0610   12.4520   35.9840 C.3    47  LYS47       0.1093
     42  NZ        -9.8340   11.8750   36.5880 N.3    47  LYS47      -0.1314
     43  N        -12.3230    3.8930   42.6080 N.3    77  ILE77      -0.1245
     44  CA       -13.1500    4.3920   41.5170 C.3    77  ILE77       0.1561
     45  C        -12.7580    3.7100   40.2150 C.2    77  ILE77       0.2260
     46  O        -11.6080    3.3040   40.0290 O.2    77  ILE77      -0.2867
     47  CB       -13.0230    5.9150   41.3310 C.3    77  ILE77       0.0252
     48  CG1      -14.1590    6.4100   40.4370 C.3    77  ILE77       0.0019
     49  CG2      -11.6950    6.2750   40.6810 C.3    77  ILE77       0.0019
     50  CD1      -15.4960    6.5360   41.1410 C.3    77  ILE77       0.0001
     51  N        -17.0230    8.3000   35.1080 N.3    98  GLN98      -0.1231
     52  CA       -16.8640    7.5490   36.3490 C.3    98  GLN98       0.1698
     53  C        -18.1160    7.5760   37.2150 C.2    98  GLN98       0.2592
     54  O        -18.8500    8.5650   37.2150 O.2    98  GLN98      -0.2718
     55  CB       -15.6840    8.1100   37.1460 C.3    98  GLN98       0.0381
     56  CG       -14.3250    7.7640   36.5490 C.3    98  GLN98       0.0905
     57  CD       -13.1750    8.4150   37.2850 C.2    98  GLN98       0.2608
     58  OE1      -13.1440    9.6290   37.4440 O.2    98  GLN98      -0.2717
     59  NE2      -12.2220    7.6080   37.7380 N.am   98  GLN98      -0.0878
     60  N        -18.3640    6.4950   37.9540 N.am   99  ASP99      -0.1960
     61  CA       -19.5360    6.4400   38.8310 C.3    99  ASP99       0.1840
     62  C        -19.5630    7.7520   39.5930 C.2    99  ASP99       0.2622
     63  O        -18.5460    8.1700   40.1380 O.2    99  ASP99      -0.2715
     64  CB       -19.4250    5.2960   39.8460 C.3    99  ASP99       0.1450
     65  CG       -19.6570    3.9340   39.2280 C.2    99  ASP99       0.3671
     66  OD1      -20.0820    3.8760   38.0580 O.co2  99  ASP99      -0.2456
     67  OD2      -19.4090    2.9180   39.9140 O.co2  99  ASP99      -0.2456
     68  N        -20.7130    8.4070   39.6230 N.am  100  LEU100     -0.1963
     69  CA       -20.8220    9.6700   40.3370 C.3   100  LEU100      0.1728
     70  C        -20.8550    9.4040   41.8300 C.2   100  LEU100      0.2616
     71  O        -21.3390    8.3620   42.2700 O.2   100  LEU100     -0.2715
     72  CB       -22.0910   10.4200   39.9250 C.3   100  LEU100      0.0311
     73  CG       -22.3580   11.7270   40.6760 C.3   100  LEU100      0.0022
     74  CD1      -21.2670   12.7460   40.3710 C.3   100  LEU100      0.0001
     75  CD2      -23.7190   12.2640   40.2770 C.3   100  LEU100      0.0001
     76  N        -20.3400   10.3460   42.6070 N.am  101  MET101     -0.1963
     77  CA       -20.3260   10.2030   44.0470 C.3   101  MET101      0.1736
     78  C        -20.9000   11.4830   44.6060 C.2   101  MET101      0.2616
     79  O        -20.8680   12.5040   43.9410 O.2   101  MET101     -0.2715
     80  CB       -18.8970    9.9900   44.5410 C.3   101  MET101      0.0427
     81  CG       -18.2430    8.7120   44.0210 C.3   101  MET101      0.0599
     82  SD       -19.0080    7.1710   44.6350 S.3   101  MET101     -0.1393
     83  CE       -18.1520    6.9850   46.2470 C.3   101  MET101      0.0692
     84  N        -21.4290   11.4260   45.8230 N.am  102  GLU102     -0.1963
     85  CA       -22.0380   12.5910   46.4530 C.3   102  GLU102      0.1733
     86  C        -21.0470   13.6560   46.9140 C.2   102  GLU102      0.2617
     87  O        -21.2740   14.8500   46.7290 O.2   102  GLU102     -0.2715
     88  CB       -22.9000   12.1470   47.6400 C.3   102  GLU102      0.0429
     89  CG       -24.1600   12.9760   47.8530 C.3   102  GLU102      0.1163
     90  CD       -25.1150   12.9190   46.6650 C.2   102  GLU102      0.3649
     91  OE1      -24.6750   12.5370   45.5560 O.co2 102  GLU102     -0.2457
     92  OE2      -26.3110   13.2570   46.8380 O.co2 102  GLU102     -0.2457
     93  N        -19.9430   13.2300   47.5120 N.am  103  THR103     -0.1937
     94  CA       -18.9610   14.1740   48.0100 C.3   103  THR103      0.2028
     95  C        -17.6330   13.4560   48.2040 C.2   103  THR103      0.2642
     96  O        -17.4100   12.3940   47.6270 O.2   103  THR103     -0.2714
     97  CB       -19.4290   14.7450   49.3610 C.3   103  THR103      0.1808
     98  OG1      -18.3880   15.5410   49.9410 O.3   103  THR103     -0.2208
     99  CG2      -19.7840   13.6040   50.3290 C.3   103  THR103      0.0379
    100  N        -16.7520   14.0480   49.0070 N.am  104  ASP104     -0.1971
    101  CA       -15.4600   13.4570   49.3170 C.3   104  ASP104      0.1709
    102  C        -15.1950   13.7150   50.7940 C.2   104  ASP104      0.2293
    103  O        -15.8360   14.5730   51.4000 O.2   104  ASP104     -0.2864
    104  CB       -14.3470   14.0400   48.4200 C.3   104  ASP104      0.1436
    105  CG       -13.8980   15.4360   48.8370 C.2   104  ASP104      0.3671
    106  OD1      -13.9550   15.7740   50.0280 O.co2 104  ASP104     -0.2456
    107  OD2      -13.4680   16.2070   47.9610 O.co2 104  ASP104     -0.2456
    108  N        -14.4610   17.5050   51.8340 N.3   107  LYS107     -0.1245
    109  CA       -15.6590   18.3250   51.9570 C.3   107  LYS107      0.1561
    110  C        -16.4920   17.8660   53.1510 C.2   107  LYS107      0.2260
    111  O        -16.9590   18.6830   53.9470 O.2   107  LYS107     -0.2867
    112  CB       -16.4930   18.2350   50.6770 C.3   107  LYS107      0.0271
    113  CG       -16.2740   19.3840   49.7110 C.3   107  LYS107      0.0035
    114  CD       -17.1350   19.2270   48.4660 C.3   107  LYS107      0.0206
    115  CE       -18.6150   19.4110   48.7730 C.3   107  LYS107      0.1093
    116  NZ       -19.0670   20.8120   48.5310 N.3   107  LYS107     -0.1314
    117  N        -13.6330    9.5640   47.7110 N.3   149  LEU149     -0.1245
    118  CA       -15.0090    9.9120   47.3940 C.3   149  LEU149      0.1561
    119  C        -16.0100    8.9800   48.0630 C.2   149  LEU149      0.2260
    120  O        -15.7780    7.7780   48.1980 O.2   149  LEU149     -0.2867
    121  CB       -15.2180    9.8810   45.8840 C.3   149  LEU149      0.0270
    122  CG       -14.2950   10.7690   45.0430 C.3   149  LEU149      0.0019
    123  CD1      -15.0610   11.2410   43.8280 C.3   149  LEU149      0.0001
    124  CD2      -13.7860   11.9590   45.8580 C.3   149  LEU149      0.0001
    125  N         -9.5630    7.4060   44.7780 N.3   159  CYS159     -0.1235
    126  CA        -9.4160    7.9220   43.4220 C.3   159  CYS159      0.1677
    127  C         -8.1630    8.7810   43.3130 C.2   159  CYS159      0.2270
    128  O         -7.5140    9.0560   44.3220 O.2   159  CYS159     -0.2867
    129  CB       -10.6560    8.7230   43.0200 C.3   159  CYS159      0.0956
    130  SG       -10.8020   10.3340   43.8010 S.3   159  CYS159     -0.0801
@<TRIPOS>BOND
     1    37    36    2
     2    36    35    1
     3    34    35    1
     4    35    38    1
     5    38    39    1
     6    32    31    2
     7    51    52    1
     8    21    19   ar
     9    31    30    1
    10    22    23    1
    11    24    23    1
    12    24    25    2
    13    19    20   ar
    14    19    18    1
    15    23    26    1
    16    41    42    1
    17    41    40    1
    18    39    40    1
    19    29    30    1
    20    18    17    1
    21    52    55    1
    22    52    53    1
    23    30    33    1
    24    56    55    1
    25    56    57    1
    26    53    54    2
    27    53    60   am
    28    57    58    2
    29    57    59   am
    30    26    28    1
    31    26    27    1
    32    12    11    2
    33    17    14    1
    34    60    61    1
    35     1     2    1
    36    66    65   ar
    37    14    13    1
    38    14    15    1
    39     6     5    1
    40     6     8    1
    41    11    13   am
    42    11    10    1
    43    61    62    1
    44    61    64    1
    45     5     2    1
    46     5     7    1
    47     9    10    1
    48     9     3   am
    49     2     3    1
    50    65    64    1
    51    65    67   ar
    52    15    16    2
    53    62    68   am
    54    62    63    2
    55    68    69    1
    56     3     4    2
    57    72    69    1
    58    72    73    1
    59    46    45    2
    60    45    44    1
    61    75    73    1
    62    69    70    1
    63    74    73    1
    64    48    50    1
    65    48    47    1
    66    49    47    1
    67    47    44    1
    68    44    43    1
    69    70    71    2
    70    70    76   am
    71    76    77    1
    72   129   126    1
    73   129   130    1
    74   127   126    1
    75   127   128    2
    76   126   125    1
    77   123   122    1
    78    79    78    2
    79    81    80    1
    80    81    82    1
    81    77    80    1
    82    77    78    1
    83    78    84   am
    84    82    83    1
    85   122   124    1
    86   122   121    1
    87    91    90   ar
    88    84    85    1
    89   121   118    1
    90    85    86    1
    91    85    88    1
    92    90    92   ar
    93    90    89    1
    94    87    86    2
    95    86    93   am
    96   118   117    1
    97   118   119    1
    98    93    94    1
    99    96    95    2
   100    88    89    1
   101   107   105   ar
   102    94    95    1
   103    94    97    1
   104   119   120    2
   105    95   100   am
   106   104   105    1
   107   104   101    1
   108   114   115    1
   109   114   113    1
   110   116   115    1
   111   105   106   ar
   112   100   101    1
   113   101   102    1
   114    97    98    1
   115    97    99    1
   116   113   112    1
   117   112   109    1
   118   102   103    2
   119   108   109    1
   120   109   110    1
   121   110   111    2
