@<TRIPOS>MOLECULE
tmp/4erwA00.pdb
 175 168 0 0 0
SMALL
GASTEIGER

@<TRIPOS>ATOM
      1  N          0.4680  -12.2830   32.6680 N.3    10  ILE10      -0.1231
      2  CA        -0.6900  -12.0430   31.8230 C.3    10  ILE10       0.1692
      3  C         -0.4830  -12.4730   30.3780 C.2    10  ILE10       0.2593
      4  O         -1.4350  -12.5340   29.6010 O.2    10  ILE10      -0.2718
      5  CB        -1.1920  -10.5860   31.9060 C.3    10  ILE10       0.0266
      6  CG1       -0.0820   -9.6070   31.5470 C.3    10  ILE10       0.0019
      7  CG2       -1.7270  -10.2850   33.2970 C.3    10  ILE10       0.0020
      8  CD1       -0.5280   -8.1720   31.6240 C.3    10  ILE10       0.0001
      9  N          0.7570  -12.7920   30.0200 N.am   11  GLY11      -0.1942
     10  CA         1.0250  -13.2760   28.6810 C.3    11  GLY11       0.2014
     11  C          2.4690  -13.6540   28.4670 C.2    11  GLY11       0.2639
     12  O          3.3420  -13.3040   29.2570 O.2    11  GLY11      -0.2714
     13  N          2.7170  -14.4000   27.4010 N.am   12  GLU12      -0.1963
     14  CA         4.0760  -14.6500   26.9580 C.3    12  GLU12       0.1733
     15  C          4.1940  -14.0700   25.5590 C.2    12  GLU12       0.2616
     16  O          3.6170  -14.5910   24.6020 O.2    12  GLU12      -0.2715
     17  CB         4.4220  -16.1450   27.0090 C.3    12  GLU12       0.0429
     18  CG         3.2790  -17.0800   26.6210 C.3    12  GLU12       0.1163
     19  CD         3.6810  -18.5490   26.6570 C.2    12  GLU12       0.3649
     20  OE1        4.7720  -18.8630   27.1800 O.co2  12  GLU12      -0.2457
     21  OE2        2.9040  -19.3910   26.1610 O.co2  12  GLU12      -0.2457
     22  N          4.9070  -12.9510   25.4620 N.am   13  GLY13      -0.1955
     23  CA         4.9950  -12.1900   24.2290 C.3    13  GLY13       0.1869
     24  C          5.9370  -12.7890   23.2040 C.2    13  GLY13       0.2309
     25  O          6.3430  -13.9540   23.3110 O.2    13  GLY13      -0.2863
     26  N          5.1940  -11.3220   29.9190 N.3    18  VAL18      -0.1245
     27  CA         4.5570  -10.0850   30.3980 C.3    18  VAL18       0.1561
     28  C          3.7860  -10.2890   31.6970 C.2    18  VAL18       0.2260
     29  O          3.0150  -11.2430   31.8380 O.2    18  VAL18      -0.2867
     30  CB         3.6180   -9.4610   29.3340 C.3    18  VAL18       0.0252
     31  CG1        3.1080   -8.0880   29.7980 C.3    18  VAL18       0.0019
     32  CG2        4.3360   -9.3170   28.0190 C.3    18  VAL18       0.0019
     33  N          1.8770   -2.9170   33.1170 N.3    31  ALA31      -0.1245
     34  CA         2.2380   -4.1960   32.4950 C.3    31  ALA31       0.1562
     35  C          3.7500   -4.1820   32.3260 C.2    31  ALA31       0.2260
     36  O          4.3190   -3.1750   31.8870 O.2    31  ALA31      -0.2867
     37  CB         1.5440   -4.3790   31.1530 C.3    31  ALA31       0.0290
     38  N          7.0020   -6.0830   30.6550 N.3    33  LYS33      -0.1245
     39  CA         7.5780   -7.0840   29.7590 C.3    33  LYS33       0.1561
     40  C          9.0390   -7.3300   30.1390 C.2    33  LYS33       0.2260
     41  O          9.8110   -6.3880   30.3100 O.2    33  LYS33      -0.2867
     42  CB         7.4950   -6.6300   28.2940 C.3    33  LYS33       0.0271
     43  CG         7.9800   -7.6720   27.2900 C.3    33  LYS33       0.0035
     44  CD         7.7150   -7.2000   25.8820 C.3    33  LYS33       0.0206
     45  CE         8.0320   -8.2840   24.8690 C.3    33  LYS33       0.1093
     46  NZ         7.4380   -7.9670   23.5370 N.3    33  LYS33      -0.1314
     47  N         -0.6420    2.1890   23.2530 N.3    59  VAL59      -0.1245
     48  CA        -0.3320    1.8160   24.6230 C.3    59  VAL59       0.1561
     49  C          0.9360    2.5460   25.0770 C.2    59  VAL59       0.2260
     50  O          1.9990    2.4300   24.4540 O.2    59  VAL59      -0.2867
     51  CB        -0.1390    0.2880   24.7700 C.3    59  VAL59       0.0252
     52  CG1        0.2880   -0.0600   26.1830 C.3    59  VAL59       0.0019
     53  CG2       -1.4220   -0.4440   24.4320 C.3    59  VAL59       0.0019
     54  N          4.7340   -0.6260   30.7280 N.3    75  PHE75      -0.1227
     55  CA         3.6230   -0.0800   29.9430 C.3    75  PHE75       0.1736
     56  C          2.4550    0.2770   30.8350 C.2    75  PHE75       0.2595
     57  O          2.2750   -0.3200   31.8960 O.2    75  PHE75      -0.2718
     58  CB         3.0880   -1.1090   28.9350 C.3    75  PHE75       0.0547
     59  CG         4.1090   -1.6290   27.9950 C.ar   75  PHE75      -0.0202
     60  CD1        4.4060   -0.9420   26.8280 C.ar   75  PHE75      -0.0042
     61  CD2        4.7700   -2.8150   28.2660 C.ar   75  PHE75      -0.0042
     62  CE1        5.3500   -1.4310   25.9420 C.ar   75  PHE75      -0.0003
     63  CE2        5.7140   -3.3090   27.3900 C.ar   75  PHE75      -0.0003
     64  CZ         6.0060   -2.6140   26.2250 C.ar   75  PHE75      -0.0000
     65  N          1.6410    1.2270   30.3780 N.am   76  GLU76      -0.1965
     66  CA         0.3280    1.4410   30.9750 C.3    76  GLU76       0.1733
     67  C         -0.4360    0.1270   30.8810 C.2    76  GLU76       0.2616
     68  O         -0.2360   -0.6630   29.9470 O.2    76  GLU76      -0.2715
     69  CB        -0.4290    2.5650   30.2630 C.3    76  GLU76       0.0429
     70  CG        -1.1210    2.1500   28.9840 C.3    76  GLU76       0.1163
     71  CD        -2.0330    3.2330   28.4210 C.2    76  GLU76       0.3649
     72  OE1       -3.0330    3.5830   29.0830 O.co2  76  GLU76      -0.2457
     73  OE2       -1.7540    3.7410   27.3130 O.co2  76  GLU76      -0.2457
     74  N         -1.2940   -0.1240   31.8580 N.am   77  PHE77      -0.1960
     75  CA        -2.0170   -1.3760   31.9320 C.3    77  PHE77       0.1771
     76  C         -3.4350   -1.1920   31.4100 C.2    77  PHE77       0.2619
     77  O         -4.1150   -0.2390   31.7860 O.2    77  PHE77      -0.2715
     78  CB        -2.0390   -1.8660   33.3840 C.3    77  PHE77       0.0574
     79  CG        -2.8000   -3.1440   33.5930 C.ar   77  PHE77      -0.0200
     80  CD1       -4.0840   -3.1280   34.1300 C.ar   77  PHE77      -0.0042
     81  CD2       -2.2290   -4.3690   33.2670 C.ar   77  PHE77      -0.0042
     82  CE1       -4.7820   -4.3080   34.3330 C.ar   77  PHE77      -0.0003
     83  CE2       -2.9270   -5.5480   33.4640 C.ar   77  PHE77      -0.0003
     84  CZ        -4.2060   -5.5180   34.0040 C.ar   77  PHE77      -0.0000
     85  N         -3.8690   -2.0970   30.5340 N.am   78  LEU78      -0.1963
     86  CA        -5.2490   -2.0750   30.0480 C.3    78  LEU78       0.1728
     87  C         -6.0460   -3.2820   30.5090 C.2    78  LEU78       0.2616
     88  O         -5.5280   -4.1970   31.1310 O.2    78  LEU78      -0.2715
     89  CB        -5.3280   -1.9140   28.5220 C.3    78  LEU78       0.0311
     90  CG        -5.1040   -0.4650   28.0600 C.3    78  LEU78       0.0022
     91  CD1       -3.7150   -0.3000   27.4770 C.3    78  LEU78       0.0001
     92  CD2       -6.1810    0.0230   27.0750 C.3    78  LEU78       0.0001
     93  N         -7.3210   -3.2790   30.1670 N.am   79  HIS79      -0.1959
     94  CA        -8.2780   -4.2010   30.7470 C.3    79  HIS79       0.1787
     95  C         -8.2330   -5.6000   30.0980 C.2    79  HIS79       0.2620
     96  O         -8.3480   -6.6210   30.7740 O.2    79  HIS79      -0.2715
     97  CB        -9.6830   -3.5670   30.6560 C.3    79  HIS79       0.0785
     98  CG        -9.7590   -2.1500   31.1800 C.ar   79  HIS79       0.0821
     99  ND1      -10.9600   -1.5050   31.4070 N.ar   79  HIS79      -0.2267
    100  CD2       -8.7920   -1.2550   31.5140 C.ar   79  HIS79       0.1154
    101  CE1      -10.7320   -0.2830   31.8560 C.ar   79  HIS79       0.1986
    102  NE2       -9.4240   -0.1090   31.9390 N.ar   79  HIS79      -0.2212
    103  N         -8.0230   -5.6510   28.7900 N.am   80  GLN80      -0.1963
    104  CA        -8.2620   -6.8820   28.0480 C.3    80  GLN80       0.1733
    105  C         -7.7630   -6.7100   26.6210 C.2    80  GLN80       0.2616
    106  O         -7.6920   -5.5880   26.1360 O.2    80  GLN80      -0.2715
    107  CB        -9.7690   -7.1230   28.0460 C.3    80  GLN80       0.0408
    108  CG       -10.2430   -8.4320   27.4760 C.3    80  GLN80       0.0908
    109  CD       -11.7260   -8.6340   27.7410 C.2    80  GLN80       0.2608
    110  OE1      -12.5340   -8.6580   26.8180 O.2    80  GLN80      -0.2717
    111  NE2      -12.0900   -8.7540   29.0140 N.am   80  GLN80      -0.0878
    112  N         -7.4280   -7.8050   25.9390 N.am   81  ASP81      -0.1971
    113  CA        -7.0790   -7.7060   24.5190 C.3    81  ASP81       0.1709
    114  C         -8.2890   -7.9470   23.6070 C.2    81  ASP81       0.2293
    115  O         -9.3170   -8.4790   24.0480 O.2    81  ASP81      -0.2864
    116  CB        -5.9000   -8.6210   24.1460 C.3    81  ASP81       0.1436
    117  CG        -6.1940  -10.0880   24.3730 C.2    81  ASP81       0.3671
    118  OD1       -6.8950  -10.6920   23.5340 O.co2  81  ASP81      -0.2456
    119  OD2       -5.7240  -10.6390   25.3940 O.co2  81  ASP81      -0.2456
    120  N         -8.6610   -9.9820   21.0610 N.3    83  LYS83      -0.1231
    121  CA        -8.9060  -11.3930   20.7760 C.3    83  LYS83       0.1693
    122  C         -9.8610  -12.0120   21.7980 C.2    83  LYS83       0.2591
    123  O        -10.7950  -12.7330   21.4380 O.2    83  LYS83      -0.2718
    124  CB        -7.5840  -12.1680   20.7520 C.3    83  LYS83       0.0285
    125  CG        -7.7530  -13.6500   20.4800 C.3    83  LYS83       0.0035
    126  CD        -8.3180  -13.9190   19.0900 C.3    83  LYS83       0.0206
    127  CE        -8.6540  -15.3960   18.9220 C.3    83  LYS83       0.1093
    128  NZ        -7.6810  -16.2290   19.6820 N.3    83  LYS83      -0.1314
    129  N         -9.6280  -11.7180   23.0730 N.am   84  LYS84      -0.1980
    130  CA       -10.4920  -12.2260   24.1420 C.3    84  LYS84       0.1596
    131  C        -11.9010  -11.6610   24.0140 C.2    84  LYS84       0.2287
    132  O        -12.8890  -12.3670   24.2300 O.2    84  LYS84      -0.2864
    133  CB        -9.9240  -11.9020   25.5290 C.3    84  LYS84       0.0298
    134  CG       -10.7920  -12.4370   26.6730 C.3    84  LYS84       0.0038
    135  CD       -10.1220  -12.2620   28.0300 C.3    84  LYS84       0.0206
    136  CE       -11.0320  -12.7200   29.1690 C.3    84  LYS84       0.1093
    137  NZ       -10.3390  -12.6180   30.4870 N.3    84  LYS84      -0.1314
    138  N         -4.6220  -10.0260   19.0740 N.3   126  GLN126     -0.1231
    139  CA        -3.8310  -10.2520   20.2790 C.3   126  GLN126      0.1698
    140  C         -3.0570   -9.0010   20.7200 C.2   126  GLN126      0.2592
    141  O         -2.8570   -8.7760   21.9150 O.2   126  GLN126     -0.2718
    142  CB        -2.8560  -11.4300   20.0470 C.3   126  GLN126      0.0381
    143  CG        -3.5100  -12.8240   19.9560 C.3   126  GLN126      0.0905
    144  CD        -4.1080  -13.1500   18.5850 C.2   126  GLN126      0.2608
    145  OE1       -4.0690  -12.3420   17.6520 O.2   126  GLN126     -0.2717
    146  NE2       -4.6710  -14.3500   18.4640 N.am  126  GLN126     -0.0878
    147  N         -2.6340   -8.1820   19.7590 N.am  127  ASN127     -0.1974
    148  CA        -1.8430   -6.9850   20.0550 C.3   127  ASN127      0.1688
    149  C         -2.6430   -5.7050   20.2070 C.2   127  ASN127      0.2292
    150  O         -2.0820   -4.6170   20.1810 O.2   127  ASN127     -0.2864
    151  CB        -0.7920   -6.7870   18.9660 C.3   127  ASN127      0.1181
    152  CG         0.3650   -7.7450   19.1080 C.2   127  ASN127      0.2629
    153  OD1        0.5940   -8.3160   20.1890 O.2   127  ASN127     -0.2716
    154  ND2        1.1150   -7.9180   18.0310 N.am  127  ASN127     -0.0877
    155  N         -5.4410   -3.7300   22.6360 N.3   129  LEU129     -0.1245
    156  CA        -5.9520   -3.7790   23.9950 C.3   129  LEU129      0.1561
    157  C         -7.0620   -2.7470   24.1220 C.2   129  LEU129      0.2260
    158  O         -6.9770   -1.6740   23.5350 O.2   129  LEU129     -0.2867
    159  CB        -4.8370   -3.4870   25.0110 C.3   129  LEU129      0.0270
    160  CG        -3.6080   -4.4030   25.0060 C.3   129  LEU129      0.0019
    161  CD1       -2.4940   -3.8040   25.8450 C.3   129  LEU129      0.0001
    162  CD2       -3.9770   -5.8020   25.5100 C.3   129  LEU129      0.0001
    163  N         -0.6270   -2.2400   20.7620 N.3   139  ALA139     -0.1231
    164  CA         0.3430   -2.7280   21.7350 C.3   139  ALA139      0.1694
    165  C          1.4180   -3.5700   21.0520 C.2   139  ALA139      0.2592
    166  O          1.2210   -4.0840   19.9360 O.2   139  ALA139     -0.2718
    167  CB        -0.3460   -3.5570   22.8200 C.3   139  ALA139      0.0304
    168  N          2.5370   -3.7160   21.7570 N.am  140  ASP140     -0.1974
    169  CA         3.6490   -4.5770   21.3570 C.3   140  ASP140      0.1709
    170  C          4.1120   -4.2850   19.9380 C.2   140  ASP140      0.2293
    171  O          4.0640   -5.1490   19.0690 O.2   140  ASP140     -0.2864
    172  CB         3.2790   -6.0520   21.5160 C.3   140  ASP140      0.1436
    173  CG         4.4900   -6.9830   21.3870 C.2   140  ASP140      0.3671
    174  OD1        4.2900   -8.2160   21.3240 O.co2 140  ASP140     -0.2456
    175  OD2        5.6380   -6.4900   21.3620 O.co2 140  ASP140     -0.2456
@<TRIPOS>BOND
     1   145   144    2
     2   154   152   am
     3   146   144   am
     4   144   143    1
     5   127   126    1
     6   127   128    1
     7   151   152    1
     8   151   148    1
     9   171   170    2
    10   138   139    1
    11   126   125    1
    12   152   153    2
    13   147   148    1
    14   147   140   am
    15   166   165    2
    16   170   169    1
    17   143   142    1
    18   142   139    1
    19   148   149    1
    20   150   149    2
    21   139   140    1
    22   125   124    1
    23   140   141    2
    24   124   121    1
    25   163   164    1
    26   121   120    1
    27   121   122    1
    28   165   164    1
    29   165   168   am
    30   174   173   ar
    31   169   172    1
    32   169   168    1
    33   175   173   ar
    34   173   172    1
    35   123   122    2
    36   164   167    1
    37   122   129   am
    38   155   156    1
    39   129   130    1
    40    24    25    2
    41    24    23    1
    42    47    48    1
    43   118   117   ar
    44   158   157    2
    45    46    45    1
    46   114   115    2
    47   114   113    1
    48   156   157    1
    49   156   159    1
    50   131   130    1
    51   131   132    2
    52   130   133    1
    53   116   117    1
    54   116   113    1
    55    23    22    1
    56   117   119   ar
    57    53    51    1
    58    50    49    2
    59   113   112    1
    60    16    15    2
    61    48    51    1
    62    48    49    1
    63    51    52    1
    64    45    44    1
    65   160   159    1
    66   160   162    1
    67   160   161    1
    68    22    15   am
    69   133   134    1
    70    15    14    1
    71    44    43    1
    72   112   105   am
    73    62    64   ar
    74    62    60   ar
    75   106   105    2
    76    21    19   ar
    77    64    63   ar
    78    18    19    1
    79    18    17    1
    80   105   104    1
    81    19    20   ar
    82   134   135    1
    83   110   109    2
    84    60    59   ar
    85    14    17    1
    86    14    13    1
    87    92    90    1
    88    43    42    1
    89    73    71   ar
    90    63    61   ar
    91    13    11   am
    92   108   109    1
    93   108   107    1
    94    91    90    1
    95   109   111   am
    96    59    61   ar
    97    59    58    1
    98    32    30    1
    99   135   136    1
   100   107   104    1
   101   104   103    1
   102    90    89    1
   103    42    39    1
   104    71    70    1
   105    71    72   ar
   106    11    10    1
   107    11    12    2
   108    89    86    1
   109    10     9    1
   110   103    95   am
   111    58    55    1
   112    70    69    1
   113   136   137    1
   114    30    31    1
   115    30    27    1
   116     4     3    2
   117    39    40    1
   118    39    38    1
   119    26    27    1
   120    55    54    1
   121    55    56    1
   122    68    67    2
   123     9     3   am
   124    86    87    1
   125    86    85    1
   126    95    94    1
   127    95    96    2
   128    40    41    2
   129    93    87   am
   130    93    94    1
   131    69    66    1
   132     3     2    1
   133    65    56   am
   134    65    66    1
   135    27    28    1
   136    87    88    2
   137    85    76   am
   138    97    94    1
   139    97    98    1
   140    56    57    2
   141    67    66    1
   142    67    74   am
   143    37    34    1
   144    98    99   ar
   145    98   100   ar
   146    99   101   ar
   147    76    77    2
   148    76    75    1
   149   100   102   ar
   150     6     8    1
   151     6     5    1
   152    28    29    2
   153     2     5    1
   154     2     1    1
   155   101   102   ar
   156    74    75    1
   157    36    35    2
   158     5     7    1
   159    75    78    1
   160    35    34    1
   161    34    33    1
   162    81    83   ar
   163    81    79   ar
   164    78    79    1
   165    83    84   ar
   166    79    80   ar
   167    84    82   ar
   168    80    82   ar
