@<TRIPOS>MOLECULE
tmp/4erxA00.pdb
 80 75 0 0 0
SMALL
GASTEIGER

@<TRIPOS>ATOM
      1  N         -9.8770    6.0120  -10.1500 N.3    22  HIS22      -0.1241
      2  CA       -10.5570    6.4230   -8.9190 C.3    22  HIS22       0.1621
      3  C        -10.1800    7.8480   -8.4870 C.2    22  HIS22       0.2264
      4  O        -10.8040    8.4090   -7.5920 O.2    22  HIS22      -0.2867
      5  CB       -10.2120    5.4160   -7.8000 C.3    22  HIS22       0.0745
      6  CG       -11.3610    5.0660   -6.8960 C.ar   22  HIS22       0.0817
      7  ND1      -12.6790    5.2470   -7.2540 N.ar   22  HIS22      -0.2268
      8  CD2      -11.3820    4.4930   -5.6670 C.ar   22  HIS22       0.1154
      9  CE1      -13.4630    4.8030   -6.2850 C.ar   22  HIS22       0.1986
     10  NE2      -12.7010    4.3400   -5.3110 N.ar   22  HIS22      -0.2212
     11  N        -10.0900    6.9230    0.2800 N.3    69  MET69      -0.1245
     12  CA       -11.3900    7.1600   -0.3350 C.3    69  MET69       0.1570
     13  C        -12.5890    6.8890    0.5730 C.2    69  MET69       0.2261
     14  O        -13.5220    7.6880    0.6240 O.2    69  MET69      -0.2867
     15  CB       -11.5290    6.3100   -1.6000 C.3    69  MET69       0.0387
     16  CG       -12.8470    6.5040   -2.3490 C.3    69  MET69       0.0595
     17  SD       -13.0360    8.1850   -3.0010 S.3    69  MET69      -0.1393
     18  CE       -12.2890    8.0050   -4.6070 C.3    69  MET69       0.0692
     19  N        -15.3440   10.0160   -9.9300 N.3    95  ASP95      -0.1239
     20  CA       -15.3690    9.0750  -11.0090 C.3    95  ASP95       0.1674
     21  C        -16.7160    8.3970  -11.1920 C.2    95  ASP95       0.2266
     22  O        -17.3670    8.0630  -10.2760 O.2    95  ASP95      -0.2867
     23  CB       -14.2150    8.0780  -10.8920 C.3    95  ASP95       0.1410
     24  CG       -14.1580    7.4080   -9.5840 C.2    95  ASP95       0.3668
     25  OD1      -13.9460    6.2230   -9.5630 O.co2  95  ASP95      -0.2456
     26  OD2      -14.3760    8.0340   -8.5770 O.co2  95  ASP95      -0.2456
     27  N        -18.6630    5.2380  -12.9160 N.3    97  LEU97      -0.1245
     28  CA       -18.6460    3.9920  -13.6630 C.3    97  LEU97       0.1561
     29  C        -19.7180    3.9050  -14.7450 C.2    97  LEU97       0.2260
     30  O        -19.4680    3.3830  -15.8240 O.2    97  LEU97      -0.2867
     31  CB       -18.8280    2.8090  -12.7130 C.3    97  LEU97       0.0270
     32  CG       -17.6990    2.3500  -11.7900 C.3    97  LEU97       0.0019
     33  CD1      -18.2730    1.3340  -10.8200 C.3    97  LEU97       0.0001
     34  CD2      -16.5460    1.7450  -12.5820 C.3    97  LEU97       0.0001
     35  N        -22.9890    3.1290   -4.9210 N.3   114  GLY114     -0.1210
     36  CA       -21.9370    2.1740   -4.6200 C.3   114  GLY114      0.1956
     37  C        -20.5400    2.7510   -4.5040 C.2   114  GLY114      0.2612
     38  O        -19.5780    2.0220   -4.2330 O.2   114  GLY114     -0.2717
     39  N        -20.4230    4.0570   -4.7290 N.am  115  HIS115     -0.1961
     40  CA       -19.1400    4.7460   -4.6330 C.3   115  HIS115      0.1787
     41  C        -18.8810    4.9870   -3.1450 C.2   115  HIS115      0.2620
     42  O        -19.5700    5.7920   -2.5150 O.2   115  HIS115     -0.2715
     43  CB       -19.2030    6.0780   -5.3770 C.3   115  HIS115      0.0785
     44  CG       -17.8630    6.6860   -5.6320 C.ar  115  HIS115      0.0821
     45  ND1      -17.0860    7.2400   -4.6330 N.ar  115  HIS115     -0.2267
     46  CD2      -17.1320    6.7890   -6.7690 C.ar  115  HIS115      0.1154
     47  CE1      -15.9420    7.6520   -5.1420 C.ar  115  HIS115      0.1986
     48  NE2      -15.9450    7.3900   -6.4400 N.ar  115  HIS115     -0.2212
     49  N        -17.9000    4.2740   -2.5990 N.am  116  ASN116     -0.1958
     50  CA       -17.5540    4.3740   -1.1900 C.3   116  ASN116      0.1819
     51  C        -17.1250    5.7440   -0.7330 C.2   116  ASN116      0.2621
     52  O        -17.1750    6.0480    0.4630 O.2   116  ASN116     -0.2715
     53  CB       -16.4780    3.3630   -0.8140 C.3   116  ASN116      0.1195
     54  CG       -16.9430    1.9360   -1.0300 C.2   116  ASN116      0.2630
     55  OD1      -18.1350    1.6390   -0.8930 O.2   116  ASN116     -0.2716
     56  ND2      -16.0110    1.0400   -1.3700 N.am  116  ASN116     -0.0877
     57  N        -16.6940    6.5710   -1.6750 N.am  117  GLY117     -0.1954
     58  CA       -16.2920    7.9120   -1.3100 C.3   117  GLY117      0.1869
     59  C        -17.5470    8.7030   -0.9870 C.2   117  GLY117      0.2309
     60  O        -17.6650    9.3050    0.0840 O.2   117  GLY117     -0.2863
     61  N        -14.9660   -4.6240  -10.7010 N.3   147  VAL147     -0.1231
     62  CA       -14.9660   -3.2060  -10.4640 C.3   147  VAL147      0.1692
     63  C        -13.8650   -2.6810   -9.5840 C.2   147  VAL147      0.2592
     64  O        -13.1790   -1.8190   -9.9610 O.2   147  VAL147     -0.2718
     65  CB       -16.2940   -2.7580   -9.8730 C.3   147  VAL147      0.0266
     66  CG1      -16.1720   -1.4120   -9.2740 C.3   147  VAL147      0.0020
     67  CG2      -17.3100   -2.7330  -10.9050 C.3   147  VAL147      0.0020
     68  N        -13.6340   -3.2690   -8.4490 N.am  148  SER148     -0.1952
     69  CA       -12.5490   -2.8580   -7.5660 C.3   148  SER148      0.1924
     70  C        -11.1580   -2.7840   -8.2080 C.2   148  SER148      0.2314
     71  O        -10.4240   -1.8190   -7.9990 O.2   148  SER148     -0.2863
     72  CB       -12.4980   -3.7720   -6.3420 C.3   148  SER148      0.2116
     73  OG       -11.6040   -3.2460   -5.3810 O.3   148  SER148     -0.2180
     74  N        -10.9870    0.3280  -10.9780 N.3   151  VAL151     -0.1245
     75  CA       -10.8480    1.7170  -10.5620 C.3   151  VAL151      0.1561
     76  C         -9.4430    1.9930  -10.0390 C.2   151  VAL151      0.2260
     77  O         -8.9820    3.1270  -10.0820 O.2   151  VAL151     -0.2867
     78  CB       -11.8540    2.1040   -9.4540 C.3   151  VAL151      0.0252
     79  CG1      -13.2770    1.9520   -9.9580 C.3   151  VAL151      0.0019
     80  CG2      -11.6260    1.2470   -8.2130 C.3   151  VAL151      0.0019
@<TRIPOS>BOND
     1    30    29    2
     2    29    28    1
     3    28    27    1
     4    28    31    1
     5    31    32    1
     6    34    32    1
     7    32    33    1
     8    21    20    1
     9    21    22    2
    10    20    23    1
    11    20    19    1
    12    74    75    1
    13    67    65    1
    14    23    24    1
    15    61    62    1
    16    75    76    1
    17    75    78    1
    18    62    65    1
    19    62    63    1
    20     1     2    1
    21    77    76    2
    22    64    63    2
    23    79    78    1
    24    65    66    1
    25    24    25   ar
    26    24    26   ar
    27    63    68   am
    28    78    80    1
    29     2     3    1
    30     2     5    1
    31     3     4    2
    32    68    69    1
    33    70    71    2
    34    70    69    1
    35     5     6    1
    36    69    72    1
    37     7     6   ar
    38     7     9   ar
    39     6     8   ar
    40    46    48   ar
    41    46    44   ar
    42    48    47   ar
    43    72    73    1
    44     9    10   ar
    45     8    10   ar
    46    44    43    1
    47    44    45   ar
    48    43    40    1
    49    47    45   ar
    50    35    36    1
    51    39    40    1
    52    39    37   am
    53    40    41    1
    54    36    37    1
    55    18    17    1
    56    37    38    2
    57    41    49   am
    58    41    42    2
    59    17    16    1
    60    49    50    1
    61    16    15    1
    62    57    58    1
    63    57    51   am
    64    15    12    1
    65    56    54   am
    66    58    59    1
    67    50    53    1
    68    50    51    1
    69    54    55    2
    70    54    53    1
    71    59    60    2
    72    51    52    2
    73    12    11    1
    74    12    13    1
    75    13    14    2
