@<TRIPOS>MOLECULE
tmp/4es0A00.pdb
 227 222 0 0 0
SMALL
GASTEIGER

@<TRIPOS>ATOM
      1  N        -12.5230  -26.5750  -19.8890 N.3    16  LYS16      -0.1231
      2  CA       -13.0920  -27.4420  -18.8730 C.3    16  LYS16       0.1693
      3  C        -14.1200  -26.6170  -18.1300 C.2    16  LYS16       0.2592
      4  O        -14.3490  -25.4620  -18.4860 O.2    16  LYS16      -0.2718
      5  CB       -12.0220  -27.9410  -17.9010 C.3    16  LYS16       0.0285
      6  CG       -11.0190  -28.8960  -18.5220 C.3    16  LYS16       0.0035
      7  CD        -9.8690  -29.1560  -17.5740 C.3    16  LYS16       0.0206
      8  CE        -9.8470  -30.5920  -17.0950 C.3    16  LYS16       0.1093
      9  NZ        -8.4410  -31.0680  -16.9070 N.3    16  LYS16      -0.1314
     10  N        -14.7150  -27.1980  -17.0930 N.am   17  ALA17      -0.1966
     11  CA       -15.7140  -26.5050  -16.2780 C.3    17  ALA17       0.1728
     12  C        -15.2390  -25.1090  -15.8840 C.2    17  ALA17       0.2616
     13  O        -14.0590  -24.9080  -15.5890 O.2    17  ALA17      -0.2715
     14  CB       -16.0280  -27.3160  -15.0320 C.3    17  ALA17       0.0334
     15  N        -16.1480  -24.1420  -15.9070 N.am   18  VAL18      -0.1963
     16  CA       -15.8210  -22.8020  -15.4330 C.3    18  VAL18       0.1727
     17  C        -16.1280  -22.8500  -13.9460 C.2    18  VAL18       0.2616
     18  O        -17.0730  -23.5230  -13.5480 O.2    18  VAL18      -0.2715
     19  CB       -16.6890  -21.7240  -16.1070 C.3    18  VAL18       0.0290
     20  CG1      -16.2600  -20.3320  -15.6430 C.3    18  VAL18       0.0023
     21  CG2      -16.5780  -21.8370  -17.6310 C.3    18  VAL18       0.0023
     22  N        -15.3290  -22.1770  -13.1260 N.am   19  SER19      -0.1950
     23  CA       -15.5140  -22.2880  -11.6710 C.3    19  SER19       0.1924
     24  C        -16.0510  -21.0270  -10.9940 C.2    19  SER19       0.2314
     25  O        -16.7160  -21.1090   -9.9580 O.2    19  SER19      -0.2863
     26  CB       -14.2160  -22.7340  -10.9920 C.3    19  SER19       0.2116
     27  OG       -13.1400  -21.8550  -11.2890 O.3    19  SER19      -0.2180
     28  N        -11.4480  -24.9490  -14.1710 N.3    35  ALA35      -0.1245
     29  CA       -10.7050  -26.1920  -13.9990 C.3    35  ALA35       0.1562
     30  C         -9.5860  -26.3610  -15.0270 C.2    35  ALA35       0.2260
     31  O         -8.7020  -27.1900  -14.8390 O.2    35  ALA35      -0.2867
     32  CB       -11.6550  -27.3720  -14.0790 C.3    35  ALA35       0.0290
     33  N         -2.5150  -26.4560  -11.5890 N.3    58  LEU58      -0.1231
     34  CA        -3.7380  -27.2530  -11.5970 C.3    58  LEU58       0.1693
     35  C         -4.9340  -26.3180  -11.6640 C.2    58  LEU58       0.2593
     36  O         -4.7710  -25.0890  -11.6950 O.2    58  LEU58      -0.2718
     37  CB        -3.8370  -28.1360  -10.3480 C.3    58  LEU58       0.0284
     38  CG        -2.7600  -29.2150  -10.1810 C.3    58  LEU58       0.0019
     39  CD1       -2.8080  -29.8380   -8.7810 C.3    58  LEU58       0.0001
     40  CD2       -2.9180  -30.2880  -11.2350 C.3    58  LEU58       0.0001
     41  N         -6.1300  -26.8970  -11.7000 N.am   59  GLY59      -0.1942
     42  CA        -7.3400  -26.1150  -11.8520 C.3    59  GLY59       0.2014
     43  C         -7.5420  -25.0460  -10.7910 C.2    59  GLY59       0.2639
     44  O         -7.0630  -25.1660   -9.6610 O.2    59  GLY59      -0.2714
     45  N         -8.2840  -24.0070  -11.1640 N.am   60  ILE60      -0.1963
     46  CA        -8.5690  -22.8760  -10.2920 C.3    60  ILE60       0.1727
     47  C        -10.0370  -22.9540   -9.8410 C.2    60  ILE60       0.2617
     48  O        -10.9220  -23.1710  -10.6650 O.2    60  ILE60      -0.2715
     49  CB        -8.3790  -21.5690  -11.0710 C.3    60  ILE60       0.0290
     50  CG1       -6.9890  -21.5240  -11.7270 C.3    60  ILE60       0.0022
     51  CG2       -8.6160  -20.3620  -10.1870 C.3    60  ILE60       0.0023
     52  CD1       -6.7680  -20.2870  -12.5840 C.3    60  ILE60       0.0001
     53  N        -10.2900  -22.7800   -8.5440 N.am   61  SER61      -0.1936
     54  CA       -11.6570  -22.8130   -8.0190 C.3    61  SER61       0.2055
     55  C        -12.2860  -21.4350   -7.8230 C.2    61  SER61       0.2643
     56  O        -13.5040  -21.3270   -7.6440 O.2    61  SER61      -0.2714
     57  CB       -11.7270  -23.6130   -6.7110 C.3    61  SER61       0.2130
     58  OG       -11.4850  -24.9940   -6.9540 O.3    61  SER61      -0.2179
     59  N        -11.4780  -20.3810   -7.8550 N.am   62  ASP62      -0.1971
     60  CA       -11.9980  -19.0450   -7.5250 C.3    62  ASP62       0.1709
     61  C        -11.0490  -17.9540   -7.9940 C.2    62  ASP62       0.2293
     62  O         -9.8500  -18.1720   -8.1300 O.2    62  ASP62      -0.2864
     63  CB       -12.2320  -18.9140   -5.9990 C.3    62  ASP62       0.1436
     64  CG       -13.2580  -17.8260   -5.6330 C.2    62  ASP62       0.3671
     65  OD1      -13.9010  -17.2390   -6.5420 O.co2  62  ASP62      -0.2456
     66  OD2      -13.4410  -17.5630   -4.4160 O.co2  62  ASP62      -0.2456
     67  N         -6.1350  -25.7100   -6.9930 N.3    77  ASP77      -0.1239
     68  CA        -5.8050  -27.0380   -6.4670 C.3    77  ASP77       0.1674
     69  C         -4.2930  -27.2350   -6.2950 C.2    77  ASP77       0.2266
     70  O         -3.8730  -28.1690   -5.6130 O.2    77  ASP77      -0.2867
     71  CB        -6.3030  -28.1400   -7.4180 C.3    77  ASP77       0.1410
     72  CG        -7.7990  -28.4030   -7.3140 C.2    77  ASP77       0.3668
     73  OD1       -8.5300  -27.6150   -6.6760 O.co2  77  ASP77      -0.2456
     74  OD2       -8.2450  -29.4190   -7.8960 O.co2  77  ASP77      -0.2456
     75  N         -5.7480  -27.9960   -1.2320 N.3   101  TYR101     -0.1227
     76  CA        -6.3060  -27.1340   -2.2780 C.3   101  TYR101      0.1736
     77  C         -6.7810  -25.8100   -1.6960 C.2   101  TYR101      0.2595
     78  O         -7.3890  -25.7950   -0.6220 O.2   101  TYR101     -0.2718
     79  CB        -7.5230  -27.7870   -2.9550 C.3   101  TYR101      0.0548
     80  CG        -7.3610  -29.2260   -3.3740 C.ar  101  TYR101     -0.0200
     81  CD1       -6.1790  -29.6810   -3.9410 C.ar  101  TYR101     -0.0009
     82  CD2       -8.4030  -30.1290   -3.2070 C.ar  101  TYR101     -0.0009
     83  CE1       -6.0400  -30.9960   -4.3220 C.ar  101  TYR101      0.0417
     84  CE2       -8.2720  -31.4440   -3.5870 C.ar  101  TYR101      0.0417
     85  CZ        -7.0890  -31.8680   -4.1480 C.ar  101  TYR101      0.1957
     86  OH        -6.9510  -33.1790   -4.5250 O.3   101  TYR101     -0.2866
     87  N         -6.5100  -24.7050   -2.3890 N.am  102  VAL102     -0.1966
     88  CA        -7.1150  -23.4260   -2.0150 C.3   102  VAL102      0.1727
     89  C         -8.4370  -23.2990   -2.7700 C.2   102  VAL102      0.2616
     90  O         -8.4920  -23.4470   -3.9990 O.2   102  VAL102     -0.2715
     91  CB        -6.2190  -22.2300   -2.3450 C.3   102  VAL102      0.0290
     92  CG1       -6.6920  -21.0130   -1.5750 C.3   102  VAL102      0.0023
     93  CG2       -4.7660  -22.5420   -1.9840 C.3   102  VAL102      0.0023
     94  N         -9.5060  -23.0190   -2.0420 N.am  103  PHE103     -0.1960
     95  CA       -10.8390  -23.1370   -2.6130 C.3   103  PHE103      0.1771
     96  C        -11.4990  -21.7980   -2.9120 C.2   103  PHE103      0.2619
     97  O        -12.3110  -21.6860   -3.8390 O.2   103  PHE103     -0.2715
     98  CB       -11.7190  -23.9450   -1.6690 C.3   103  PHE103      0.0574
     99  CG       -12.9960  -24.4300   -2.2940 C.ar  103  PHE103     -0.0200
    100  CD1      -14.1920  -23.7530   -2.0840 C.ar  103  PHE103     -0.0042
    101  CD2      -13.0050  -25.5750   -3.0730 C.ar  103  PHE103     -0.0042
    102  CE1      -15.3650  -24.2030   -2.6530 C.ar  103  PHE103     -0.0003
    103  CE2      -14.1840  -26.0320   -3.6500 C.ar  103  PHE103     -0.0003
    104  CZ       -15.3650  -25.3500   -3.4360 C.ar  103  PHE103     -0.0000
    105  N        -11.1620  -20.7870   -2.1240 N.am  104  CYS104     -0.1968
    106  CA       -11.8890  -19.5320   -2.1790 C.3   104  CYS104      0.1712
    107  C        -10.9690  -18.3850   -1.8100 C.2   104  CYS104      0.2296
    108  O         -9.9950  -18.5830   -1.0940 O.2   104  CYS104     -0.2864
    109  CB       -13.0970  -19.5880   -1.2230 C.3   104  CYS104      0.0983
    110  SG       -12.7000  -20.1520    0.4780 S.3   104  CYS104     -0.0798
    111  N         -8.9680  -26.5890    1.5890 N.3   119  PHE119     -0.1241
    112  CA        -9.2860  -27.9460    2.0250 C.3   119  PHE119      0.1605
    113  C         -8.4970  -28.3650    3.2590 C.2   119  PHE119      0.2264
    114  O         -8.7970  -29.3950    3.8640 O.2   119  PHE119     -0.2867
    115  CB        -9.0490  -28.9410    0.8910 C.3   119  PHE119      0.0534
    116  CG       -10.2860  -29.2450    0.0930 C.ar  119  PHE119     -0.0203
    117  CD1      -11.0380  -28.2190   -0.4460 C.ar  119  PHE119     -0.0042
    118  CD2      -10.7040  -30.5590   -0.1010 C.ar  119  PHE119     -0.0042
    119  CE1      -12.2030  -28.4880   -1.1560 C.ar  119  PHE119     -0.0003
    120  CE2      -11.8560  -30.8430   -0.8190 C.ar  119  PHE119     -0.0003
    121  CZ       -12.6130  -29.8060   -1.3450 C.ar  119  PHE119     -0.0000
    122  N        -15.3010  -23.3360    2.3690 N.3   145  SER145     -0.1217
    123  CA       -15.9570  -23.1330    1.0860 C.3   145  SER145      0.1889
    124  C        -15.9700  -21.6840    0.5930 C.2   145  SER145      0.2288
    125  O        -16.0970  -21.4330   -0.6120 O.2   145  SER145     -0.2866
    126  CB       -17.3920  -23.6700    1.1400 C.3   145  SER145      0.2089
    127  OG       -18.0930  -23.2260    2.3000 O.3   145  SER145     -0.2183
    128  N        -17.7900  -27.0210    4.9920 N.3   161  TYR161     -0.1241
    129  CA       -18.5170  -28.2870    4.9520 C.3   161  TYR161      0.1605
    130  C        -18.8440  -28.7980    6.3590 C.2   161  TYR161      0.2264
    131  O        -19.7020  -29.6650    6.5040 O.2   161  TYR161     -0.2867
    132  CB       -17.7200  -29.3390    4.1800 C.3   161  TYR161      0.0534
    133  CG       -17.8960  -29.2570    2.6780 C.ar  161  TYR161     -0.0201
    134  CD1      -17.2300  -28.2950    1.9260 C.ar  161  TYR161     -0.0009
    135  CD2      -18.7420  -30.1410    2.0120 C.ar  161  TYR161     -0.0009
    136  CE1      -17.3950  -28.2210    0.5370 C.ar  161  TYR161      0.0417
    137  CE2      -18.9130  -30.0700    0.6330 C.ar  161  TYR161      0.0417
    138  CZ       -18.2380  -29.1080   -0.0950 C.ar  161  TYR161      0.1957
    139  OH       -18.4080  -29.0410   -1.4690 O.3   161  TYR161     -0.2866
    140  N        -21.9820  -23.9940    1.9310 N.3   188  SER188     -0.1202
    141  CA       -21.2760  -24.0480    0.6660 C.3   188  SER188      0.2020
    142  C        -20.8620  -22.6810    0.1530 C.2   188  SER188      0.2618
    143  O        -20.0760  -22.5910   -0.7840 O.2   188  SER188     -0.2717
    144  CB       -22.1530  -24.7380   -0.3740 C.3   188  SER188      0.2103
    145  OG       -23.4460  -24.1690   -0.4020 O.3   188  SER188     -0.2182
    146  N        -21.3800  -21.6190    0.7660 N.am  189  PHE189     -0.1975
    147  CA       -21.0350  -20.2620    0.3460 C.3   189  PHE189      0.1639
    148  C        -21.4500  -19.2730    1.4120 C.2   189  PHE189      0.2290
    149  O        -22.4330  -19.4960    2.1110 O.2   189  PHE189     -0.2864
    150  CB       -21.7290  -19.8870   -0.9770 C.3   189  PHE189      0.0560
    151  CG       -21.3960  -18.4940   -1.4420 C.ar  189  PHE189     -0.0200
    152  CD1      -20.1600  -18.2270   -2.0300 C.ar  189  PHE189     -0.0042
    153  CD2      -22.2790  -17.4480   -1.2190 C.ar  189  PHE189     -0.0042
    154  CE1      -19.8240  -16.9410   -2.4180 C.ar  189  PHE189     -0.0003
    155  CE2      -21.9630  -16.1610   -1.6050 C.ar  189  PHE189     -0.0003
    156  CZ       -20.7390  -15.9030   -2.2080 C.ar  189  PHE189     -0.0000
    157  N        -24.9290  -30.3200   -3.8480 N.3   229  LYS229     -0.1231
    158  CA       -23.6460  -30.9300   -4.1650 C.3   229  LYS229      0.1693
    159  C        -22.4880  -29.9600   -4.4060 C.2   229  LYS229      0.2592
    160  O        -21.3690  -30.2090   -3.9610 O.2   229  LYS229     -0.2718
    161  CB       -23.7930  -31.8510   -5.3830 C.3   229  LYS229      0.0285
    162  CG       -22.5460  -32.6820   -5.6120 C.3   229  LYS229      0.0035
    163  CD       -22.5840  -33.4650   -6.9090 C.3   229  LYS229      0.0206
    164  CE       -21.2010  -34.0420   -7.1830 C.3   229  LYS229      0.1093
    165  NZ       -21.1960  -34.9510   -8.3600 N.3   229  LYS229     -0.1314
    166  N        -22.7460  -28.8710   -5.1240 N.am  230  TYR230     -0.1962
    167  CA       -21.6650  -27.9630   -5.5120 C.3   230  TYR230      0.1771
    168  C        -21.6560  -26.6680   -4.7240 C.2   230  TYR230      0.2620
    169  O        -22.6910  -26.2220   -4.2170 O.2   230  TYR230     -0.2715
    170  CB       -21.7460  -27.6440   -7.0010 C.3   230  TYR230      0.0574
    171  CG       -21.6380  -28.8710   -7.8590 C.ar  230  TYR230     -0.0198
    172  CD1      -20.3940  -29.3730   -8.2270 C.ar  230  TYR230     -0.0009
    173  CD2      -22.7750  -29.5390   -8.2930 C.ar  230  TYR230     -0.0009
    174  CE1      -20.2850  -30.5060   -9.0060 C.ar  230  TYR230      0.0417
    175  CE2      -22.6750  -30.6720   -9.0810 C.ar  230  TYR230      0.0417
    176  CZ       -21.4270  -31.1470   -9.4330 C.ar  230  TYR230      0.1957
    177  OH       -21.3130  -32.2770  -10.2110 O.3   230  TYR230     -0.2866
    178  N        -20.4800  -26.0560   -4.6240 N.am  231  CYS231     -0.1954
    179  CA       -20.3790  -24.7850   -3.9170 C.3   231  CYS231      0.1843
    180  C        -20.7200  -23.6500   -4.8740 C.2   231  CYS231      0.2625
    181  O        -19.8570  -23.0880   -5.5500 O.2   231  CYS231     -0.2714
    182  CB       -19.0040  -24.6260   -3.2690 C.3   231  CYS231      0.0997
    183  SG       -18.7990  -25.7560   -1.8620 S.3   231  CYS231     -0.0797
    184  N        -22.0170  -23.3600   -4.9470 N.am  232  ILE232     -0.1963
    185  CA       -22.5430  -22.3550   -5.8520 C.3   232  ILE232      0.1727
    186  C        -22.5270  -20.9580   -5.2200 C.2   232  ILE232      0.2616
    187  O        -22.9590  -20.7830   -4.0730 O.2   232  ILE232     -0.2715
    188  CB       -23.9890  -22.7180   -6.2570 C.3   232  ILE232      0.0290
    189  CG1      -24.0270  -24.1090   -6.9160 C.3   232  ILE232      0.0022
    190  CG2      -24.5720  -21.6580   -7.1880 C.3   232  ILE232      0.0023
    191  CD1      -25.4030  -24.5070   -7.4820 C.3   232  ILE232      0.0001
    192  N        -22.0420  -19.9640   -5.9650 N.am  233  PHE233     -0.1974
    193  CA       -22.0110  -18.5900   -5.4690 C.3   233  PHE233      0.1639
    194  C        -23.4220  -18.0150   -5.3930 C.2   233  PHE233      0.2290
    195  O        -24.3290  -18.4860   -6.0760 O.2   233  PHE233     -0.2864
    196  CB       -21.1770  -17.7040   -6.3960 C.3   233  PHE233      0.0560
    197  CG       -19.7040  -18.0190   -6.4060 C.ar  233  PHE233     -0.0200
    198  CD1      -19.2070  -19.0750   -7.1560 C.ar  233  PHE233     -0.0042
    199  CD2      -18.8100  -17.2260   -5.6930 C.ar  233  PHE233     -0.0042
    200  CE1      -17.8350  -19.3490   -7.1840 C.ar  233  PHE233     -0.0003
    201  CE2      -17.4490  -17.4910   -5.7170 C.ar  233  PHE233     -0.0003
    202  CZ       -16.9590  -18.5500   -6.4690 C.ar  233  PHE233     -0.0000
    203  N        -22.5990  -22.9160  -11.6930 N.3   275  ILE275     -0.1245
    204  CA       -21.7730  -22.9190  -10.4990 C.3   275  ILE275      0.1561
    205  C        -21.5920  -21.5100   -9.9330 C.2   275  ILE275      0.2260
    206  O        -21.3220  -21.3350   -8.7490 O.2   275  ILE275     -0.2867
    207  CB       -20.3830  -23.5450  -10.7950 C.3   275  ILE275      0.0252
    208  CG1      -19.6020  -23.7970   -9.4980 C.3   275  ILE275      0.0019
    209  CG2      -19.5920  -22.6750  -11.7810 C.3   275  ILE275      0.0019
    210  CD1      -20.1330  -24.9530   -8.6660 C.3   275  ILE275      0.0001
    211  N        -20.7150  -25.7450  -15.4020 N.3   291  LEU291     -0.1231
    212  CA       -19.7040  -26.7980  -15.2760 C.3   291  LEU291      0.1693
    213  C        -19.3400  -27.5260  -16.5880 C.2   291  LEU291      0.2591
    214  O        -19.5780  -27.0070  -17.6820 O.2   291  LEU291     -0.2718
    215  CB       -20.1190  -27.7840  -14.1810 C.3   291  LEU291      0.0284
    216  CG       -20.2160  -27.1240  -12.7920 C.3   291  LEU291      0.0019
    217  CD1      -20.5900  -28.1270  -11.7080 C.3   291  LEU291      0.0001
    218  CD2      -18.8980  -26.4410  -12.4320 C.3   291  LEU291      0.0001
    219  N        -18.7700  -28.7280  -16.4590 N.am  292  GLU292     -0.1979
    220  CA       -18.0280  -29.3950  -17.5500 C.3   292  GLU292      0.1602
    221  C        -18.8050  -29.7170  -18.8380 C.2   292  GLU292      0.2287
    222  O        -18.2450  -29.6620  -19.9380 O.2   292  GLU292     -0.2864
    223  CB       -17.3510  -30.6720  -17.0150 C.3   292  GLU292      0.0415
    224  CG       -16.3280  -31.2970  -17.9510 C.3   292  GLU292      0.1163
    225  CD       -14.9020  -30.7740  -17.7620 C.2   292  GLU292      0.3649
    226  OE1      -14.5980  -30.1120  -16.7330 O.co2 292  GLU292     -0.2457
    227  OE2      -14.0700  -31.0610  -18.6490 O.co2 292  GLU292     -0.2457
@<TRIPOS>BOND
     1   222   221    2
     2     1     2    1
     3     2     3    1
     4     2     5    1
     5   221   220    1
     6   227   225   ar
     7     6     5    1
     8     6     7    1
     9     4     3    2
    10     3    10   am
    11   224   225    1
    12   224   223    1
    13   225   226   ar
    14   214   213    2
    15    21    19    1
    16     7     8    1
    17   220   223    1
    18   220   219    1
    19     8     9    1
    20    10    11    1
    21   213   219   am
    22   213   212    1
    23    11    12    1
    24    11    14    1
    25    19    20    1
    26    19    16    1
    27    15    12   am
    28    15    16    1
    29    12    13    2
    30    16    17    1
    31   211   212    1
    32   212   215    1
    33    30    31    2
    34    30    29    1
    35   215   216    1
    36    28    29    1
    37    32    29    1
    38    17    18    2
    39    17    22   am
    40    22    23    1
    41   216   218    1
    42   216   217    1
    43    52    50    1
    44    42    41    1
    45    42    43    1
    46   209   207    1
    47    50    49    1
    48    41    35   am
    49    36    35    2
    50   203   204    1
    51    23    24    1
    52    23    26    1
    53    35    34    1
    54    34    33    1
    55    34    37    1
    56    27    26    1
    57    40    38    1
    58    45    43   am
    59    45    46    1
    60    49    46    1
    61    49    51    1
    62    24    25    2
    63   207   204    1
    64   207   208    1
    65    43    44    2
    66    48    47    2
    67   204   205    1
    68    37    38    1
    69    46    47    1
    70   177   176    1
    71    38    39    1
    72   205   206    2
    73    47    53   am
    74   208   210    1
    75   176   175   ar
    76   176   174   ar
    77   175   173   ar
    78   174   172   ar
    79    53    54    1
    80   165   164    1
    81   173   171   ar
    82   172   171   ar
    83    62    61    2
    84    54    55    1
    85    54    57    1
    86    61    60    1
    87    74    72   ar
    88   171   170    1
    89    59    55   am
    90    59    60    1
    91    55    56    2
    92    60    63    1
    93   191   189    1
    94    71    72    1
    95    71    68    1
    96    72    73   ar
    97   190   188    1
    98   200   198   ar
    99   200   202   ar
   100   164   163    1
   101   198   197   ar
   102   170   167    1
   103    67    68    1
   104    58    57    1
   105   189   188    1
   106   163   162    1
   107    65    64   ar
   108   202   201   ar
   109    68    69    1
   110   197   196    1
   111   197   199   ar
   112   196   193    1
   113    69    70    2
   114   188   185    1
   115   195   194    2
   116    63    64    1
   117   192   193    1
   118   192   186   am
   119   185   186    1
   120   185   184    1
   121   201   199   ar
   122    64    66   ar
   123   162   161    1
   124   181   180    2
   125   167   166    1
   126   167   168    1
   127   193   194    1
   128   161   158    1
   129   186   187    2
   130   166   159   am
   131   184   180   am
   132   180   179    1
   133   168   178   am
   134   168   169    2
   135   178   179    1
   136    86    85    1
   137   159   158    1
   138   159   160    2
   139    83    85   ar
   140    83    81   ar
   141   158   157    1
   142    85    84   ar
   143    90    89    2
   144    81    80   ar
   145   179   182    1
   146    97    96    2
   147   103   104   ar
   148   103   101   ar
   149    84    82   ar
   150   104   102   ar
   151    80    82   ar
   152    80    79    1
   153   182   183    1
   154   101    99   ar
   155    79    76    1
   156    96    95    1
   157    96   105   am
   158    89    94   am
   159    89    88    1
   160   102   100   ar
   161    95    94    1
   162    95    98    1
   163   154   156   ar
   164   154   152   ar
   165    87    88    1
   166    87    77   am
   167    91    88    1
   168    91    93    1
   169    91    92    1
   170    99   100   ar
   171    99    98    1
   172    76    77    1
   173    76    75    1
   174   156   155   ar
   175   106   105    1
   176   106   107    1
   177   106   109    1
   178   152   151   ar
   179   107   108    2
   180    77    78    2
   181   155   153   ar
   182   139   138    1
   183   151   153   ar
   184   151   150    1
   185   121   119   ar
   186   121   120   ar
   187   109   110    1
   188   119   117   ar
   189   150   147    1
   190   120   118   ar
   191   143   142    2
   192   125   124    2
   193   117   116   ar
   194   145   144    1
   195   144   141    1
   196   118   116   ar
   197   138   136   ar
   198   138   137   ar
   199   116   115    1
   200   142   141    1
   201   142   146   am
   202   147   146    1
   203   147   148    1
   204   136   134   ar
   205   124   123    1
   206   137   135   ar
   207   141   140    1
   208   115   112    1
   209   123   126    1
   210   123   122    1
   211   126   127    1
   212   148   149    2
   213   111   112    1
   214   134   133   ar
   215   135   133   ar
   216   112   113    1
   217   133   132    1
   218   113   114    2
   219   132   129    1
   220   129   128    1
   221   129   130    1
   222   130   131    2
