@<TRIPOS>MOLECULE
tmp/4esaD00.pdb
 215 204 0 0 0
SMALL
GASTEIGER

@<TRIPOS>ATOM
      1  N        -13.8130   22.1210  -54.0430 N.3    28  LEU28      -0.1245
      2  CA       -15.1590   22.3290  -53.5020 C.3    28  LEU28       0.1561
      3  C        -16.1770   21.4020  -54.1640 C.2    28  LEU28       0.2260
      4  O        -17.0480   20.8300  -53.4750 O.2    28  LEU28      -0.2867
      5  CB       -15.5480   23.8130  -53.6340 C.3    28  LEU28       0.0270
      6  CG       -16.9270   24.1110  -52.9960 C.3    28  LEU28       0.0019
      7  CD1      -16.9710   23.6790  -51.5280 C.3    28  LEU28       0.0001
      8  CD2      -17.2800   25.5750  -53.1200 C.3    28  LEU28       0.0001
      9  N        -15.9160   18.0570  -52.4970 N.3    31  CYS31      -0.1235
     10  CA       -16.5260   18.0300  -51.1670 C.3    31  CYS31       0.1677
     11  C        -18.0390   17.9080  -51.3050 C.2    31  CYS31       0.2270
     12  O        -18.6520   17.0930  -50.5950 O.2    31  CYS31      -0.2867
     13  CB       -16.0920   19.2830  -50.4190 C.3    31  CYS31       0.0956
     14  SG       -16.6910   19.2480  -48.6710 S.3    31  CYS31      -0.0801
     15  N        -23.0330   18.4900  -47.2170 N.3    38  THR38      -0.1218
     16  CA       -22.5270   19.8560  -47.2040 C.3    38  THR38       0.1862
     17  C        -23.3020   20.7280  -48.1870 C.2    38  THR38       0.2287
     18  O        -23.2720   21.9570  -48.0790 O.2    38  THR38      -0.2866
     19  CB       -21.0010   19.9240  -47.5160 C.3    38  THR38       0.1770
     20  OG1      -20.7240   19.2650  -48.7410 O.3    38  THR38      -0.2211
     21  CG2      -20.2320   19.2290  -46.3890 C.3    38  THR38       0.0375
     22  N        -25.5730   23.7010  -47.1280 N.3    41  HIS41      -0.1226
     23  CA       -25.1320   25.0700  -46.8430 C.3    41  HIS41       0.1752
     24  C        -25.0130   25.9260  -48.0850 C.2    41  HIS41       0.2596
     25  O        -24.6250   27.1000  -48.0170 O.2    41  HIS41      -0.2718
     26  CB       -23.7890   24.9920  -46.0850 C.3    41  HIS41       0.0759
     27  CG       -23.9680   24.2940  -44.7570 C.ar   41  HIS41       0.0818
     28  ND1      -24.7020   24.8300  -43.7120 N.ar   41  HIS41      -0.2268
     29  CD2      -23.5490   23.0700  -44.3550 C.ar   41  HIS41       0.1154
     30  CE1      -24.6840   23.9570  -42.7200 C.ar   41  HIS41       0.1986
     31  NE2      -23.9880   22.8830  -43.0560 N.ar   41  HIS41      -0.2212
     32  N        -25.3280   25.3580  -49.2570 N.am   42  PHE42      -0.1976
     33  CA       -25.1630   26.0660  -50.5270 C.3    42  PHE42       0.1639
     34  C        -26.4770   26.2770  -51.2370 C.2    42  PHE42       0.2290
     35  O        -26.5960   26.1120  -52.4560 O.2    42  PHE42      -0.2864
     36  CB       -24.1700   25.2700  -51.4170 C.3    42  PHE42       0.0560
     37  CG       -22.7490   25.3970  -50.8940 C.ar   42  PHE42      -0.0200
     38  CD1      -22.2130   24.5290  -49.9640 C.ar   42  PHE42      -0.0042
     39  CD2      -21.9160   26.4130  -51.3520 C.ar   42  PHE42      -0.0042
     40  CE1      -20.9150   24.6430  -49.5050 C.ar   42  PHE42      -0.0003
     41  CE2      -20.6180   26.5630  -50.8830 C.ar   42  PHE42      -0.0003
     42  CZ       -20.1160   25.6940  -49.9270 C.ar   42  PHE42      -0.0000
     43  N        -26.9080   28.4150  -54.3590 N.3    45  PHE45      -0.1241
     44  CA       -25.8780   28.3060  -55.3730 C.3    45  PHE45       0.1605
     45  C        -26.3020   27.5460  -56.6210 C.2    45  PHE45       0.2264
     46  O        -25.4690   27.1910  -57.4640 O.2    45  PHE45      -0.2867
     47  CB       -24.6560   27.6180  -54.7470 C.3    45  PHE45       0.0534
     48  CG       -23.8200   28.5290  -53.8720 C.ar   45  PHE45      -0.0203
     49  CD1      -24.3310   28.9000  -52.6300 C.ar   45  PHE45      -0.0042
     50  CD2      -22.5740   29.0170  -54.2020 C.ar   45  PHE45      -0.0042
     51  CE1      -23.6210   29.7210  -51.7580 C.ar   45  PHE45      -0.0003
     52  CE2      -21.8480   29.8420  -53.3530 C.ar   45  PHE45      -0.0003
     53  CZ       -22.3780   30.2030  -52.1250 C.ar   45  PHE45      -0.0000
     54  N        -16.9950   30.0930  -55.9710 N.3    63  HIS63      -0.1241
     55  CA       -16.8300   30.0130  -54.5180 C.3    63  HIS63       0.1621
     56  C        -15.5720   29.2370  -54.1350 C.2    63  HIS63       0.2264
     57  O        -14.8470   29.6520  -53.2150 O.2    63  HIS63      -0.2867
     58  CB       -18.0710   29.3800  -53.8700 C.3    63  HIS63       0.0745
     59  CG       -18.0480   29.7050  -52.4150 C.ar   63  HIS63       0.0817
     60  ND1      -18.3900   30.9700  -51.9650 N.ar   63  HIS63      -0.2268
     61  CD2      -17.6960   28.9490  -51.3500 C.ar   63  HIS63       0.1154
     62  CE1      -18.2520   30.9490  -50.6530 C.ar   63  HIS63       0.1986
     63  NE2      -17.8390   29.7500  -50.2430 N.ar   63  HIS63      -0.2212
     64  N        -12.6720   31.5100  -54.3560 N.3    66  LYS66      -0.1231
     65  CA       -12.6840   32.3610  -53.1790 C.3    66  LYS66       0.1693
     66  C        -12.0930   31.6440  -51.9650 C.2    66  LYS66       0.2591
     67  O        -11.3720   32.3320  -51.2290 O.2    66  LYS66      -0.2718
     68  CB       -14.0960   32.8070  -52.7540 C.3    66  LYS66       0.0285
     69  CG       -14.7090   33.8360  -53.6940 C.3    66  LYS66       0.0035
     70  CD       -16.1400   34.1630  -53.2350 C.3    66  LYS66       0.0206
     71  CE       -16.8570   35.0370  -54.2540 C.3    66  LYS66       0.1093
     72  NZ       -18.2360   35.4650  -53.8490 N.3    66  LYS66      -0.1314
     73  N        -12.4160   30.3560  -51.8100 N.am   67  VAL67      -0.1980
     74  CA       -11.7880   29.5910  -50.7290 C.3    67  VAL67       0.1595
     75  C        -10.2690   29.5860  -50.8450 C.2    67  VAL67       0.2287
     76  O         -9.5630   29.7560  -49.8530 O.2    67  VAL67      -0.2864
     77  CB       -12.2610   28.1210  -50.7220 C.3    67  VAL67       0.0276
     78  CG1      -11.5040   27.3260  -49.6700 C.3    67  VAL67       0.0022
     79  CG2      -13.7640   28.0550  -50.4790 C.3    67  VAL67       0.0022
     80  N         -8.8410   32.7750  -49.8810 N.3    70  GLY70      -0.1210
     81  CA        -8.8760   32.8640  -48.4350 C.3    70  GLY70       0.1956
     82  C         -7.7310   32.1320  -47.7680 C.2    70  GLY70       0.2611
     83  O         -7.1870   32.6390  -46.7700 O.2    70  GLY70      -0.2717
     84  N         -7.3620   30.9670  -48.3110 N.am   71  LEU71      -0.1979
     85  CA        -6.2260   30.2180  -47.7770 C.3    71  LEU71       0.1596
     86  C         -4.9360   30.9840  -48.0480 C.2    71  LEU71       0.2287
     87  O         -4.0080   30.8910  -47.2630 O.2    71  LEU71      -0.2864
     88  CB        -6.1070   28.8190  -48.3930 C.3    71  LEU71       0.0297
     89  CG        -7.2090   27.8470  -47.9200 C.3    71  LEU71       0.0022
     90  CD1       -7.2670   26.5920  -48.7840 C.3    71  LEU71       0.0001
     91  CD2       -6.9600   27.4720  -46.4680 C.3    71  LEU71       0.0001
     92  N         -8.5580   34.4470  -39.4710 N.3    85  TYR85      -0.1241
     93  CA        -9.8230   33.7850  -39.7540 C.3    85  TYR85       0.1605
     94  C        -10.8960   33.9660  -38.6850 C.2    85  TYR85       0.2264
     95  O        -11.8940   33.2430  -38.7240 O.2    85  TYR85      -0.2867
     96  CB        -9.6030   32.2650  -39.9180 C.3    85  TYR85       0.0534
     97  CG        -8.8620   31.9660  -41.2080 C.ar   85  TYR85      -0.0201
     98  CD1       -7.7360   31.1630  -41.1860 C.ar   85  TYR85      -0.0009
     99  CD2       -9.2810   32.4960  -42.4210 C.ar   85  TYR85      -0.0009
    100  CE1       -7.0810   30.9190  -42.3770 C.ar   85  TYR85       0.0417
    101  CE2       -8.6180   32.2360  -43.6140 C.ar   85  TYR85       0.0417
    102  CZ        -7.5100   31.4350  -43.5680 C.ar   85  TYR85       0.1957
    103  OH        -6.7780   31.1170  -44.7040 O.3    85  TYR85      -0.2866
    104  N        -14.1130   34.7680  -40.4840 N.3    88  LEU88      -0.1245
    105  CA       -14.5890   33.6000  -41.2330 C.3    88  LEU88       0.1561
    106  C        -15.1470   32.5220  -40.3260 C.2    88  LEU88       0.2260
    107  O        -16.0840   31.8000  -40.6470 O.2    88  LEU88      -0.2867
    108  CB       -13.4330   33.0440  -42.0760 C.3    88  LEU88       0.0270
    109  CG       -13.2250   33.7540  -43.4160 C.3    88  LEU88       0.0019
    110  CD1      -12.0320   33.1270  -44.1270 C.3    88  LEU88       0.0001
    111  CD2      -14.4560   33.6960  -44.2830 C.3    88  LEU88       0.0001
    112  N        -18.6130   33.5540  -39.6020 N.3    91  LEU91      -0.1231
    113  CA       -19.4380   33.3360  -40.7930 C.3    91  LEU91       0.1693
    114  C        -19.9200   31.8940  -40.8530 C.2    91  LEU91       0.2592
    115  O        -21.1250   31.6670  -41.0450 O.2    91  LEU91      -0.2718
    116  CB       -18.6120   33.6540  -42.0430 C.3    91  LEU91       0.0284
    117  CG       -19.3520   33.4490  -43.3680 C.3    91  LEU91       0.0019
    118  CD1      -20.4860   34.4500  -43.4920 C.3    91  LEU91       0.0001
    119  CD2      -18.3510   33.5640  -44.5160 C.3    91  LEU91       0.0001
    120  N        -18.9790   30.9550  -40.6600 N.am   92  HIS92      -0.1976
    121  CA       -19.3360   29.5440  -40.8090 C.3    92  HIS92       0.1656
    122  C        -20.1810   29.0620  -39.6400 C.2    92  HIS92       0.2291
    123  O        -21.0690   28.2070  -39.8020 O.2    92  HIS92      -0.2864
    124  CB       -18.1000   28.6660  -40.9880 C.3    92  HIS92       0.0771
    125  CG       -17.4400   28.8190  -42.3440 C.ar   92  HIS92       0.0820
    126  ND1      -16.5510   29.8310  -42.6230 N.ar   92  HIS92      -0.2267
    127  CD2      -17.4860   28.0850  -43.4940 C.ar   92  HIS92       0.1154
    128  CE1      -16.0990   29.7380  -43.8850 C.ar   92  HIS92       0.1986
    129  NE2      -16.6700   28.6830  -44.4280 N.ar   92  HIS92      -0.2212
    130  N        -23.7480   32.1460  -39.6370 N.3    95  LYS95      -0.1231
    131  CA       -24.6690   32.1820  -40.7760 C.3    95  LYS95       0.1693
    132  C        -25.1280   30.7760  -41.1410 C.2    95  LYS95       0.2591
    133  O        -26.3100   30.5220  -41.3550 O.2    95  LYS95      -0.2718
    134  CB       -23.9630   32.8400  -41.9730 C.3    95  LYS95       0.0285
    135  CG       -24.9570   33.1010  -43.1160 C.3    95  LYS95       0.0035
    136  CD       -24.3610   34.0390  -44.1540 C.3    95  LYS95       0.0206
    137  CE       -25.3370   34.1760  -45.3190 C.3    95  LYS95       0.1093
    138  NZ       -24.8050   35.1380  -46.3290 N.3    95  LYS95      -0.1314
    139  N        -24.1670   29.8520  -41.2340 N.am   96  LEU96      -0.1980
    140  CA       -24.3440   28.5560  -41.8520 C.3    96  LEU96       0.1596
    141  C        -24.5780   27.4660  -40.8290 C.2    96  LEU96       0.2287
    142  O        -25.1730   26.4560  -41.1860 O.2    96  LEU96      -0.2864
    143  CB       -23.1090   28.1190  -42.6380 C.3    96  LEU96       0.0297
    144  CG       -22.5940   29.0980  -43.6670 C.3    96  LEU96       0.0022
    145  CD1      -21.3580   28.4910  -44.3440 C.3    96  LEU96       0.0001
    146  CD2      -23.6520   29.4650  -44.6910 C.3    96  LEU96       0.0001
    147  N        -22.4110   25.3760  -39.7680 N.3    98  VAL98      -0.1245
    148  CA       -21.7200   24.1880  -40.2490 C.3    98  VAL98       0.1561
    149  C        -20.9610   23.4610  -39.1320 C.2    98  VAL98       0.2260
    150  O        -20.1720   24.0770  -38.4010 O.2    98  VAL98      -0.2867
    151  CB       -20.6030   24.4470  -41.2850 C.3    98  VAL98       0.0252
    152  CG1      -20.3770   23.1150  -42.0170 C.3    98  VAL98       0.0019
    153  CG2      -20.8700   25.5450  -42.2680 C.3    98  VAL98       0.0019
    154  N        -16.8980   19.1920  -40.6730 N.3   102  ASN102     -0.1225
    155  CA       -16.8230   19.3130  -42.1190 C.3   102  ASN102      0.1785
    156  C        -15.6180   20.1040  -42.6100 C.2   102  ASN102      0.2597
    157  O        -15.2820   19.9980  -43.8020 O.2   102  ASN102     -0.2718
    158  CB       -18.1110   20.0070  -42.6110 C.3   102  ASN102      0.1169
    159  CG       -19.3200   19.1800  -42.2000 C.2   102  ASN102      0.2627
    160  OD1      -20.2320   19.6320  -41.4820 O.2   102  ASN102     -0.2716
    161  ND2      -19.3060   17.9650  -42.7090 N.am  102  ASN102     -0.0877
    162  N        -14.9870   20.9390  -41.7910 N.am  103  PHE103     -0.1976
    163  CA       -13.8110   21.6670  -42.2680 C.3   103  PHE103      0.1639
    164  C        -12.7160   20.6740  -42.6240 C.2   103  PHE103      0.2290
    165  O        -12.0170   20.9220  -43.6210 O.2   103  PHE103     -0.2864
    166  CB       -13.2800   22.6230  -41.2010 C.3   103  PHE103      0.0560
    167  CG       -14.2930   23.7000  -40.7710 C.ar  103  PHE103     -0.0200
    168  CD1      -14.3290   24.0570  -39.4290 C.ar  103  PHE103     -0.0042
    169  CD2      -15.1370   24.3320  -41.6530 C.ar  103  PHE103     -0.0042
    170  CE1      -15.1830   25.0480  -38.9660 C.ar  103  PHE103     -0.0003
    171  CE2      -16.0230   25.2960  -41.1890 C.ar  103  PHE103     -0.0003
    172  CZ       -16.0740   25.6310  -39.8520 C.ar  103  PHE103     -0.0000
    173  N        -13.4620   19.2030  -46.1890 N.3   106  LEU106     -0.1231
    174  CA       -13.0710   20.0330  -47.3280 C.3   106  LEU106      0.1693
    175  C        -11.5470   20.0690  -47.4250 C.2   106  LEU106      0.2591
    176  O        -11.0400   19.9770  -48.5410 O.2   106  LEU106     -0.2718
    177  CB       -13.6420   21.4490  -47.2160 C.3   106  LEU106      0.0284
    178  CG       -13.2730   22.4120  -48.3470 C.3   106  LEU106      0.0019
    179  CD1      -13.6930   21.8710  -49.7260 C.3   106  LEU106      0.0001
    180  CD2      -13.9460   23.7750  -48.1490 C.3   106  LEU106      0.0001
    181  N        -10.8340   20.1960  -46.3060 N.am  107  ALA107     -0.1980
    182  CA        -9.3660   20.1230  -46.3700 C.3   107  ALA107      0.1597
    183  C         -8.8960   18.8120  -46.9820 C.2   107  ALA107      0.2287
    184  O         -7.9800   18.7810  -47.8090 O.2   107  ALA107     -0.2864
    185  CB        -8.7710   20.2680  -44.9700 C.3   107  ALA107      0.0319
    186  N         -2.9440   22.9650  -42.8150 N.3   134  LEU134     -0.1245
    187  CA        -4.4090   22.8630  -42.9090 C.3   134  LEU134      0.1561
    188  C         -5.0150   22.6240  -41.5300 C.2   134  LEU134      0.2260
    189  O         -6.1190   23.1340  -41.2710 O.2   134  LEU134     -0.2867
    190  CB        -4.8650   21.7580  -43.8650 C.3   134  LEU134      0.0270
    191  CG        -4.5600   21.9580  -45.3550 C.3   134  LEU134      0.0019
    192  CD1       -4.9140   20.7090  -46.1540 C.3   134  LEU134      0.0001
    193  CD2       -5.3000   23.1720  -45.9110 C.3   134  LEU134      0.0001
    194  N         -5.2990   25.9410  -39.8920 N.3   137  VAL137     -0.1231
    195  CA        -6.4230   26.6420  -40.4990 C.3   137  VAL137      0.1692
    196  C         -7.7470   26.0920  -40.0000 C.2   137  VAL137      0.2591
    197  O         -8.6000   26.9000  -39.6030 O.2   137  VAL137     -0.2718
    198  CB        -6.3800   26.5290  -42.0400 C.3   137  VAL137      0.0266
    199  CG1       -7.6980   26.9850  -42.6270 C.3   137  VAL137      0.0020
    200  CG2       -5.2130   27.3560  -42.5550 C.3   137  VAL137      0.0020
    201  N         -7.9490   24.7810  -40.0030 N.am  138  VAL138     -0.1980
    202  CA        -9.2060   24.2210  -39.5080 C.3   138  VAL138      0.1595
    203  C         -9.4530   24.5600  -38.0390 C.2   138  VAL138      0.2287
    204  O        -10.5930   24.8280  -37.6300 O.2   138  VAL138     -0.2864
    205  CB        -9.1710   22.6930  -39.7750 C.3   138  VAL138      0.0276
    206  CG1      -10.1820   21.9480  -38.9200 C.3   138  VAL138      0.0022
    207  CG2       -9.3660   22.4720  -41.2760 C.3   138  VAL138      0.0022
    208  N        -10.6760   28.0860  -37.8260 N.3   141  LEU141     -0.1245
    209  CA       -12.0650   28.1920  -38.2860 C.3   141  LEU141      0.1561
    210  C        -13.0660   27.6690  -37.2750 C.2   141  LEU141      0.2260
    211  O        -14.2490   28.0280  -37.2730 O.2   141  LEU141     -0.2867
    212  CB       -12.2740   27.3960  -39.5750 C.3   141  LEU141      0.0270
    213  CG       -11.7800   28.0190  -40.8780 C.3   141  LEU141      0.0019
    214  CD1      -11.8790   26.9660  -41.9800 C.3   141  LEU141      0.0001
    215  CD2      -12.5630   29.2760  -41.2270 C.3   141  LEU141      0.0001
@<TRIPOS>BOND
     1    46    45    2
     2    45    44    1
     3    54    55    1
     4    44    47    1
     5    44    43    1
     6    47    48    1
     7    55    56    1
     8    55    58    1
     9    64    65    1
    10    71    72    1
    11    71    70    1
    12    50    48   ar
    13    50    52   ar
    14     3     2    1
    15     3     4    2
    16    56    57    2
    17     1     2    1
    18    48    49   ar
    19    58    59    1
    20    69    70    1
    21    69    68    1
    22     5     2    1
    23     5     6    1
    24    52    53   ar
    25    65    68    1
    26    65    66    1
    27     8     6    1
    28     6     7    1
    29    49    51   ar
    30     9    10    1
    31    35    34    2
    32    59    60   ar
    33    59    61   ar
    34    53    51   ar
    35    60    62   ar
    36    66    73   am
    37    66    67    2
    38    73    74    1
    39    36    37    1
    40    36    33    1
    41    39    37   ar
    42    39    41   ar
    43    61    63   ar
    44    11    10    1
    45    11    12    2
    46    34    33    1
    47    10    13    1
    48    37    38   ar
    49    41    42   ar
    50    75    74    1
    51    75    76    2
    52    74    77    1
    53    77    79    1
    54    77    78    1
    55    62    63   ar
    56    33    32    1
    57    13    14    1
    58    38    40   ar
    59    42    40   ar
    60    80    81    1
    61   179   178    1
    62    32    24   am
    63    90    89    1
    64    20    19    1
    65   176   175    2
    66    81    82    1
    67    88    89    1
    68    88    85    1
    69   178   180    1
    70   178   177    1
    71    84    85    1
    72    84    82   am
    73    17    18    2
    74    17    16    1
    75    24    25    2
    76    24    23    1
    77    86    85    1
    78    86    87    2
    79    89    91    1
    80   184   183    2
    81    82    83    2
    82    19    16    1
    83    19    21    1
    84   175   174    1
    85   175   181   am
    86   174   177    1
    87   174   173    1
    88    15    16    1
    89    22    23    1
    90   183   182    1
    91    23    26    1
    92   182   181    1
    93   182   185    1
    94   138   137    1
    95   192   191    1
    96    26    27    1
    97   193   191    1
    98   191   190    1
    99   137   136    1
   100    27    29   ar
   101    27    28   ar
   102   103   102    1
   103   146   144    1
   104   119   117    1
   105   129   128   ar
   106   129   127   ar
   107    29    31   ar
   108   145   144    1
   109   111   109    1
   110   136   135    1
   111   110   109    1
   112   128   126   ar
   113   190   187    1
   114   157   156    2
   115    28    30   ar
   116   144   143    1
   117   165   164    2
   118   101   102   ar
   119   101    99   ar
   120   102   100   ar
   121   127   125   ar
   122   118   117    1
   123   109   108    1
   124   117   116    1
   125   135   134    1
   126    31    30   ar
   127   187   186    1
   128   187   188    1
   129   161   159   am
   130   143   140    1
   131   199   198    1
   132   164   163    1
   133   126   125   ar
   134   158   159    1
   135   158   155    1
   136   156   155    1
   137   156   162   am
   138   200   198    1
   139    99    97   ar
   140   100    98   ar
   141   125   124    1
   142   163   162    1
   143   163   166    1
   144   153   151    1
   145   159   160    2
   146   155   154    1
   147   108   105    1
   148   116   113    1
   149   198   195    1
   150   152   151    1
   151   214   213    1
   152   134   131    1
   153   140   139    1
   154   140   141    1
   155   169   171   ar
   156   169   167   ar
   157   188   189    2
   158   133   132    2
   159   151   148    1
   160   207   205    1
   161   139   132   am
   162   105   104    1
   163   105   106    1
   164   215   213    1
   165    97    98   ar
   166    97    96    1
   167   166   167    1
   168   171   172   ar
   169   142   141    2
   170   132   131    1
   171   115   114    2
   172   124   121    1
   173   213   212    1
   174   114   113    1
   175   114   120   am
   176   121   120    1
   177   121   122    1
   178   113   112    1
   179   131   130    1
   180   167   168   ar
   181   107   106    2
   182   195   196    1
   183   195   194    1
   184   148   147    1
   185   148   149    1
   186   201   196   am
   187   201   202    1
   188   196   197    2
   189    96    93    1
   190   172   170   ar
   191   123   122    2
   192   205   202    1
   193   205   206    1
   194    93    92    1
   195    93    94    1
   196   212   209    1
   197   202   203    1
   198   168   170   ar
   199   149   150    2
   200    95    94    2
   201   209   208    1
   202   209   210    1
   203   203   204    2
   204   210   211    2
