@<TRIPOS>MOLECULE
tmp/4eseA01.pdb
 128 126 0 0 0
SMALL
GASTEIGER

@<TRIPOS>ATOM
      1  N        -10.9560  -19.0690    8.7270 N.3    11  SER11      -0.1202
      2  CA       -11.8190  -19.2150    9.9050 C.3    11  SER11       0.2020
      3  C        -11.8390  -20.6370   10.4390 C.2    11  SER11       0.2619
      4  O        -11.7360  -21.5960    9.6780 O.2    11  SER11      -0.2717
      5  CB       -13.2560  -18.7820    9.5860 C.3    11  SER11       0.2103
      6  OG       -14.1540  -19.0650   10.6620 O.3    11  SER11      -0.2182
      7  N        -12.0110  -20.7650   11.7520 N.am   12  ILE12      -0.1965
      8  CA       -12.1800  -22.0800   12.3590 C.3    12  ILE12       0.1727
      9  C        -13.6510  -22.4290   12.6270 C.2    12  ILE12       0.2616
     10  O        -13.9400  -23.4560   13.2260 O.2    12  ILE12      -0.2715
     11  CB       -11.3680  -22.2170   13.6650 C.3    12  ILE12       0.0290
     12  CG1      -11.8270  -21.1760   14.6960 C.3    12  ILE12       0.0022
     13  CG2       -9.8830  -22.0750   13.3650 C.3    12  ILE12       0.0023
     14  CD1      -11.1110  -21.2570   16.0450 C.3    12  ILE12       0.0001
     15  N        -14.5780  -21.5820   12.1820 N.am   13  LEU13      -0.1977
     16  CA       -16.0000  -21.8350   12.4300 C.3    13  LEU13       0.1596
     17  C        -16.7440  -22.4730   11.2570 C.2    13  LEU13       0.2287
     18  O        -17.9810  -22.5180   11.2440 O.2    13  LEU13      -0.2864
     19  CB       -16.7140  -20.5590   12.8780 C.3    13  LEU13       0.0297
     20  CG       -16.1560  -19.9010   14.1430 C.3    13  LEU13       0.0022
     21  CD1      -17.0450  -18.7540   14.5840 C.3    13  LEU13       0.0001
     22  CD2      -15.9770  -20.9080   15.2630 C.3    13  LEU13       0.0001
     23  N        -20.5400  -21.9850    9.5350 N.3    16  SER16      -0.1202
     24  CA       -21.1690  -20.9480   10.3480 C.3    16  SER16       0.2020
     25  C        -20.3230  -19.6800   10.3640 C.2    16  SER16       0.2619
     26  O        -20.7320  -18.6500   10.9020 O.2    16  SER16      -0.2717
     27  CB       -21.3780  -21.4450   11.7780 C.3    16  SER16       0.2103
     28  OG       -22.2200  -22.5840   11.8020 O.3    16  SER16      -0.2182
     29  N        -19.1350  -19.7670    9.7820 N.am   17  SER17      -0.1937
     30  CA       -18.2070  -18.6430    9.7590 C.3    17  SER17       0.2055
     31  C        -18.7520  -17.4380    8.9940 C.2    17  SER17       0.2643
     32  O        -19.1690  -17.5540    7.8420 O.2    17  SER17      -0.2714
     33  CB       -16.8770  -19.0780    9.1440 C.3    17  SER17       0.2130
     34  OG       -16.0820  -17.9650    8.7860 O.3    17  SER17      -0.2179
     35  N        -18.7360  -16.2790    9.6400 N.am   18  GLN18      -0.1963
     36  CA       -19.0640  -15.0320    8.9670 C.3    18  GLN18       0.1733
     37  C        -18.1020  -14.7800    7.8140 C.2    18  GLN18       0.2617
     38  O        -18.5270  -14.4110    6.7180 O.2    18  GLN18      -0.2715
     39  CB       -19.0300  -13.8560    9.9490 C.3    18  GLN18       0.0408
     40  CG       -19.0340  -12.4890    9.2790 C.3    18  GLN18       0.0908
     41  CD       -19.0510  -11.3470   10.2790 C.2    18  GLN18       0.2608
     42  OE1      -18.5760  -11.4840   11.4080 O.2    18  GLN18      -0.2717
     43  NE2      -19.6100  -10.2120    9.8720 N.am   18  GLN18      -0.0878
     44  N        -16.8030  -14.9810    8.0290 N.am   19  SER19      -0.1950
     45  CA       -15.8780  -14.6400    6.9520 C.3    19  SER19       0.1924
     46  C        -15.9390  -15.6470    5.7990 C.2    19  SER19       0.2314
     47  O        -15.7810  -15.2640    4.6450 O.2    19  SER19      -0.2863
     48  CB       -14.4510  -14.3620    7.4520 C.3    19  SER19       0.2116
     49  OG       -13.7100  -15.5400    7.6030 O.3    19  SER19      -0.2180
     50  N        -10.3950  -13.0910    9.6230 N.3    96  PRO96      -0.2102
     51  CA       -11.0820  -12.6040   10.8270 C.3    96  PRO96       0.1504
     52  C        -10.0970  -12.3840   11.9830 C.2    96  PRO96       0.2576
     53  O         -9.0510  -13.0350   12.0320 O.2    96  PRO96      -0.2718
     54  CB       -12.0680  -13.7300   11.1560 C.3    96  PRO96       0.0282
     55  CG       -11.4320  -14.9750   10.5380 C.3    96  PRO96       0.0208
     56  CD       -10.6810  -14.5040    9.3250 C.3    96  PRO96       0.0893
     57  N        -10.4200  -11.4700   12.8900 N.am   97  MET97      -0.1966
     58  CA        -9.5850  -11.1880   14.0540 C.3    97  MET97       0.1736
     59  C         -9.8640  -12.1870   15.1750 C.2    97  MET97       0.2616
     60  O        -10.9970  -12.3310   15.6250 O.2    97  MET97      -0.2715
     61  CB        -9.8020   -9.7590   14.5740 C.3    97  MET97       0.0427
     62  CG        -9.3000   -8.6410   13.6490 C.3    97  MET97       0.0599
     63  SD        -9.3720   -6.9760   14.3870 S.3    97  MET97      -0.1393
     64  CE        -8.5580   -7.2550   15.9610 C.3    97  MET97       0.0692
     65  N         -8.8230  -12.8980   15.6000 N.am   98  TYR98      -0.1960
     66  CA        -8.9230  -13.8020   16.7360 C.3    98  TYR98       0.1771
     67  C         -7.9300  -13.3570   17.8020 C.2    98  TYR98       0.2620
     68  O         -6.7080  -13.4170   17.5930 O.2    98  TYR98      -0.2715
     69  CB        -8.5560  -15.2270   16.3310 C.3    98  TYR98       0.0574
     70  CG        -9.5430  -15.9700   15.4640 C.ar   98  TYR98      -0.0198
     71  CD1      -10.8040  -15.4510   15.1650 C.ar   98  TYR98      -0.0009
     72  CD2       -9.2160  -17.2190   14.9590 C.ar   98  TYR98      -0.0009
     73  CE1      -11.6990  -16.1630   14.3590 C.ar   98  TYR98       0.0417
     74  CE2      -10.1010  -17.9350   14.1690 C.ar   98  TYR98       0.0417
     75  CZ       -11.3280  -17.4010   13.8730 C.ar   98  TYR98       0.1957
     76  OH       -12.2140  -18.1110   13.0920 O.3    98  TYR98      -0.2866
     77  N         -8.4520  -12.9240   18.9420 N.am   99  ASN99      -0.1958
     78  CA        -7.6310  -12.4720   20.0520 C.3    99  ASN99       0.1819
     79  C         -6.6010  -11.4290   19.6100 C.2    99  ASN99       0.2621
     80  O         -5.4080  -11.4980   19.9570 O.2    99  ASN99      -0.2715
     81  CB        -6.9660  -13.6650   20.7480 C.3    99  ASN99       0.1195
     82  CG        -7.9750  -14.5980   21.3760 C.2    99  ASN99       0.2630
     83  OD1       -8.9890  -14.1500   21.9250 O.2    99  ASN99      -0.2716
     84  ND2       -7.7200  -15.8940   21.2920 N.am   99  ASN99      -0.0877
     85  N         -7.0910  -10.4620   18.8350 N.am  100  PHE100     -0.1974
     86  CA        -6.3190   -9.2980   18.3780 C.3   100  PHE100      0.1639
     87  C         -5.2350   -9.6230   17.3510 C.2   100  PHE100      0.2290
     88  O         -4.3870   -8.7730   17.0530 O.2   100  PHE100     -0.2864
     89  CB        -5.7520   -8.5030   19.5650 C.3   100  PHE100      0.0560
     90  CG        -6.7530   -8.2460   20.6590 C.ar  100  PHE100     -0.0200
     91  CD1       -7.8320   -7.3980   20.4510 C.ar  100  PHE100     -0.0042
     92  CD2       -6.6310   -8.8750   21.8930 C.ar  100  PHE100     -0.0042
     93  CE1       -8.7590   -7.1710   21.4540 C.ar  100  PHE100     -0.0003
     94  CE2       -7.5570   -8.6550   22.9030 C.ar  100  PHE100     -0.0003
     95  CZ        -8.6220   -7.8030   22.6840 C.ar  100  PHE100     -0.0000
     96  N        -12.0640   -8.8380    6.2850 N.3   140  THR140     -0.1203
     97  CA       -11.8090   -8.9110    7.7130 C.3   140  THR140      0.1994
     98  C        -12.9290   -8.2760    8.5250 C.2   140  THR140      0.2619
     99  O        -13.9670   -7.9200    7.9850 O.2   140  THR140     -0.2717
    100  CB       -10.4190   -8.3120    8.0780 C.3   140  THR140      0.1784
    101  OG1      -10.1370   -8.5340    9.4670 O.3   140  THR140     -0.2211
    102  CG2      -10.3660   -6.8240    7.7780 C.3   140  THR140      0.0376
    103  N        -12.6870   -8.1630    9.8250 N.am  141  SER141     -0.1937
    104  CA       -13.6410   -7.6570   10.7910 C.3   141  SER141      0.2055
    105  C        -12.9100   -6.5770   11.5590 C.2   141  SER141      0.2643
    106  O        -11.6800   -6.5730   11.5980 O.2   141  SER141     -0.2714
    107  CB       -14.0030   -8.7790   11.7620 C.3   141  SER141      0.2130
    108  OG       -12.8160   -9.3600   12.3070 O.3   141  SER141     -0.2179
    109  N        -13.6420   -5.6610   12.1780 N.am  142  ARG142     -0.1963
    110  CA       -13.0340   -4.6020   12.9800 C.3   142  ARG142      0.1729
    111  C        -13.7330   -4.4680   14.3360 C.2   142  ARG142      0.2616
    112  O        -14.8660   -4.9160   14.5010 O.2   142  ARG142     -0.2715
    113  CB       -13.0710   -3.2690   12.2210 C.3   142  ARG142      0.0348
    114  CG       -14.2970   -2.4100   12.5050 C.3   142  ARG142      0.0492
    115  CD       -14.6620   -1.5230   11.3160 C.3   142  ARG142      0.2205
    116  NE       -13.5370   -0.7220   10.8380 N.pl3 142  ARG142     -0.0865
    117  CZ       -13.5760    0.0500    9.7560 C.cat 142  ARG142      0.5346
    118  NH1      -14.6850    0.1280    9.0310 N.pl3 142  ARG142      0.1354
    119  NH2      -12.5040    0.7430    9.3930 N.pl3 142  ARG142      0.1354
    120  N        -13.0640   -3.8180   15.2830 N.am  143  GLY143     -0.1955
    121  CA       -13.6020   -3.6410   16.6240 C.3   143  GLY143      0.1869
    122  C        -13.5760   -2.1790   17.0520 C.2   143  GLY143      0.2309
    123  O        -13.1610   -1.8570   18.1650 O.2   143  GLY143     -0.2863
    124  N        -16.3390   -6.3920    7.2890 N.3   167  ALA167     -0.1245
    125  CA       -17.6950   -6.9160    7.4270 C.3   167  ALA167      0.1562
    126  C        -18.4110   -6.2190    8.5730 C.2   167  ALA167      0.2260
    127  O        -18.4260   -6.7140    9.6980 O.2   167  ALA167     -0.2867
    128  CB       -17.6480   -8.4040    7.6730 C.3   167  ALA167      0.0290
@<TRIPOS>BOND
     1    47    46    2
     2    46    45    1
     3    96    97    1
     4    38    37    2
     5    45    48    1
     6    45    44    1
     7   124   125    1
     8   125   128    1
     9   125   126    1
    10    48    49    1
    11    97   100    1
    12    97    98    1
    13   102   100    1
    14    37    44   am
    15    37    36    1
    16    32    31    2
    17    99    98    2
    18   100   101    1
    19    98   103   am
    20   126   127    2
    21     1     2    1
    22    34    33    1
    23    36    35    1
    24    36    39    1
    25    31    35   am
    26    31    30    1
    27   118   117    1
    28    33    30    1
    29    40    39    1
    30    40    41    1
    31    56    50    1
    32    56    55    1
    33   119   117    1
    34    23    24    1
    35     5     2    1
    36     5     6    1
    37    50    51    1
    38     4     3    2
    39   117   116    2
    40    30    29    1
    41    29    25   am
    42   103   104    1
    43    43    41   am
    44     2     3    1
    45    41    42    2
    46    24    25    1
    47    24    27    1
    48    25    26    2
    49     3     7   am
    50    55    54    1
    51   104   105    1
    52   104   107    1
    53    51    54    1
    54    51    52    1
    55   116   115    1
    56    18    17    2
    57    17    16    1
    58   115   114    1
    59   105   106    2
    60   105   109   am
    61     7     8    1
    62   107   108    1
    63    27    28    1
    64    52    53    2
    65    52    57   am
    66   109   110    1
    67    15    16    1
    68    15     9   am
    69   113   114    1
    70   113   110    1
    71     8     9    1
    72     8    11    1
    73    16    19    1
    74     9    10    2
    75    19    20    1
    76    57    58    1
    77   110   111    1
    78    76    75    1
    79    13    11    1
    80    62    63    1
    81    62    61    1
    82    11    12    1
    83    75    74   ar
    84    75    73   ar
    85    58    61    1
    86    58    59    1
    87    20    21    1
    88    20    22    1
    89    74    72   ar
    90   111   112    2
    91   111   120   am
    92    73    71   ar
    93    63    64    1
    94    12    14    1
    95    72    70   ar
    96    71    70   ar
    97    59    65   am
    98    59    60    2
    99   120   121    1
   100    70    69    1
   101    65    66    1
   102    69    66    1
   103   121   122    1
   104    66    67    1
   105   122   123    2
   106    88    87    2
   107    87    86    1
   108    68    67    2
   109    67    77   am
   110    86    85    1
   111    86    89    1
   112    85    79   am
   113    77    78    1
   114    89    90    1
   115    79    80    2
   116    79    78    1
   117    78    81    1
   118    91    90   ar
   119    91    93   ar
   120    90    92   ar
   121    81    82    1
   122    84    82   am
   123    82    83    2
   124    93    95   ar
   125    92    94   ar
   126    95    94   ar
