@<TRIPOS>MOLECULE
tmp/4eshA00.pdb
 148 142 0 0 0
SMALL
GASTEIGER

@<TRIPOS>ATOM
      1  N        -20.0710   14.6730   17.2480 N.3    41  GLU41      -0.1231
      2  CA       -20.4730   13.2730   17.1240 C.3    41  GLU41       0.1684
      3  C        -20.0760   12.7210   15.7710 C.2    41  GLU41       0.2434
      4  O        -19.9400   13.4790   14.8160 O.2    41  GLU41      -0.2733
      5  CB       -21.9840   13.1160   17.3150 C.3    41  GLU41       0.0402
      6  CG       -22.4480   13.4670   18.7240 C.3    41  GLU41       0.1161
      7  CD       -23.6730   12.6770   19.1550 C.2    41  GLU41       0.3649
      8  OE1      -24.3540   12.1100   18.2700 O.co2  41  GLU41      -0.2457
      9  OE2      -23.9510   12.6340   20.3770 O.co2  41  GLU41      -0.2457
     10  N        -19.8420   11.4010   15.7010 N.am   42  PRO42      -0.2729
     11  CA       -19.7850   10.5500   16.8950 C.3    42  PRO42       0.1401
     12  C        -18.5080   10.8570   17.6750 C.2    42  PRO42       0.2269
     13  O        -17.5000   11.2060   17.0610 O.2    42  PRO42      -0.2865
     14  CB       -19.7270    9.1280   16.3190 C.3    42  PRO42       0.0296
     15  CG       -19.1350    9.2960   14.9640 C.3    42  PRO42       0.0237
     16  CD       -19.6020   10.6460   14.4580 C.3    42  PRO42       0.0939
     17  N        -16.1910    6.0790   17.5320 N.3    52  ARG52      -0.1245
     18  CA       -15.9550    6.8820   16.3320 C.3    52  ARG52       0.1563
     19  C        -14.9100    6.2150   15.4280 C.2    52  ARG52       0.2260
     20  O        -15.1110    6.0410   14.2130 O.2    52  ARG52      -0.2867
     21  CB       -15.4880    8.2970   16.7110 C.3    52  ARG52       0.0307
     22  CG       -15.0610    9.1530   15.5160 C.3    52  ARG52       0.0489
     23  CD       -14.5780   10.5460   15.9450 C.3    52  ARG52       0.2205
     24  NE       -14.2290   11.3960   14.8070 N.pl3  52  ARG52      -0.0865
     25  CZ       -15.0580   12.2620   14.2240 C.cat  52  ARG52       0.5346
     26  NH1      -16.3020   12.4200   14.6690 N.pl3  52  ARG52       0.1354
     27  NH2      -14.6440   12.9760   13.1830 N.pl3  52  ARG52       0.1354
     28  N        -15.2670    5.0820   11.4740 N.3    56  LEU56      -0.1245
     29  CA       -14.6100    5.7880   10.3750 C.3    56  LEU56       0.1561
     30  C        -13.5100    4.9870    9.6870 C.2    56  LEU56       0.2260
     31  O        -13.1830    5.2610    8.5460 O.2    56  LEU56      -0.2867
     32  CB       -14.0110    7.1160   10.8520 C.3    56  LEU56       0.0270
     33  CG       -14.9470    8.1500   11.4670 C.3    56  LEU56       0.0019
     34  CD1      -14.1700    9.4360   11.6350 C.3    56  LEU56       0.0001
     35  CD2      -16.1820    8.3640   10.6170 C.3    56  LEU56       0.0001
     36  N        -23.5180    4.2500   15.8340 N.3    72  MET72      -0.1245
     37  CA       -23.7700    5.6820   15.9210 C.3    72  MET72       0.1570
     38  C        -24.5620    6.0130   17.1780 C.2    72  MET72       0.2261
     39  O        -24.2360    6.9580   17.8890 O.2    72  MET72      -0.2867
     40  CB       -24.5310    6.2020   14.7030 C.3    72  MET72       0.0387
     41  CG       -23.6400    6.4960   13.5150 C.3    72  MET72       0.0595
     42  SD       -22.4790    7.8490   13.8130 S.3    72  MET72      -0.1393
     43  CE       -21.4820    7.6250   12.3420 C.3    72  MET72       0.0692
     44  N        -23.7460    7.9480   20.7840 N.3    76  ARG76      -0.1245
     45  CA       -24.6530    9.0220   21.1690 C.3    76  ARG76       0.1563
     46  C        -25.1800    8.8650   22.5900 C.2    76  ARG76       0.2260
     47  O        -25.2840    9.8470   23.3270 O.2    76  ARG76      -0.2867
     48  CB       -25.8280    9.0970   20.1940 C.3    76  ARG76       0.0307
     49  CG       -26.7790   10.2670   20.4490 C.3    76  ARG76       0.0489
     50  CD       -27.5630   10.5960   19.1550 C.3    76  ARG76       0.2205
     51  NE       -26.6190   10.9630   18.1010 N.pl3  76  ARG76      -0.0865
     52  CZ       -26.6710   10.5650   16.8310 C.cat  76  ARG76       0.5346
     53  NH1      -25.7210   10.9710   15.9980 N.pl3  76  ARG76       0.1354
     54  NH2      -27.6490    9.7690   16.3860 N.pl3  76  ARG76       0.1354
     55  N        -22.7730   17.9460   14.6200 N.3    98  ARG98      -0.1231
     56  CA       -23.4850   16.7400   14.1830 C.3    98  ARG98       0.1694
     57  C        -24.2400   16.0230   15.3020 C.2    98  ARG98       0.2592
     58  O        -23.7640   15.9050   16.4260 O.2    98  ARG98      -0.2718
     59  CB       -22.5710   15.7850   13.4020 C.3    98  ARG98       0.0321
     60  CG       -22.0450   16.4110   12.0970 C.3    98  ARG98       0.0489
     61  CD       -21.5080   15.3730   11.1390 C.3    98  ARG98       0.2205
     62  NE       -21.0890   15.9780    9.8720 N.pl3  98  ARG98      -0.0865
     63  CZ       -19.8220   16.1450    9.5230 C.cat  98  ARG98       0.5346
     64  NH1      -19.5150   16.7040    8.3590 N.pl3  98  ARG98       0.1354
     65  NH2      -18.8650   15.7460   10.3470 N.pl3  98  ARG98       0.1354
     66  N        -25.4370   15.5560   14.9760 N.am   99  PHE99      -0.1976
     67  CA       -26.2600   14.8530   15.9360 C.3    99  PHE99       0.1639
     68  C        -27.2120   13.9690   15.1320 C.2    99  PHE99       0.2290
     69  O        -26.8630   13.5200   14.0510 O.2    99  PHE99      -0.2864
     70  CB       -26.9920   15.8570   16.8450 C.3    99  PHE99       0.0560
     71  CG       -27.5640   15.2450   18.0990 C.ar   99  PHE99      -0.0200
     72  CD1      -26.7420   14.6270   19.0240 C.ar   99  PHE99      -0.0042
     73  CD2      -28.9280   15.3010   18.3520 C.ar   99  PHE99      -0.0042
     74  CE1      -27.2710   14.0560   20.1820 C.ar   99  PHE99      -0.0003
     75  CE2      -29.4600   14.7350   19.5000 C.ar   99  PHE99      -0.0003
     76  CZ       -28.6280   14.1140   20.4180 C.ar   99  PHE99      -0.0000
     77  N        -27.7940   14.0350   11.3780 N.3   102  ALA102     -0.1231
     78  CA       -26.7770   13.3650   10.5560 C.3   102  ALA102      0.1694
     79  C        -27.0910   11.8830   10.3420 C.2   102  ALA102      0.2592
     80  O        -26.7840   11.3130    9.2900 O.2   102  ALA102     -0.2718
     81  CB       -25.3580   13.5680   11.1160 C.3   102  ALA102      0.0304
     82  N        -27.7290   11.2630   11.3270 N.am  103  THR103     -0.1953
     83  CA       -28.0840    9.8480   11.2060 C.3   103  THR103      0.1897
     84  C        -29.1730    9.6830   10.1480 C.2   103  THR103      0.2313
     85  O        -29.0680    8.8400    9.2630 O.2   103  THR103     -0.2863
     86  CB       -28.5520    9.2550   12.5770 C.3   103  THR103      0.1794
     87  OG1      -27.5810    9.5680   13.5860 O.3   103  THR103     -0.2208
     88  CG2      -28.7020    7.7430   12.4820 C.3   103  THR103      0.0378
     89  N        -27.2060   10.6080    6.6640 N.3   106  TYR106     -0.1227
     90  CA       -26.2050    9.6290    6.2190 C.3   106  TYR106      0.1736
     91  C        -26.7270    8.1910    6.2090 C.2   106  TYR106      0.2595
     92  O        -26.6640    7.5000    5.1920 O.2   106  TYR106     -0.2718
     93  CB       -24.9670    9.6930    7.1100 C.3   106  TYR106      0.0548
     94  CG       -24.0550   10.8460    6.7990 C.ar  106  TYR106     -0.0200
     95  CD1      -22.9260   10.6680    6.0100 C.ar  106  TYR106     -0.0009
     96  CD2      -24.3210   12.1170    7.2950 C.ar  106  TYR106     -0.0009
     97  CE1      -22.0820   11.7290    5.7230 C.ar  106  TYR106      0.0417
     98  CE2      -23.4940   13.1840    7.0120 C.ar  106  TYR106      0.0417
     99  CZ       -22.3700   12.9840    6.2300 C.ar  106  TYR106      0.1957
    100  OH       -21.5460   14.0410    5.9490 O.3   106  TYR106     -0.2866
    101  N        -27.1990    7.7190    7.3610 N.am  107  GLN107     -0.1979
    102  CA       -27.7020    6.3470    7.4260 C.3   107  GLN107      0.1601
    103  C        -29.0440    6.1870    6.7020 C.2   107  GLN107      0.2287
    104  O        -29.3050    5.1410    6.1110 O.2   107  GLN107     -0.2864
    105  CB       -27.7810    5.8490    8.8760 C.3   107  GLN107      0.0394
    106  CG       -26.4140    5.4590    9.4620 C.3   107  GLN107      0.0908
    107  CD       -25.4700    6.6430    9.6200 C.2   107  GLN107      0.2608
    108  OE1      -25.7940    7.6290   10.3070 O.2   107  GLN107     -0.2717
    109  NE2      -24.3010    6.5630    8.9750 N.am  107  GLN107     -0.0878
    110  N        -11.4610    8.2000    4.9650 N.3   151  ASP151     -0.1239
    111  CA       -12.1690    7.3390    5.9070 C.3   151  ASP151      0.1674
    112  C        -13.4290    6.7660    5.2500 C.2   151  ASP151      0.2266
    113  O        -13.7010    7.0300    4.0760 O.2   151  ASP151     -0.2867
    114  CB       -12.4980    8.0860    7.2040 C.3   151  ASP151      0.1410
    115  CG       -13.5480    9.1570    7.0110 C.2   151  ASP151      0.3668
    116  OD1      -14.4540    8.9600    6.1770 O.co2 151  ASP151     -0.2456
    117  OD2      -13.4680   10.2010    7.6940 O.co2 151  ASP151     -0.2456
    118  N        -16.6560    7.2760    5.2660 N.3   153  PHE153     -0.1227
    119  CA       -17.6810    8.1170    4.6530 C.3   153  PHE153      0.1736
    120  C        -17.1290    8.9950    3.5260 C.2   153  PHE153      0.2595
    121  O        -17.8100    9.2310    2.5290 O.2   153  PHE153     -0.2718
    122  CB       -18.4150    8.9300    5.7160 C.3   153  PHE153      0.0547
    123  CG       -19.1450    8.0690    6.7190 C.ar  153  PHE153     -0.0202
    124  CD1      -20.3740    7.5080    6.4070 C.ar  153  PHE153     -0.0042
    125  CD2      -18.5820    7.7890    7.9500 C.ar  153  PHE153     -0.0042
    126  CE1      -21.0420    6.7000    7.3170 C.ar  153  PHE153     -0.0003
    127  CE2      -19.2490    6.9910    8.8710 C.ar  153  PHE153     -0.0003
    128  CZ       -20.4810    6.4440    8.5460 C.ar  153  PHE153     -0.0000
    129  N        -15.8890    9.4470    3.6780 N.am  154  GLU154     -0.1979
    130  CA       -15.2250   10.2300    2.6380 C.3   154  GLU154      0.1602
    131  C        -15.1010    9.4380    1.3460 C.2   154  GLU154      0.2287
    132  O        -15.0240   10.0170    0.2710 O.2   154  GLU154     -0.2864
    133  CB       -13.8320   10.6680    3.0940 C.3   154  GLU154      0.0415
    134  CG       -13.8310   11.6250    4.2760 C.3   154  GLU154      0.1163
    135  CD       -12.4280   11.9100    4.7960 C.2   154  GLU154      0.3649
    136  OE1      -12.2470   12.9370    5.4840 O.co2 154  GLU154     -0.2457
    137  OE2      -11.5070   11.1070    4.5220 O.co2 154  GLU154     -0.2457
    138  N        -23.5790   11.8210   -1.2190 N.3   161  PHE161     -0.1241
    139  CA       -23.5350   13.1090   -0.5640 C.3   161  PHE161      0.1605
    140  C        -24.6670   14.0460   -0.9730 C.2   161  PHE161      0.2264
    141  O        -25.0460   14.9150   -0.2000 O.2   161  PHE161     -0.2867
    142  CB       -22.1430   13.7410   -0.6810 C.3   161  PHE161      0.0534
    143  CG       -21.1460   13.1030    0.2400 C.ar  161  PHE161     -0.0203
    144  CD1      -21.2030   13.3500    1.6070 C.ar  161  PHE161     -0.0042
    145  CD2      -20.1960   12.2170   -0.2380 C.ar  161  PHE161     -0.0042
    146  CE1      -20.3150   12.7440    2.4800 C.ar  161  PHE161     -0.0003
    147  CE2      -19.3050   11.6080    0.6300 C.ar  161  PHE161     -0.0003
    148  CZ       -19.3620   11.8740    1.9850 C.ar  161  PHE161     -0.0000
@<TRIPOS>BOND
     1   138   139    1
     2   140   139    1
     3   140   141    2
     4   142   139    1
     5   142   143    1
     6   145   143   ar
     7   145   147   ar
     8   143   144   ar
     9   132   131    2
    10   147   148   ar
    11   131   130    1
    12   144   146   ar
    13   148   146   ar
    14   121   120    2
    15   130   133    1
    16   130   129    1
    17   133   134    1
    18   120   129   am
    19   120   119    1
    20   113   112    2
    21   134   135    1
    22   137   135   ar
    23   119   118    1
    24   119   122    1
    25   135   136   ar
    26   110   111    1
    27    92    91    2
    28   112   111    1
    29   122   123    1
    30    97    95   ar
    31    97    99   ar
    32   111   114    1
    33   100    99    1
    34    95    94   ar
    35   104   103    2
    36   116   115   ar
    37    91    90    1
    38    91   101   am
    39    90    89    1
    40    90    93    1
    41    99    98   ar
    42   124   123   ar
    43   124   126   ar
    44   103   102    1
    45   123   125   ar
    46    94    93    1
    47    94    96   ar
    48   115   114    1
    49   115   117   ar
    50    98    96   ar
    51   126   128   ar
    52   101   102    1
    53   102   105    1
    54   125   127   ar
    55    64    63    1
    56   128   127   ar
    57    31    30    2
    58   105   106    1
    59   109   107   am
    60    85    84    2
    61    80    79    2
    62   106   107    1
    63    63    62    2
    64    63    65    1
    65   107   108    2
    66    30    29    1
    67    62    61    1
    68    84    83    1
    69    79    78    1
    70    79    82   am
    71    29    32    1
    72    29    28    1
    73    78    81    1
    74    78    77    1
    75    35    33    1
    76    32    33    1
    77    61    60    1
    78    83    82    1
    79    83    86    1
    80    33    34    1
    81    60    59    1
    82    43    42    1
    83    88    86    1
    84    86    87    1
    85    27    25    1
    86    59    56    1
    87    41    42    1
    88    41    40    1
    89    69    68    2
    90    56    55    1
    91    56    57    1
    92    20    19    2
    93    25    26    1
    94    25    24    2
    95    16    15    1
    96    16    10    1
    97    40    37    1
    98    24    23    1
    99     4     3    2
   100    15    14    1
   101    66    57   am
   102    66    67    1
   103    68    67    1
   104    57    58    2
   105    19    18    1
   106    22    23    1
   107    22    21    1
   108    10     3   am
   109    10    11    1
   110     3     2    1
   111    36    37    1
   112    37    38    1
   113    67    70    1
   114    53    52    1
   115    14    11    1
   116    18    21    1
   117    18    17    1
   118    54    52    1
   119    52    51    2
   120    70    71    1
   121    11    12    1
   122    13    12    2
   123     2     1    1
   124     2     5    1
   125    38    39    2
   126     5     6    1
   127    71    73   ar
   128    71    72   ar
   129    51    50    1
   130     8     7   ar
   131    73    75   ar
   132     6     7    1
   133    72    74   ar
   134    50    49    1
   135     7     9   ar
   136    75    76   ar
   137    74    76   ar
   138    48    49    1
   139    48    45    1
   140    44    45    1
   141    45    46    1
   142    46    47    2
