@<TRIPOS>MOLECULE
tmp/4esiA00.pdb
 138 134 0 0 0
SMALL
GASTEIGER

@<TRIPOS>ATOM
      1  N        -23.6800    5.2460  -11.1990 N.3    76  TYR76      -0.1227
      2  CA       -23.9450    5.8860   -9.8340 C.3    76  TYR76       0.1736
      3  C        -23.6510    4.8640   -8.7370 C.2    76  TYR76       0.2595
      4  O        -23.9260    3.6540   -8.8840 O.2    76  TYR76      -0.2718
      5  CB       -25.4270    6.2180   -9.7140 C.3    76  TYR76       0.0548
      6  CG       -25.7960    7.6230  -10.0600 C.ar   76  TYR76      -0.0200
      7  CD1      -25.4640    8.1710  -11.3220 C.ar   76  TYR76      -0.0009
      8  CD2      -26.5270    8.4040   -9.1630 C.ar   76  TYR76      -0.0009
      9  CE1      -25.8300    9.4800  -11.6770 C.ar   76  TYR76       0.0417
     10  CE2      -26.9430    9.7160   -9.5210 C.ar   76  TYR76       0.0417
     11  CZ       -26.5840   10.2450  -10.7710 C.ar   76  TYR76       0.1957
     12  OH       -26.9460   11.5330  -11.1150 O.3    76  TYR76      -0.2866
     13  N        -23.0160    5.3350   -7.6700 N.am   77  VAL77      -0.1980
     14  CA       -22.8960    4.5620   -6.4570 C.3    77  VAL77       0.1595
     15  C        -24.3010    4.4510   -5.8730 C.2    77  VAL77       0.2287
     16  O        -24.8940    5.4850   -5.5030 O.2    77  VAL77      -0.2864
     17  CB       -21.9180    5.2710   -5.5080 C.3    77  VAL77       0.0276
     18  CG1      -21.8550    4.4860   -4.1750 C.3    77  VAL77       0.0022
     19  CG2      -20.5350    5.2590   -6.1400 C.3    77  VAL77       0.0022
     20  N        -28.8640    4.2000   -0.9860 N.3    89  PHE89      -0.1241
     21  CA       -29.5170    5.5290   -1.1270 C.3    89  PHE89       0.1605
     22  C        -30.9890    5.3230   -1.4270 C.2    89  PHE89       0.2264
     23  O        -31.3750    4.2440   -1.9080 O.2    89  PHE89      -0.2867
     24  CB       -28.8470    6.3990   -2.1900 C.3    89  PHE89       0.0534
     25  CG       -27.4390    6.7830   -1.8360 C.ar   89  PHE89      -0.0203
     26  CD1      -27.1720    7.5280   -0.7000 C.ar   89  PHE89      -0.0042
     27  CD2      -26.3800    6.4040   -2.6560 C.ar   89  PHE89      -0.0042
     28  CE1      -25.8840    7.8450   -0.3410 C.ar   89  PHE89      -0.0003
     29  CE2      -25.0860    6.7600   -2.3330 C.ar   89  PHE89      -0.0003
     30  CZ       -24.8190    7.4610   -1.1520 C.ar   89  PHE89      -0.0000
     31  N        -28.8980    9.7370   -3.0800 N.3   117  GLY117     -0.1210
     32  CA       -27.4200   10.0140   -3.1470 C.3   117  GLY117      0.1956
     33  C        -26.9350   11.0210   -4.1810 C.2   117  GLY117      0.2612
     34  O        -25.7690   10.9670   -4.5890 O.2   117  GLY117     -0.2717
     35  N        -27.7710   11.9790   -4.5740 N.am  118  ASN118     -0.1960
     36  CA       -27.3270   12.9550   -5.5430 C.3   118  ASN118      0.1819
     37  C        -26.4340   13.9470   -4.8540 C.2   118  ASN118      0.2621
     38  O        -26.5460   14.1130   -3.6430 O.2   118  ASN118     -0.2715
     39  CB       -28.4920   13.6540   -6.2330 C.3   118  ASN118      0.1195
     40  CG       -29.1940   12.7830   -7.2860 C.2   118  ASN118      0.2630
     41  OD1      -29.8750   13.3330   -8.1630 O.2   118  ASN118     -0.2716
     42  ND2      -29.0620   11.4260   -7.2020 N.am  118  ASN118     -0.0877
     43  N        -25.5130   14.5960   -5.5800 N.am  119  TYR119     -0.1960
     44  CA       -24.6100   15.5730   -4.8880 C.3   119  TYR119      0.1771
     45  C        -25.3420   16.6370   -4.0260 C.2   119  TYR119      0.2619
     46  O        -24.8420   16.9950   -2.9500 O.2   119  TYR119     -0.2715
     47  CB       -23.7500   16.3170   -5.8880 C.3   119  TYR119      0.0574
     48  CG       -22.6650   15.4620   -6.5700 C.ar  119  TYR119     -0.0198
     49  CD1      -21.8530   14.5850   -5.8430 C.ar  119  TYR119     -0.0009
     50  CD2      -22.4220   15.6040   -7.9170 C.ar  119  TYR119     -0.0009
     51  CE1      -20.8320   13.8330   -6.4730 C.ar  119  TYR119      0.0417
     52  CE2      -21.4040   14.9190   -8.5430 C.ar  119  TYR119      0.0417
     53  CZ       -20.6530   13.9860   -7.8390 C.ar  119  TYR119      0.1957
     54  OH       -19.6480   13.3020   -8.4990 O.3   119  TYR119     -0.2866
     55  N        -26.4320   17.2220   -4.5400 N.am  120  ASP120     -0.1971
     56  CA       -27.0880   18.3170   -3.8230 C.3   120  ASP120      0.1709
     57  C        -27.4600   17.8800   -2.3800 C.2   120  ASP120      0.2293
     58  O        -27.1700   18.5940   -1.4190 O.2   120  ASP120     -0.2864
     59  CB       -28.3090   18.8750   -4.5860 C.3   120  ASP120      0.1436
     60  CG       -29.3330   17.7980   -5.0000 C.2   120  ASP120      0.3671
     61  OD1      -30.2580   18.2180   -5.7190 O.co2 120  ASP120     -0.2456
     62  OD2      -29.2700   16.5710   -4.6360 O.co2 120  ASP120     -0.2456
     63  N        -18.9860   20.2620   -2.8940 N.3   130  ARG130     -0.1245
     64  CA       -17.8450   19.6570   -3.5410 C.3   130  ARG130      0.1563
     65  C        -16.6190   20.5380   -3.6140 C.2   130  ARG130      0.2260
     66  O        -15.5200   20.0480   -3.3120 O.2   130  ARG130     -0.2867
     67  CB       -18.2510   19.1300   -4.9160 C.3   130  ARG130      0.0307
     68  CG       -19.0330   17.8490   -4.8220 C.3   130  ARG130      0.0489
     69  CD       -19.5960   17.5710   -6.2470 C.3   130  ARG130      0.2205
     70  NE       -20.7030   18.5040   -6.4790 N.pl3 130  ARG130     -0.0865
     71  CZ       -21.1280   18.9420   -7.6640 C.cat 130  ARG130      0.5346
     72  NH1      -20.5130   18.5520   -8.8170 N.pl3 130  ARG130      0.1354
     73  NH2      -22.1840   19.7610   -7.6970 N.pl3 130  ARG130      0.1354
     74  N        -17.6260    8.8980   -4.7430 N.3   168  ILE168     -0.1245
     75  CA       -18.2780    9.0990   -6.0110 C.3   168  ILE168      0.1561
     76  C        -17.3220    9.7580   -7.0080 C.2   168  ILE168      0.2260
     77  O        -17.1620    9.2950   -8.1420 O.2   168  ILE168     -0.2867
     78  CB       -19.5480    9.9240   -5.8770 C.3   168  ILE168      0.0252
     79  CG1      -20.5680    9.1040   -5.1120 C.3   168  ILE168      0.0019
     80  CG2      -20.0760   10.2470   -7.2950 C.3   168  ILE168      0.0019
     81  CD1      -21.5760    9.9790   -4.3700 C.3   168  ILE168      0.0001
     82  N        -16.6900    6.9870   -9.7190 N.3   172  SER172     -0.1202
     83  CA       -17.6620    7.1500  -10.7960 C.3   172  SER172      0.2020
     84  C        -17.3220    8.3400  -11.7320 C.2   172  SER172      0.2618
     85  O        -17.3210    8.2080  -12.9640 O.2   172  SER172     -0.2717
     86  CB       -19.0390    7.3870  -10.1590 C.3   172  SER172      0.2103
     87  OG       -19.3540    6.3190   -9.3010 O.3   172  SER172     -0.2182
     88  N        -16.9990    9.4900  -11.1700 N.am  173  GLU173     -0.1979
     89  CA       -16.6520   10.6440  -12.0360 C.3   173  GLU173      0.1602
     90  C        -15.3520   10.3770  -12.8310 C.2   173  GLU173      0.2287
     91  O        -15.2290   10.7180  -14.0280 O.2   173  GLU173     -0.2864
     92  CB       -16.5390   11.9640  -11.2330 C.3   173  GLU173      0.0415
     93  CG       -17.8480   12.3310  -10.4930 C.3   173  GLU173      0.1163
     94  CD       -18.9690   12.7860  -11.4400 C.2   173  GLU173      0.3649
     95  OE1      -18.8330   12.5950  -12.6650 O.co2 173  GLU173     -0.2457
     96  OE2      -20.0580   13.1690  -10.9540 O.co2 173  GLU173     -0.2457
     97  N        -16.2230    8.2040  -15.6430 N.3   176  ARG176     -0.1245
     98  CA       -16.9050    9.0690  -16.6700 C.3   176  ARG176      0.1563
     99  C        -15.9860    9.9710  -17.4940 C.2   176  ARG176      0.2260
    100  O        -16.2850   10.1920  -18.6990 O.2   176  ARG176     -0.2867
    101  CB       -17.9790    9.9360  -16.0620 C.3   176  ARG176      0.0307
    102  CG       -19.0520    9.1720  -15.3060 C.3   176  ARG176      0.0489
    103  CD       -20.0240   10.1350  -14.6610 C.3   176  ARG176      0.2205
    104  NE       -21.1040    9.3290  -14.0450 N.pl3 176  ARG176     -0.0865
    105  CZ       -21.4380    9.4310  -12.7710 C.cat 176  ARG176      0.5346
    106  NH1      -20.8580   10.3760  -12.0050 N.pl3 176  ARG176      0.1354
    107  NH2      -22.4040    8.6660  -12.2810 N.pl3 176  ARG176      0.1354
    108  N        -18.5600   17.5130  -13.9500 N.3   204  GLU204     -0.1231
    109  CA       -19.4790   16.6200  -13.1880 C.3   204  GLU204      0.1699
    110  C        -20.9360   17.0570  -13.3700 C.2   204  GLU204      0.2592
    111  O        -21.8040   16.2400  -13.5770 O.2   204  GLU204     -0.2718
    112  CB       -19.1530   16.6990  -11.6850 C.3   204  GLU204      0.0402
    113  CG       -17.7560   16.1080  -11.4220 C.3   204  GLU204      0.1161
    114  CD       -17.3410   16.2580   -9.9820 C.2   204  GLU204      0.3649
    115  OE1      -18.0700   16.9010   -9.2400 O.co2 204  GLU204     -0.2457
    116  OE2      -16.2730   15.7250   -9.5970 O.co2 204  GLU204     -0.2457
    117  N        -21.1630   18.3650  -13.2540 N.am  205  ASN205     -0.1974
    118  CA       -22.4550   18.9650  -13.3830 C.3   205  ASN205      0.1688
    119  C        -23.0580   18.7970  -14.7720 C.2   205  ASN205      0.2292
    120  O        -24.2690   18.6970  -14.9040 O.2   205  ASN205     -0.2864
    121  CB       -22.3950   20.4800  -12.9800 C.3   205  ASN205      0.1181
    122  CG       -22.1990   20.6610  -11.4790 C.2   205  ASN205      0.2629
    123  OD1      -22.3570   19.7050  -10.7310 O.2   205  ASN205     -0.2716
    124  ND2      -21.9340   21.8890  -11.0490 N.am  205  ASN205     -0.0877
    125  N        -22.4150   16.2710  -17.0070 N.3   207  TRP207     -0.1241
    126  CA       -22.3100   14.9690  -17.6510 C.3   207  TRP207      0.1605
    127  C        -23.5560   14.6000  -18.3690 C.2   207  TRP207      0.2264
    128  O        -23.5140   14.1040  -19.5070 O.2   207  TRP207     -0.2867
    129  CB       -21.9650   13.9070  -16.6610 C.3   207  TRP207      0.0550
    130  CG       -21.7970   12.5380  -17.2750 C.ar  207  TRP207      0.0003
    131  CD1      -20.8550   12.1180  -18.2090 C.ar  207  TRP207      0.0946
    132  CD2      -22.5430   11.3520  -16.8890 C.ar  207  TRP207      0.0152
    133  NE1      -21.0050   10.7540  -18.4440 N.ar  207  TRP207     -0.2442
    134  CE2      -22.0150   10.2560  -17.6730 C.ar  207  TRP207      0.0810
    135  CE3      -23.6000   11.0990  -15.9570 C.ar  207  TRP207      0.0012
    136  CZ2      -22.4930    8.9490  -17.5300 C.ar  207  TRP207      0.0191
    137  CZ3      -24.0710    9.7700  -15.8400 C.ar  207  TRP207      0.0001
    138  CH2      -23.5620    8.7400  -16.6490 C.ar  207  TRP207      0.0015
@<TRIPOS>BOND
     1   128   127    2
     2   100    99    2
     3   133   131   ar
     4   133   134   ar
     5   127   126    1
     6   131   130   ar
     7   134   136   ar
     8   134   132   ar
     9   126   125    1
    10   126   129    1
    11   136   138   ar
    12    99    98    1
    13   130   132   ar
    14   130   129    1
    15   132   135   ar
    16    98   101    1
    17    98    97    1
    18   138   137   ar
    19   101   102    1
    20   135   137   ar
    21   102   103    1
    22   120   119    2
    23   119   118    1
    24   103   104    1
    25   104   105    2
    26    91    90    2
    27   108   109    1
    28   111   110    2
    29   118   117    1
    30   118   121    1
    31   110   117   am
    32   110   109    1
    33   109   112    1
    34   121   122    1
    35    85    84    2
    36    90    89    1
    37   105   107    1
    38   105   106    1
    39    95    94   ar
    40    89    92    1
    41    89    88    1
    42    84    88   am
    43    84    83    1
    44   112   113    1
    45     9     7   ar
    46     9    11   ar
    47   122   124   am
    48   122   123    2
    49    94    96   ar
    50    94    93    1
    51   113   114    1
    52     7     6   ar
    53    92    93    1
    54     1     2    1
    55    12    11    1
    56    83    86    1
    57    83    82    1
    58    11    10   ar
    59    86    87    1
    60     6     5    1
    61     6     8   ar
    62   114   116   ar
    63   114   115   ar
    64     2     5    1
    65     2     3    1
    66    10     8   ar
    67     4     3    2
    68    72    71    1
    69     3    13   am
    70    52    50   ar
    71    52    53   ar
    72    54    53    1
    73    41    40    2
    74    77    76    2
    75    50    48   ar
    76    53    51   ar
    77    73    71    1
    78    13    14    1
    79    71    70    2
    80    80    78    1
    81    40    42   am
    82    40    39    1
    83    76    75    1
    84    48    47    1
    85    48    49   ar
    86    70    69    1
    87    51    49   ar
    88    14    15    1
    89    14    17    1
    90    69    68    1
    91    39    36    1
    92    19    17    1
    93    75    78    1
    94    75    74    1
    95    47    44    1
    96    78    79    1
    97    15    16    2
    98    61    60   ar
    99    43    44    1
   100    43    37   am
   101    36    37    1
   102    36    35    1
   103    17    18    1
   104    79    81    1
   105    60    62   ar
   106    60    59    1
   107    67    68    1
   108    67    64    1
   109    44    45    1
   110    37    38    2
   111    34    33    2
   112    59    56    1
   113    35    33   am
   114    55    45   am
   115    55    56    1
   116    33    32    1
   117    45    46    2
   118    56    57    1
   119    65    64    1
   120    65    66    2
   121    64    63    1
   122    32    31    1
   123    27    29   ar
   124    27    25   ar
   125    57    58    2
   126    29    30   ar
   127    24    25    1
   128    24    21    1
   129    23    22    2
   130    25    26   ar
   131    22    21    1
   132    30    28   ar
   133    21    20    1
   134    26    28   ar
