@<TRIPOS>MOLECULE
tmp/4esnB00.pdb
 102 99 0 0 0
SMALL
GASTEIGER

@<TRIPOS>ATOM
      1  N         29.2750   -4.6580   21.4150 N.3    13  TYR13      -0.1241
      2  CA        30.2550   -5.4700   22.1080 C.3    13  TYR13       0.1605
      3  C         30.5110   -4.9030   23.5140 C.2    13  TYR13       0.2264
      4  O         30.6170   -5.6580   24.4720 O.2    13  TYR13      -0.2867
      5  CB        31.5340   -5.4380   21.2460 C.3    13  TYR13       0.0534
      6  CG        32.6000   -6.4000   21.7000 C.ar   13  TYR13      -0.0201
      7  CD1       32.5100   -7.7570   21.4130 C.ar   13  TYR13      -0.0009
      8  CD2       33.7310   -5.9450   22.3680 C.ar   13  TYR13      -0.0009
      9  CE1       33.4930   -8.6510   21.8390 C.ar   13  TYR13       0.0417
     10  CE2       34.7390   -6.8190   22.7650 C.ar   13  TYR13       0.0417
     11  CZ        34.6110   -8.1740   22.5080 C.ar   13  TYR13       0.1957
     12  OH        35.5880   -9.0270   22.9510 O.3    13  TYR13      -0.2866
     13  N         33.3820    1.7670   26.2290 N.3    16  TYR16      -0.1241
     14  CA        34.5620    1.9660   27.0490 C.3    16  TYR16       0.1605
     15  C         34.8660    3.4190   27.2480 C.2    16  TYR16       0.2264
     16  O         34.9870    4.1510   26.2730 O.2    16  TYR16      -0.2867
     17  CB        35.7600    1.2390   26.4160 C.3    16  TYR16       0.0534
     18  CG        35.3780   -0.1120   25.8610 C.ar   16  TYR16      -0.0201
     19  CD1       35.1750   -1.1980   26.7020 C.ar   16  TYR16      -0.0009
     20  CD2       35.0880   -0.2770   24.5070 C.ar   16  TYR16      -0.0009
     21  CE1       34.7200   -2.4160   26.2120 C.ar   16  TYR16       0.0417
     22  CE2       34.6200   -1.4970   24.0130 C.ar   16  TYR16       0.0417
     23  CZ        34.5020   -2.5800   24.8610 C.ar   16  TYR16       0.1957
     24  OH        34.1100   -3.8160   24.4110 O.3    16  TYR16      -0.2866
     25  N         39.5780    6.6180   30.7380 N.3    20  LYS20      -0.1231
     26  CA        40.4040    5.5710   31.3360 C.3    20  LYS20       0.1693
     27  C         41.2160    4.8550   30.2810 C.2    20  LYS20       0.2592
     28  O         40.6530    4.3270   29.3190 O.2    20  LYS20      -0.2718
     29  CB        39.5320    4.5810   32.1370 C.3    20  LYS20       0.0285
     30  CG        39.6290    4.8270   33.6430 C.3    20  LYS20       0.0035
     31  CD        38.8330    6.0420   34.1230 C.3    20  LYS20       0.0206
     32  CE        39.1600    6.4290   35.5430 C.3    20  LYS20       0.1093
     33  NZ        38.4930    7.6980   35.9170 N.3    20  LYS20      -0.1314
     34  N         42.5450    4.8580   30.4560 N.am   21  ASP21      -0.1960
     35  CA        43.4910    4.1920   29.5600 C.3    21  ASP21       0.1840
     36  C         43.2450    2.6970   29.6160 C.2    21  ASP21       0.2622
     37  O         43.1760    2.1180   30.6980 O.2    21  ASP21      -0.2715
     38  CB        44.9490    4.5360   29.9220 C.3    21  ASP21       0.1450
     39  CG        45.3530    5.9790   29.6460 C.2    21  ASP21       0.3671
     40  OD1       44.5310    6.7340   29.0570 O.co2  21  ASP21      -0.2456
     41  OD2       46.4940    6.3520   30.0000 O.co2  21  ASP21      -0.2456
     42  N         42.9910    2.1010   28.4560 N.am   22  GLN22      -0.1963
     43  CA        42.6740    0.6820   28.3680 C.3    22  GLN22       0.1733
     44  C         42.9250    0.1620   26.9780 C.2    22  GLN22       0.2617
     45  O         43.0280    0.9460   26.0320 O.2    22  GLN22      -0.2715
     46  CB        41.2250    0.3950   28.8180 C.3    22  GLN22       0.0408
     47  CG        40.1490    1.1390   28.0660 C.3    22  GLN22       0.0908
     48  CD        38.8450    1.2130   28.8280 C.2    22  GLN22       0.2608
     49  OE1       38.1990    0.1920   29.1170 O.2    22  GLN22      -0.2717
     50  NE2       38.3990    2.4430   29.0980 N.am   22  GLN22      -0.0878
     51  N         43.0980   -1.1570   26.8720 N.am   23  THR23      -0.1937
     52  CA        43.3360   -1.8670   25.6250 C.3    23  THR23       0.2028
     53  C         42.2130   -2.8960   25.4680 C.2    23  THR23       0.2642
     54  O         41.9670   -3.6660   26.3890 O.2    23  THR23      -0.2714
     55  CB        44.7460   -2.4380   25.6600 C.3    23  THR23       0.1808
     56  OG1       45.6490   -1.3460   25.5110 O.3    23  THR23      -0.2208
     57  CG2       45.0000   -3.4480   24.5750 C.3    23  THR23       0.0379
     58  N         41.4950   -2.8540   24.3380 N.am   24  ILE24      -0.1963
     59  CA        40.3650   -3.7380   24.0680 C.3    24  ILE24       0.1727
     60  C         40.6930   -4.6500   22.8940 C.2    24  ILE24       0.2616
     61  O         40.8790   -4.1860   21.7630 O.2    24  ILE24      -0.2715
     62  CB        39.0300   -2.9530   23.8120 C.3    24  ILE24       0.0290
     63  CG1       38.7360   -1.7740   24.7770 C.3    24  ILE24       0.0022
     64  CG2       37.8350   -3.8970   23.6810 C.3    24  ILE24       0.0023
     65  CD1       38.8410   -1.9470   26.2110 C.3    24  ILE24       0.0001
     66  N         40.7450   -5.9380   23.1660 N.am   25  GLU25      -0.1977
     67  CA        40.9780   -6.9450   22.1380 C.3    25  GLU25       0.1602
     68  C         39.5970   -7.3700   21.6510 C.2    25  GLU25       0.2287
     69  O         38.8050   -7.9430   22.4060 O.2    25  GLU25      -0.2864
     70  CB        41.8380   -8.1170   22.6530 C.3    25  GLU25       0.0415
     71  CG        42.4610   -8.9830   21.5490 C.3    25  GLU25       0.1163
     72  CD        43.6730   -8.3180   20.8840 C.2    25  GLU25       0.3649
     73  OE1       44.7220   -8.2040   21.5470 O.co2  25  GLU25      -0.2457
     74  OE2       43.5880   -7.9120   19.6990 O.co2  25  GLU25      -0.2457
     75  N         37.4360   -9.5440   19.6020 N.3    27  GLN27      -0.1231
     76  CA        37.2540  -10.8880   19.0360 C.3    27  GLN27       0.1698
     77  C         38.4620  -11.3980   18.1910 C.2    27  GLN27       0.2592
     78  O         38.2630  -11.9590   17.1010 O.2    27  GLN27      -0.2718
     79  CB        35.9650  -10.9400   18.1890 C.3    27  GLN27       0.0381
     80  CG        34.6770  -10.7450   18.9840 C.3    27  GLN27       0.0905
     81  CD        33.4480  -11.2600   18.2650 C.2    27  GLN27       0.2608
     82  OE1       33.3830  -11.3290   17.0320 O.2    27  GLN27      -0.2717
     83  NE2       32.4290  -11.6130   19.0310 N.am   27  GLN27      -0.0878
     84  N         39.7010  -11.2060   18.7000 N.am   28  ASP28      -0.1974
     85  CA        40.9860  -11.6780   18.1230 C.3    28  ASP28       0.1709
     86  C         41.4890  -10.9600   16.8290 C.2    28  ASP28       0.2293
     87  O         42.6790  -11.0870   16.5160 O.2    28  ASP28      -0.2864
     88  CB        40.9560  -13.2030   17.8270 C.3    28  ASP28       0.1436
     89  CG        40.5850  -14.1400   18.9710 C.2    28  ASP28       0.3671
     90  OD1       40.1940  -13.6410   20.0570 O.co2  28  ASP28      -0.2456
     91  OD2       40.6640  -15.3770   18.7730 O.co2  28  ASP28      -0.2456
     92  N         43.0960    0.8190   21.3240 N.3    33  ARG33      -0.1245
     93  CA        43.8140    1.4050   22.4510 C.3    33  ARG33       0.1563
     94  C         43.1490    2.7440   22.8340 C.2    33  ARG33       0.2260
     95  O         42.9800    3.6170   21.9740 O.2    33  ARG33      -0.2867
     96  CB        45.3040    1.5960   22.0990 C.3    33  ARG33       0.0307
     97  CG        46.0520    2.5790   23.0220 C.3    33  ARG33       0.0489
     98  CD        47.5440    2.3230   23.1040 C.3    33  ARG33       0.2205
     99  NE        47.8590    1.1060   23.8570 N.pl3  33  ARG33      -0.0865
    100  CZ        47.9510    1.0360   25.1830 C.cat  33  ARG33       0.5346
    101  NH1       47.7330    2.1120   25.9300 N.pl3  33  ARG33       0.1354
    102  NH2       48.2450   -0.1140   25.7720 N.pl3  33  ARG33       0.1354
@<TRIPOS>BOND
     1    87    86    2
     2    86    85    1
     3    82    81    2
     4    78    77    2
     5    88    85    1
     6    88    89    1
     7    85    84    1
     8    79    80    1
     9    79    76    1
    10    77    84   am
    11    77    76    1
    12    81    80    1
    13    81    83   am
    14    91    89   ar
    15    89    90   ar
    16    76    75    1
    17    74    72   ar
    18    72    73   ar
    19    72    71    1
    20     5     6    1
    21     5     2    1
    22    92    93    1
    23     7     6   ar
    24     7     9   ar
    25     1     2    1
    26    71    70    1
    27    68    67    1
    28    68    69    2
    29     6     8   ar
    30    61    60    2
    31     9    11   ar
    32    95    94    2
    33    96    93    1
    34    96    97    1
    35     2     3    1
    36    67    70    1
    37    67    66    1
    38     8    10   ar
    39    93    94    1
    40    11    10   ar
    41    11    12    1
    42    60    66   am
    43    60    59    1
    44    97    98    1
    45    98    99    1
    46     3     4    2
    47    64    62    1
    48    62    59    1
    49    62    63    1
    50    99   100    2
    51    22    20   ar
    52    22    23   ar
    53    59    58    1
    54    58    53   am
    55    24    23    1
    56    20    18   ar
    57    57    55    1
    58    63    65    1
    59    23    21   ar
    60   100   102    1
    61   100   101    1
    62    53    52    1
    63    53    54    2
    64    56    55    1
    65    52    55    1
    66    52    51    1
    67    18    17    1
    68    18    19   ar
    69    45    44    2
    70    21    19   ar
    71    13    14    1
    72    16    15    2
    73    17    14    1
    74    51    44   am
    75    44    43    1
    76    14    15    1
    77    47    46    1
    78    47    48    1
    79    43    42    1
    80    43    46    1
    81    42    36   am
    82    48    50   am
    83    48    49    2
    84    40    39   ar
    85    28    27    2
    86    35    36    1
    87    35    38    1
    88    35    34    1
    89    36    37    2
    90    39    38    1
    91    39    41   ar
    92    27    34   am
    93    27    26    1
    94    25    26    1
    95    26    29    1
    96    29    30    1
    97    30    31    1
    98    31    32    1
    99    32    33    1
