@<TRIPOS>MOLECULE
tmp/4estA00.pdb
 178 174 0 0 0
SMALL
GASTEIGER

@<TRIPOS>ATOM
      1  N          3.6720   23.3600   31.4120 N.3    20  TYR20      -0.1241
      2  CA         4.2540   22.0920   30.9830 C.3    20  TYR20       0.1605
      3  C          4.8310   22.1780   29.5700 C.2    20  TYR20       0.2264
      4  O          4.4190   23.0400   28.7960 O.2    20  TYR20      -0.2867
      5  CB         3.3080   20.9170   31.0770 C.3    20  TYR20       0.0534
      6  CG         2.1520   20.8910   30.1020 C.ar   20  TYR20      -0.0201
      7  CD1        1.0540   21.6710   30.3990 C.ar   20  TYR20      -0.0009
      8  CD2        2.2050   20.1810   28.8850 C.ar   20  TYR20      -0.0009
      9  CE1       -0.0020   21.7730   29.5060 C.ar   20  TYR20       0.0417
     10  CE2        1.1250   20.2520   28.0090 C.ar   20  TYR20       0.0417
     11  CZ         0.0000   21.0180   28.3410 C.ar   20  TYR20       0.1957
     12  OH        -1.0880   21.0780   27.5100 O.3    20  TYR20      -0.2866
     13  N          3.2450   25.5580   27.7850 N.3    27  ALA27      -0.1231
     14  CA         1.8670   25.9790   27.9250 C.3    27  ALA27       0.1694
     15  C          1.5010   26.1940   29.4070 C.2    27  ALA27       0.2592
     16  O          1.7590   25.3170   30.2090 O.2    27  ALA27      -0.2718
     17  CB         0.9990   24.8890   27.3500 C.3    27  ALA27       0.0304
     18  N          0.6580   27.1850   29.7300 N.am   28  HIS28      -0.1962
     19  CA         0.1420   27.3980   31.0850 C.3    28  HIS28       0.1787
     20  C         -0.8740   26.3210   31.4130 C.2    28  HIS28       0.2621
     21  O         -1.7310   26.0500   30.5810 O.2    28  HIS28      -0.2715
     22  CB        -0.4770   28.7850   31.2570 C.3    28  HIS28       0.0785
     23  CG        -1.2950   28.9680   32.4900 C.ar   28  HIS28       0.0821
     24  ND1       -0.7290   29.4440   33.6230 N.ar   28  HIS28      -0.2267
     25  CD2       -2.5990   28.6380   32.7610 C.ar   28  HIS28       0.1154
     26  CE1       -1.6610   29.5170   34.5850 C.ar   28  HIS28       0.1986
     27  NE2       -2.8170   28.9570   34.0660 N.ar   28  HIS28      -0.2212
     28  N         -0.7660   25.6900   32.5980 N.am   29  THR29      -0.1937
     29  CA        -1.7370   24.7130   32.9980 C.3    29  THR29       0.2028
     30  C         -2.4450   25.0350   34.3150 C.2    29  THR29       0.2642
     31  O         -3.5940   24.6350   34.4690 O.2    29  THR29      -0.2714
     32  CB        -1.2310   23.2730   32.8950 C.3    29  THR29       0.1808
     33  OG1       -2.3550   22.3920   33.1500 O.3    29  THR29      -0.2208
     34  CG2       -0.1080   23.0380   33.9390 C.3    29  THR29       0.0379
     35  N         -1.8050   25.7650   35.2320 N.am   30  CYS30      -0.1967
     36  CA        -2.2700   25.9350   36.6170 C.3    30  CYS30       0.1712
     37  C         -1.7040   27.2130   37.1760 C.2    30  CYS30       0.2296
     38  O         -0.5830   27.6020   36.8490 O.2    30  CYS30      -0.2864
     39  CB        -1.9510   24.7420   37.5160 C.3    30  CYS30       0.0983
     40  SG        -3.1630   23.3910   37.3050 S.3    30  CYS30      -0.0798
     41  N         -4.0500   17.9110   41.7270 N.3    45  HIS45      -0.1226
     42  CA        -4.5090   17.4420   40.4300 C.3    45  HIS45       0.1752
     43  C         -3.7850   18.0610   39.2430 C.2    45  HIS45       0.2596
     44  O         -3.9530   17.5350   38.1630 O.2    45  HIS45      -0.2718
     45  CB        -6.0340   17.5570   40.2450 C.3    45  HIS45       0.0759
     46  CG        -6.5430   18.9670   40.0040 C.ar   45  HIS45       0.0818
     47  ND1       -7.0610   19.7390   41.0300 N.ar   45  HIS45      -0.2268
     48  CD2       -6.6330   19.6860   38.8280 C.ar   45  HIS45       0.1154
     49  CE1       -7.4330   20.9530   40.4680 C.ar   45  HIS45       0.1986
     50  NE2       -7.2030   20.9130   39.1160 N.ar   45  HIS45      -0.2212
     51  N         -3.0830   19.1880   39.4110 N.am   46  CYS46      -0.1970
     52  CA        -2.3420   19.8990   38.3960 C.3    46  CYS46       0.1712
     53  C         -1.0190   19.1840   38.1190 C.2    46  CYS46       0.2296
     54  O         -0.4530   19.3980   37.0630 O.2    46  CYS46      -0.2864
     55  CB        -1.8800   21.2630   38.8930 C.3    46  CYS46       0.0983
     56  SG        -3.0840   22.5150   39.1020 S.3    46  CYS46      -0.0798
     57  N        -11.6060   13.9230   43.7360 N.3    88  VAL88      -0.1231
     58  CA       -11.3770   15.3160   44.1620 C.3    88  VAL88       0.1692
     59  C        -12.2310   15.6880   45.3710 C.2    88  VAL88       0.2591
     60  O        -11.8700   16.4720   46.2580 O.2    88  VAL88      -0.2718
     61  CB       -11.5130   16.2910   42.9570 C.3    88  VAL88       0.0266
     62  CG1      -12.9220   16.4210   42.3890 C.3    88  VAL88       0.0020
     63  CG2      -11.1010   17.6950   43.2550 C.3    88  VAL88       0.0020
     64  N        -13.4570   15.2100   45.3550 N.am   89  ALA89      -0.1980
     65  CA       -14.4140   15.5240   46.3760 C.3    89  ALA89       0.1597
     66  C        -13.9720   14.9970   47.7250 C.2    89  ALA89       0.2287
     67  O        -14.3820   15.6040   48.6760 O.2    89  ALA89      -0.2864
     68  CB       -15.7670   14.9040   45.9990 C.3    89  ALA89       0.0319
     69  N         -9.5050   30.3530   32.0560 N.3   134  LEU134     -0.1245
     70  CA       -10.5980   30.6770   31.0920 C.3   134  LEU134      0.1561
     71  C        -11.4630   31.8430   31.6200 C.2   134  LEU134      0.2260
     72  O        -11.8080   31.9110   32.8040 O.2   134  LEU134     -0.2867
     73  CB       -11.5250   29.4870   30.8160 C.3   134  LEU134      0.0270
     74  CG       -10.9320   28.1900   30.3540 C.3   134  LEU134      0.0019
     75  CD1      -12.0360   27.2330   29.8180 C.3   134  LEU134      0.0001
     76  CD2       -9.7600   28.3420   29.4380 C.3   134  LEU134      0.0001
     77  N         -8.0560   31.0530   27.7990 N.3   141  LEU141     -0.1245
     78  CA        -7.2470   31.5910   28.9170 C.3   141  LEU141      0.1561
     79  C         -7.1460   33.0910   28.7630 C.2   141  LEU141      0.2260
     80  O         -7.2030   33.5990   27.6280 O.2   141  LEU141     -0.2867
     81  CB        -5.7960   31.0320   28.9310 C.3   141  LEU141      0.0270
     82  CG        -5.6290   29.5160   29.1430 C.3   141  LEU141      0.0019
     83  CD1       -4.1940   29.1010   28.9690 C.3   141  LEU141      0.0001
     84  CD2       -6.1060   29.0110   30.5070 C.3   141  LEU141      0.0001
     85  N        -23.5060   22.9550   47.5000 N.3   164  TRP164     -0.1241
     86  CA       -22.6930   21.8380   47.0560 C.3   164  TRP164      0.1605
     87  C        -23.0590   20.5250   47.7130 C.2   164  TRP164      0.2264
     88  O        -22.5310   19.5030   47.2980 O.2   164  TRP164     -0.2867
     89  CB       -21.1950   22.1090   47.2720 C.3   164  TRP164      0.0550
     90  CG       -20.5810   22.9260   46.1590 C.ar  164  TRP164      0.0003
     91  CD1      -20.2320   24.2400   46.1240 C.ar  164  TRP164      0.0946
     92  CD2      -20.1770   22.3670   44.8800 C.ar  164  TRP164      0.0152
     93  NE1      -19.6580   24.5390   44.9200 N.ar  164  TRP164     -0.2442
     94  CE2      -19.5470   23.3970   44.1340 C.ar  164  TRP164      0.0810
     95  CE3      -20.2880   21.0910   44.3240 C.ar  164  TRP164      0.0012
     96  CZ2      -18.9900   23.1060   42.8760 C.ar  164  TRP164      0.0191
     97  CZ3      -19.7810   20.8220   43.0570 C.ar  164  TRP164      0.0001
     98  CH2      -19.1190   21.8220   42.3410 C.ar  164  TRP164      0.0015
     99  N        -20.5940   17.2100   48.6660 N.3   167  THR167     -0.1218
    100  CA       -19.4060   17.2080   47.8610 C.3   167  THR167      0.1862
    101  C        -18.2840   17.9660   48.5800 C.2   167  THR167      0.2287
    102  O        -17.1240   17.5940   48.4690 O.2   167  THR167     -0.2866
    103  CB       -19.8220   17.7640   46.4880 C.3   167  THR167      0.1770
    104  OG1      -20.6800   16.7910   45.8750 O.3   167  THR167     -0.2211
    105  CG2      -18.6840   17.9890   45.5430 C.3   167  THR167      0.0375
    106  N        -12.1620   29.3200   36.9850 N.3   184  CYS184     -0.1221
    107  CA       -12.5400   28.4950   35.8710 C.3   184  CYS184      0.1808
    108  C        -11.3040   27.6870   35.4450 C.2   184  CYS184      0.2601
    109  O        -10.2530   27.9040   36.0300 O.2   184  CYS184     -0.2717
    110  CB       -13.0370   29.4270   34.7770 C.3   184  CYS184      0.0970
    111  SG       -14.0160   28.6860   33.4820 S.3   184  CYS184     -0.0800
    112  N        -11.3810   26.7380   34.4880 N.am  185  GLN185     -0.1965
    113  CA       -10.2400   25.9140   34.0900 C.3   185  GLN185      0.1733
    114  C         -8.9610   26.6890   33.7910 C.2   185  GLN185      0.2616
    115  O         -9.0260   27.7930   33.2550 O.2   185  GLN185     -0.2715
    116  CB       -10.5740   25.0510   32.8770 C.3   185  GLN185      0.0408
    117  CG       -11.4130   23.8320   33.2490 C.3   185  GLN185      0.0908
    118  CD       -12.8310   24.2580   33.5830 C.2   185  GLN185      0.2608
    119  OE1      -13.3080   25.2690   33.0620 O.2   185  GLN185     -0.2717
    120  NE2      -13.5540   23.3230   34.1520 N.am  185  GLN185     -0.0878
    121  N         -7.8270   26.2750   34.3850 N.am  186  GLY186     -0.1955
    122  CA        -6.5710   27.0450   34.2890 C.3   186  GLY186      0.1869
    123  C         -6.3320   27.9620   35.4860 C.2   186  GLY186      0.2309
    124  O         -5.1770   28.3970   35.6630 O.2   186  GLY186     -0.2863
    125  N         -6.9090   26.5490   38.5470 N.3   188  SER188     -0.1217
    126  CA        -6.5980   25.4770   39.5080 C.3   188  SER188      0.1889
    127  C         -5.1950   25.5130   40.1100 C.2   188  SER188      0.2288
    128  O         -4.2900   25.9600   39.4620 O.2   188  SER188     -0.2866
    129  CB        -6.7430   24.1190   38.8330 C.3   188  SER188      0.2089
    130  OG        -8.1410   23.7870   38.5500 O.3   188  SER188     -0.2183
    131  N         -6.9410   26.8070   44.6790 N.3   206  THR206     -0.1203
    132  CA        -8.1270   26.5550   43.8360 C.3   206  THR206      0.1994
    133  C         -8.2100   25.0810   43.3900 C.2   206  THR206      0.2619
    134  O         -7.2150   24.5100   42.9370 O.2   206  THR206     -0.2717
    135  CB        -8.0790   27.4910   42.6270 C.3   206  THR206      0.1784
    136  OG1       -7.9190   28.8320   43.0380 O.3   206  THR206     -0.2211
    137  CG2       -9.3290   27.3640   41.7700 C.3   206  THR206      0.0376
    138  N         -9.3640   24.4650   43.5760 N.am  207  SER207     -0.1937
    139  CA        -9.4810   23.0560   43.3800 C.3   207  SER207      0.2055
    140  C        -10.5600   22.7260   42.3490 C.2   207  SER207      0.2643
    141  O        -10.1940   22.1370   41.3630 O.2   207  SER207     -0.2714
    142  CB        -9.7400   22.3610   44.6800 C.3   207  SER207      0.2130
    143  OG        -9.8180   20.9460   44.4860 O.3   207  SER207     -0.2179
    144  N        -11.8500   23.0520   42.5070 N.am  208  PHE208     -0.1959
    145  CA       -12.7870   22.6900   41.4750 C.3   208  PHE208      0.1771
    146  C        -13.8940   23.6730   41.2930 C.2   208  PHE208      0.2619
    147  O        -14.1090   24.5080   42.1660 O.2   208  PHE208     -0.2715
    148  CB       -13.3010   21.2390   41.6760 C.3   208  PHE208      0.0574
    149  CG       -14.0180   20.9360   42.9330 C.ar  208  PHE208     -0.0200
    150  CD1      -15.3880   21.1080   43.0020 C.ar  208  PHE208     -0.0042
    151  CD2      -13.3170   20.5130   44.0560 C.ar  208  PHE208     -0.0042
    152  CE1      -16.0560   20.7310   44.1750 C.ar  208  PHE208     -0.0003
    153  CE2      -13.9760   20.1690   45.2280 C.ar  208  PHE208     -0.0003
    154  CZ       -15.3650   20.2350   45.2610 C.ar  208  PHE208     -0.0000
    155  N        -14.6200   23.5340   40.1710 N.am  209  VAL209     -0.1963
    156  CA       -15.8440   24.2250   39.8000 C.3   209  VAL209      0.1727
    157  C        -16.9030   23.2090   39.4150 C.2   209  VAL209      0.2617
    158  O        -16.6730   22.0210   39.4490 O.2   209  VAL209     -0.2715
    159  CB       -15.7110   25.4110   38.8190 C.3   209  VAL209      0.0290
    160  CG1      -14.9240   26.6130   39.3510 C.3   209  VAL209      0.0023
    161  CG2      -15.2810   24.9640   37.4420 C.3   209  VAL209      0.0023
    162  N        -18.1310   23.6380   39.2120 N.am  210  SER210     -0.1936
    163  CA       -19.1760   22.7200   38.8200 C.3   210  SER210      0.2055
    164  C        -18.9180   22.1840   37.4070 C.2   210  SER210      0.2642
    165  O        -18.4740   22.9300   36.5620 O.2   210  SER210     -0.2714
    166  CB       -20.5030   23.4960   38.8530 C.3   210  SER210      0.2130
    167  OG       -21.4990   22.7420   38.1750 O.3   210  SER210     -0.2179
    168  N        -19.2900   20.9250   37.1600 N.am  211  ARG211     -0.1977
    169  CA       -19.3990   20.3610   35.8300 C.3   211  ARG211      0.1597
    170  C        -20.3460   21.1570   34.9470 C.2   211  ARG211      0.2287
    171  O        -20.1670   21.1680   33.7320 O.2   211  ARG211     -0.2864
    172  CB       -19.8990   18.9470   35.9430 C.3   211  ARG211      0.0334
    173  CG       -18.7620   17.9580   36.1300 C.3   211  ARG211      0.0492
    174  CD       -19.1760   16.5700   35.5550 C.3   211  ARG211      0.2205
    175  NE       -19.8950   15.8100   36.5510 N.pl3 211  ARG211     -0.0865
    176  CZ       -21.1670   15.4190   36.4510 C.cat 211  ARG211      0.5346
    177  NH1      -21.9220   15.7840   35.3840 N.pl3 211  ARG211      0.1354
    178  NH2      -21.6820   14.8200   37.5390 N.pl3 211  ARG211      0.1354
@<TRIPOS>BOND
     1    17    14    1
     2    12    11    1
     3    80    79    2
     4    13    14    1
     5    77    78    1
     6    14    15    1
     7    10    11   ar
     8    10     8   ar
     9    11     9   ar
    10    79    78    1
    11     4     3    2
    12     8     6   ar
    13    78    81    1
    14    81    82    1
    15    83    82    1
    16    82    84    1
    17    15    18   am
    18    15    16    2
    19    76    74    1
    20     9     7   ar
    21     3     2    1
    22    18    19    1
    23    75    74    1
    24     6     7   ar
    25     6     5    1
    26    74    73    1
    27    21    20    2
    28    73    70    1
    29     2     5    1
    30     2     1    1
    31    19    22    1
    32    19    20    1
    33    70    71    1
    34    70    69    1
    35    22    23    1
    36    20    28   am
    37    71    72    2
    38    23    25   ar
    39    23    24   ar
    40    28    29    1
    41    25    27   ar
    42   116   117    1
    43   116   113    1
    44    32    29    1
    45    32    33    1
    46    32    34    1
    47    29    30    1
    48   119   118    2
    49   117   118    1
    50   115   114    2
    51   111   110    1
    52   118   120   am
    53    24    26   ar
    54   171   170    2
    55   114   113    1
    56   114   121   am
    57    27    26   ar
    58   113   112    1
    59   122   121    1
    60   122   123    1
    61    30    31    2
    62    30    35   am
    63   112   108   am
    64   110   107    1
    65   170   169    1
    66    35    36    1
    67   177   176    1
    68   108   107    1
    69   108   109    2
    70   123   124    2
    71   174   173    1
    72   174   175    1
    73   169   172    1
    74   169   168    1
    75   107   106    1
    76   172   173    1
    77   176   175    2
    78   176   178    1
    79   165   164    2
    80    36    37    1
    81    36    39    1
    82    38    37    2
    83    54    53    2
    84   168   164   am
    85    40    39    1
    86    40    56    1
    87   164   163    1
    88   161   159    1
    89    53    52    1
    90    44    43    2
    91   167   166    1
    92    52    55    1
    93    52    51    1
    94   125   126    1
    95   130   129    1
    96   159   160    1
    97   159   156    1
    98   163   166    1
    99   163   162    1
   100    48    50   ar
   101    48    46   ar
   102   129   126    1
   103    55    56    1
   104    50    49   ar
   105   162   157   am
   106    43    51   am
   107    43    42    1
   108   157   158    2
   109   157   156    1
   110   128   127    2
   111   126   127    1
   112   156   155    1
   113    46    45    1
   114    46    47   ar
   115   155   146   am
   116    45    42    1
   117    42    41    1
   118    49    47   ar
   119   146   145    1
   120   146   147    2
   121   141   140    2
   122   145   148    1
   123   145   144    1
   124   148   149    1
   125   137   135    1
   126    98    96   ar
   127    98    97   ar
   128   140   144   am
   129   140   139    1
   130    62    61    1
   131   135   136    1
   132   135   132    1
   133    96    94   ar
   134   149   150   ar
   135   149   151   ar
   136   134   133    2
   137    61    63    1
   138    61    58    1
   139   150   152   ar
   140    97    95   ar
   141   139   138    1
   142   139   142    1
   143   133   138   am
   144   133   132    1
   145    57    58    1
   146   132   131    1
   147   151   153   ar
   148    94    92   ar
   149    94    93   ar
   150    58    59    1
   151   152   154   ar
   152    95    92   ar
   153   143   142    1
   154    92    90   ar
   155    93    91   ar
   156   153   154   ar
   157    64    59   am
   158    64    65    1
   159    59    60    2
   160   105   103    1
   161   104   103    1
   162    68    65    1
   163    91    90   ar
   164    90    89    1
   165    65    66    1
   166   103   100    1
   167    86    89    1
   168    86    85    1
   169    86    87    1
   170    88    87    2
   171    66    67    2
   172   100   101    1
   173   100    99    1
   174   102   101    2
