@<TRIPOS>MOLECULE
tmp/4esvE00.pdb
 183 175 0 0 0
SMALL
GASTEIGER

@<TRIPOS>ATOM
      1  N        117.0670   22.4880  107.4880 N.3   205  PRO205     -0.2102
      2  CA       117.1560   21.7150  106.2690 C.3   205  PRO205      0.1504
      3  C        117.7190   20.3250  106.4570 C.2   205  PRO205      0.2576
      4  O        118.6620   20.1610  107.1990 O.2   205  PRO205     -0.2718
      5  CB       118.1200   22.5330  105.4200 C.3   205  PRO205      0.0282
      6  CG       117.9170   23.8840  105.8580 C.3   205  PRO205      0.0208
      7  CD       117.6870   23.8020  107.3240 C.3   205  PRO205      0.0893
      8  N        117.1390   19.3470  105.7580 N.am  206  SER206     -0.1938
      9  CA       117.6120   17.9640  105.7370 C.3   206  SER206      0.2055
     10  C        117.5430   17.3640  107.1540 C.2   206  SER206      0.2643
     11  O        118.2650   16.4190  107.4800 O.2   206  SER206     -0.2714
     12  CB       119.0370   17.8830  105.1400 C.3   206  SER206      0.2130
     13  OG       119.3170   16.6640  104.4600 O.3   206  SER206     -0.2179
     14  N        116.6770   17.9120  108.0020 N.am  207  VAL207     -0.1963
     15  CA       116.4780   17.3480  109.3390 C.3   207  VAL207      0.1727
     16  C        115.4900   16.2040  109.3490 C.2   207  VAL207      0.2617
     17  O        115.6740   15.2570  110.0950 O.2   207  VAL207     -0.2715
     18  CB       116.0240   18.3940  110.3250 C.3   207  VAL207      0.0290
     19  CG1      115.3740   17.7410  111.5130 C.3   207  VAL207      0.0023
     20  CG2      117.2120   19.1960  110.7510 C.3   207  VAL207      0.0023
     21  N        114.4480   16.3070  108.5260 N.am  208  GLY208     -0.1940
     22  CA       113.4480   15.2520  108.3540 C.3   208  GLY208      0.2014
     23  C        112.0040   15.7340  108.1300 C.2   208  GLY208      0.2639
     24  O        111.0450   14.9700  108.3060 O.2   208  GLY208     -0.2714
     25  N        111.8270   16.9930  107.7530 N.am  209  LYS209     -0.1963
     26  CA       110.4870   17.5220  107.5680 C.3   209  LYS209      0.1728
     27  C        109.6390   16.6170  106.6840 C.2   209  LYS209      0.2617
     28  O        108.6680   16.0250  107.1600 O.2   209  LYS209     -0.2715
     29  CB       110.5370   18.9350  106.9760 C.3   209  LYS209      0.0311
     30  CG       110.4000   20.0740  107.9770 C.3   209  LYS209      0.0038
     31  CD       111.5870   20.9930  107.8550 C.3   209  LYS209      0.0206
     32  CE       111.6350   21.6600  106.5030 C.3   209  LYS209      0.1093
     33  NZ       112.9650   21.5020  105.8900 N.3   209  LYS209     -0.1314
     34  N        110.0120   16.5140  105.4070 N.am  210  THR210     -0.1937
     35  CA       109.2310   15.7710  104.4050 C.3   210  THR210      0.2028
     36  C        109.0660   14.3310  104.8280 C.2   210  THR210      0.2642
     37  O        107.9440   13.8310  104.8680 O.2   210  THR210     -0.2714
     38  CB       109.8950   15.7870  103.0130 C.3   210  THR210      0.1808
     39  OG1      110.2000   17.1440  102.6230 O.3   210  THR210     -0.2208
     40  CG2      109.0020   15.1150  101.9680 C.3   210  THR210      0.0379
     41  N        110.1870   13.6830  105.1550 N.am  211  ALA211     -0.1977
     42  CA       110.1750   12.3250  105.6730 C.3   211  ALA211      0.1597
     43  C        109.0360   12.1140  106.6850 C.2   211  ALA211      0.2287
     44  O        108.2080   11.2260  106.5010 O.2   211  ALA211     -0.2864
     45  CB       111.5160   12.0070  106.3000 C.3   211  ALA211      0.0319
     46  N        108.7770   20.7590   95.9190 N.3   234  GLU234     -0.1231
     47  CA       110.2210   20.6320   95.7930 C.3   234  GLU234      0.1699
     48  C        110.6080   19.2930   95.1500 C.2   234  GLU234      0.2592
     49  O        111.4430   19.2660   94.2380 O.2   234  GLU234     -0.2718
     50  CB       110.8750   20.7680   97.1770 C.3   234  GLU234      0.0402
     51  CG       112.2620   21.4120   97.1950 C.3   234  GLU234      0.1161
     52  CD       112.6930   21.7310   98.6070 C.2   234  GLU234      0.3649
     53  OE1      112.3470   20.9300   99.5050 O.co2 234  GLU234     -0.2457
     54  OE2      113.3650   22.7690   98.8220 O.co2 234  GLU234     -0.2457
     55  N        110.0180   18.1900   95.6270 N.am  235  MET235     -0.1979
     56  CA       110.3050   16.8700   95.0640 C.3   235  MET235      0.1605
     57  C        109.2350   16.4630   94.0540 C.2   235  MET235      0.2287
     58  O        108.1130   16.9810   94.0630 O.2   235  MET235     -0.2864
     59  CB       110.4380   15.8060   96.1570 C.3   235  MET235      0.0413
     60  CG       111.4330   16.1410   97.2480 C.3   235  MET235      0.0598
     61  SD       111.5210   14.8650   98.5110 S.3   235  MET235     -0.1393
     62  CE       112.1950   15.7990   99.8950 C.3   235  MET235      0.0692
     63  N        110.1420    7.1150   98.4970 N.3   243  ARG243     -0.1245
     64  CA       110.3300    7.2230   99.9380 C.3   243  ARG243      0.1563
     65  C        109.3220    6.3750  100.7280 C.2   243  ARG243      0.2260
     66  O        109.6750    5.7060  101.6860 O.2   243  ARG243     -0.2867
     67  CB       110.3620    8.6910  100.3860 C.3   243  ARG243      0.0307
     68  CG       111.7920    9.2060  100.5720 C.3   243  ARG243      0.0489
     69  CD       111.9790   10.6200  100.1090 C.3   243  ARG243      0.2205
     70  NE       112.0130   11.5610  101.2160 N.pl3 243  ARG243     -0.0865
     71  CZ       113.0090   12.4050  101.4590 C.cat 243  ARG243      0.5346
     72  NH1      114.0760   12.4330  100.6590 N.pl3 243  ARG243      0.1354
     73  NH2      112.9310   13.2410  102.4960 N.pl3 243  ARG243      0.1354
     74  N        116.2760   -0.7310  101.9840 N.3   252  ASN252     -0.1225
     75  CA       117.3050    0.3010  102.0660 C.3   252  ASN252      0.1785
     76  C        117.2550    1.2100  100.8420 C.2   252  ASN252      0.2597
     77  O        117.2930    0.7370   99.7160 O.2   252  ASN252     -0.2718
     78  CB       118.6940   -0.3070  102.2630 C.3   252  ASN252      0.1169
     79  CG       119.7960    0.7220  102.1420 C.2   252  ASN252      0.2627
     80  OD1      119.9820    1.5720  103.0060 O.2   252  ASN252     -0.2716
     81  ND2      120.5300    0.6500  101.0560 N.am  252  ASN252     -0.0877
     82  N        117.1360    2.5110  101.0780 N.am  253  ALA253     -0.1966
     83  CA       116.9240    3.4840  100.0170 C.3   253  ALA253      0.1728
     84  C        118.0130    3.4780   98.9460 C.2   253  ALA253      0.2616
     85  O        117.6860    3.5430   97.7670 O.2   253  ALA253     -0.2715
     86  CB       116.7650    4.8590  100.5850 C.3   253  ALA253      0.0334
     87  N        119.2920    3.4030   99.3340 N.am  254  GLN254     -0.1977
     88  CA       120.3930    3.3290   98.3550 C.3   254  GLN254      0.1601
     89  C        120.2400    2.1220   97.4460 C.2   254  GLN254      0.2287
     90  O        120.3060    2.2690   96.2410 O.2   254  GLN254     -0.2864
     91  CB       121.7630    3.2730   99.0170 C.3   254  GLN254      0.0394
     92  CG       122.1760    4.5210   99.7650 C.3   254  GLN254      0.0908
     93  CD       123.2620    4.2280  100.8070 C.2   254  GLN254      0.2608
     94  OE1      124.4290    4.0130  100.4590 O.2   254  GLN254     -0.2717
     95  NE2      122.8770    4.2130  102.0930 N.am  254  GLN254     -0.0878
     96  N        117.2630    2.8770   94.8530 N.3   257  ARG257     -0.1245
     97  CA       117.4890    3.7850   93.7000 C.3   257  ARG257      0.1563
     98  C        118.5750    3.3230   92.7420 C.2   257  ARG257      0.2260
     99  O        118.6930    3.8690   91.6530 O.2   257  ARG257     -0.2867
    100  CB       117.6930    5.2530   94.1080 C.3   257  ARG257      0.0307
    101  CG       118.6340    5.4970   95.2610 C.3   257  ARG257      0.0489
    102  CD       118.2400    6.7740   96.0240 C.3   257  ARG257      0.2205
    103  NE       117.5450    6.5600   97.3100 N.pl3 257  ARG257     -0.0865
    104  CZ       116.2720    6.8850   97.5620 C.cat 257  ARG257      0.5346
    105  NH1      115.5120    7.4290   96.6170 N.pl3 257  ARG257      0.1354
    106  NH2      115.7500    6.6680   98.7640 N.pl3 257  ARG257      0.1354
    107  N        104.1440   20.4470  101.0660 N.3   313  ASP313     -0.1225
    108  CA       105.5920   20.2560  101.1820 C.3   313  ASP313      0.1805
    109  C        106.4950   21.4660  101.4120 C.2   313  ASP313      0.2597
    110  O        107.5730   21.2640  101.9640 O.2   313  ASP313     -0.2718
    111  CB       106.1770   19.3430  100.1100 C.3   313  ASP313      0.1424
    112  CG       107.5240   18.7210  100.5470 C.2   313  ASP313      0.3668
    113  OD1      108.4010   18.4620   99.6670 O.co2 313  ASP313     -0.2456
    114  OD2      107.7130   18.5180  101.7810 O.co2 313  ASP313     -0.2456
    115  N        106.1320   22.6850  101.0180 N.am  314  TYR314     -0.1976
    116  CA       106.3200   23.7780  102.0240 C.3   314  TYR314      0.1639
    117  C        105.8860   25.1520  101.8050 C.2   314  TYR314      0.2290
    118  O        105.9300   25.6620  100.7260 O.2   314  TYR314     -0.2864
    119  CB       107.6230   23.7750  102.8270 C.3   314  TYR314      0.0560
    120  CG       108.8620   24.3110  102.1740 C.ar  314  TYR314     -0.0198
    121  CD1      109.1610   25.6490  102.2240 C.ar  314  TYR314     -0.0009
    122  CD2      109.7820   23.4470  101.5790 C.ar  314  TYR314     -0.0009
    123  CE1      110.3390   26.1320  101.6560 C.ar  314  TYR314      0.0417
    124  CE2      110.9430   23.9120  101.0000 C.ar  314  TYR314      0.0417
    125  CZ       111.2290   25.2550  101.0460 C.ar  314  TYR314      0.1957
    126  OH       112.4100   25.7220  100.4790 O.3   314  TYR314     -0.2866
    127  N        110.0880   26.1140  106.9000 N.3   355  GLN355     -0.1245
    128  CA       111.5100   26.2610  107.0930 C.3   355  GLN355      0.1566
    129  C        111.7580   27.0930  108.3340 C.2   355  GLN355      0.2260
    130  O        110.8060   27.6930  108.8390 O.2   355  GLN355     -0.2867
    131  CB       112.1260   26.9490  105.8910 C.3   355  GLN355      0.0367
    132  CG       113.4460   26.3270  105.5500 C.3   355  GLN355      0.0905
    133  CD       113.2520   25.0080  104.8540 C.2   355  GLN355      0.2608
    134  OE1      113.8200   23.9860  105.2440 O.2   355  GLN355     -0.2717
    135  NE2      112.4080   25.0160  103.8350 N.am  355  GLN355     -0.0878
    136  N        117.0530   16.8670  116.0440 N.3   391  ARG391     -0.1245
    137  CA       117.8350   15.6570  116.0560 C.3   391  ARG391      0.1563
    138  C        119.1600   16.0070  116.6530 C.2   391  ARG391      0.2260
    139  O        119.8740   16.8230  116.0910 O.2   391  ARG391     -0.2867
    140  CB       118.1110   15.2200  114.6200 C.3   391  ARG391      0.0307
    141  CG       117.1550   14.2190  114.0740 C.3   391  ARG391      0.0489
    142  CD       117.8360   13.3700  113.0360 C.3   391  ARG391      0.2205
    143  NE       117.8630   14.0050  111.7300 N.pl3 391  ARG391     -0.0865
    144  CZ       118.9650   14.2690  111.0410 C.cat 391  ARG391      0.5346
    145  NH1      120.1650   13.9600  111.5240 N.pl3 391  ARG391      0.1354
    146  NH2      118.8690   14.8300  109.8430 N.pl3 391  ARG391      0.1354
    147  N        114.1120    7.9150  113.9450 N.3   424  PHE424     -0.1241
    148  CA       114.1130    8.2340  112.5370 C.3   424  PHE424      0.1605
    149  C        115.2300    7.4560  111.8670 C.2   424  PHE424      0.2264
    150  O        116.3390    7.9450  111.7110 O.2   424  PHE424     -0.2867
    151  CB       114.2130    9.7560  112.3230 C.3   424  PHE424      0.0534
    152  CG       114.3140   10.1830  110.8640 C.ar  424  PHE424     -0.0203
    153  CD1      113.7670    9.4170  109.8350 C.ar  424  PHE424     -0.0042
    154  CD2      114.9550   11.3700  110.5310 C.ar  424  PHE424     -0.0042
    155  CE1      113.8740    9.8190  108.5330 C.ar  424  PHE424     -0.0003
    156  CE2      115.0560   11.7790  109.2100 C.ar  424  PHE424     -0.0003
    157  CZ       114.5170   11.0120  108.2180 C.ar  424  PHE424     -0.0000
    158  N        116.9390    6.6930  109.0390 N.3   426  LYS426     -0.1231
    159  CA       117.0730    7.4580  107.7760 C.3   426  LYS426      0.1693
    160  C        117.2840    6.5850  106.5370 C.2   426  LYS426      0.2591
    161  O        116.8250    6.9330  105.4470 O.2   426  LYS426     -0.2718
    162  CB       118.2170    8.4640  107.8530 C.3   426  LYS426      0.0285
    163  CG       118.0760    9.5220  108.9140 C.3   426  LYS426      0.0035
    164  CD       119.3860   10.2660  109.0610 C.3   426  LYS426      0.0206
    165  CE       119.4540   10.9650  110.3910 C.3   426  LYS426      0.1093
    166  NZ       119.4650   10.0370  111.5710 N.3   426  LYS426     -0.1314
    167  N        117.9910    5.4640  106.7270 N.am  427  GLU427     -0.1979
    168  CA       118.2330    4.4470  105.7030 C.3   427  GLU427      0.1602
    169  C        116.9370    3.9300  105.1250 C.2   427  GLU427      0.2287
    170  O        116.9240    3.4110  104.0230 O.2   427  GLU427     -0.2864
    171  CB       118.9570    3.2530  106.3180 C.3   427  GLU427      0.0415
    172  CG       120.3450    3.5390  106.8860 C.3   427  GLU427      0.1163
    173  CD       120.3430    3.9690  108.3520 C.2   427  GLU427      0.3649
    174  OE1      119.2650    4.2850  108.9080 O.co2 427  GLU427     -0.2457
    175  OE2      121.4460    3.9960  108.9440 O.co2 427  GLU427     -0.2457
    176  N        113.9960    5.9040  105.3180 N.3   429  ASN429     -0.1240
    177  CA       113.1010    7.0620  105.1590 C.3   429  ASN429      0.1653
    178  C        111.9430    6.9880  106.1580 C.2   429  ASN429      0.2266
    179  O        110.8420    7.5110  105.9030 O.2   429  ASN429     -0.2867
    180  CB       112.5240    7.1270  103.7250 C.3   429  ASN429      0.1155
    181  CG       113.5910    7.2350  102.6550 C.2   429  ASN429      0.2627
    182  OD1      114.6320    7.8640  102.8700 O.2   429  ASN429     -0.2716
    183  ND2      113.3330    6.6210  101.4840 N.am  429  ASN429     -0.0877
@<TRIPOS>BOND
     1    99    98    2
     2    98    97    1
     3    97   100    1
     4    97    96    1
     5    57    58    2
     6    57    56    1
     7   100   101    1
     8    49    48    2
     9    56    55    1
    10    56    59    1
    11    48    55   am
    12    48    47    1
    13   101   102    1
    14    47    46    1
    15    47    50    1
    16   102   103    1
    17    59    60    1
    18    90    89    2
    19   105   104    1
    20    50    51    1
    21    51    52    1
    22    60    61    1
    23   103   104    2
    24    89    88    1
    25   104   106    1
    26    85    84    2
    27    88    91    1
    28    88    87    1
    29    63    64    1
    30    61    62    1
    31    52    54   ar
    32    52    53   ar
    33    84    87   am
    34    84    83    1
    35    91    92    1
    36   113   112   ar
    37    77    76    2
    38    92    93    1
    39    64    67    1
    40    64    65    1
    41    83    86    1
    42    83    82    1
    43    69    68    1
    44    69    70    1
    45   111   112    1
    46   111   108    1
    47    67    68    1
    48    94    93    2
    49   126   125    1
    50   112   114   ar
    51    72    71    1
    52   118   117    2
    53    65    66    2
    54    93    95   am
    55    76    82   am
    56    76    75    1
    57   124   125   ar
    58   124   122   ar
    59   115   109   am
    60   115   116    1
    61   125   123   ar
    62    81    79   am
    63   107   108    1
    64   108   109    1
    65    70    71    2
    66   109   110    2
    67    71    73    1
    68   183   181   am
    69   122   120   ar
    70   123   121   ar
    71   117   116    1
    72    40    38    1
    73    74    75    1
    74   116   119    1
    75    75    78    1
    76    79    78    1
    77    79    80    2
    78   120   121   ar
    79   120   119    1
    80    39    38    1
    81   181   182    2
    82   181   180    1
    83    38    35    1
    84   180   177    1
    85   135   133   am
    86   170   169    2
    87    35    36    1
    88    35    34    1
    89    13    12    1
    90    36    37    2
    91    36    41   am
    92   133   134    2
    93   133   132    1
    94   169   168    1
    95    12     9    1
    96    41    42    1
    97   177   176    1
    98   177   178    1
    99    34    27   am
   100     5     6    1
   101     5     2    1
   102   161   160    2
   103   132   131    1
   104    42    45    1
   105    42    43    1
   106   168   171    1
   107   168   167    1
   108     9     8    1
   109     9    10    1
   110     8     3   am
   111     6     7    1
   112    33    32    1
   113   131   128    1
   114   179   178    2
   115     2     3    1
   116     2     1    1
   117   171   172    1
   118     3     4    2
   119    44    43    2
   120    32    31    1
   121   160   167   am
   122   160   159    1
   123    27    28    2
   124    27    26    1
   125   172   173    1
   126   127   128    1
   127    29    26    1
   128    29    30    1
   129   128   129    1
   130    10    11    2
   131    10    14   am
   132     7     1    1
   133    26    25    1
   134    25    23   am
   135   159   162    1
   136   159   158    1
   137   162   163    1
   138    31    30    1
   139    14    15    1
   140    23    24    2
   141    23    22    1
   142   157   155   ar
   143   157   156   ar
   144   129   130    2
   145   173   174   ar
   146   173   175   ar
   147    22    21    1
   148    21    16   am
   149   155   153   ar
   150   163   164    1
   151   164   165    1
   152   156   154   ar
   153    15    16    1
   154    15    18    1
   155    16    17    2
   156   153   152   ar
   157   146   144    1
   158    18    20    1
   159    18    19    1
   160   165   166    1
   161   154   152   ar
   162   152   151    1
   163   144   145    1
   164   144   143    2
   165   150   149    2
   166   143   142    1
   167   149   148    1
   168   151   148    1
   169   148   147    1
   170   142   141    1
   171   141   140    1
   172   140   137    1
   173   136   137    1
   174   137   138    1
   175   139   138    2
