@<TRIPOS>MOLECULE
tmp/4esvE01.pdb
 119 114 0 0 0
SMALL
GASTEIGER

@<TRIPOS>ATOM
      1  N         59.4280   32.7890  106.2460 N.3    28  SER28      -0.1202
      2  CA        58.7550   33.8240  107.0340 C.3    28  SER28       0.2020
      3  C         59.6550   34.4560  108.0940 C.2    28  SER28       0.2619
      4  O         59.3940   35.5740  108.5350 O.2    28  SER28      -0.2717
      5  CB        57.4880   33.2890  107.6720 C.3    28  SER28       0.2103
      6  OG        57.7930   32.7020  108.9150 O.3    28  SER28      -0.2182
      7  N         60.7060   33.7470  108.5050 N.am   29  GLU29      -0.1965
      8  CA        61.7220   34.3320  109.3860 C.3    29  GLU29       0.1733
      9  C         62.4090   35.4770  108.6700 C.2    29  GLU29       0.2616
     10  O         62.8180   36.4510  109.2910 O.2    29  GLU29      -0.2715
     11  CB        62.7750   33.3040  109.7960 C.3    29  GLU29       0.0429
     12  CG        62.3920   32.4090  110.9780 C.3    29  GLU29       0.1163
     13  CD        63.5430   31.4870  111.4250 C.2    29  GLU29       0.3649
     14  OE1       63.2880   30.2900  111.6970 O.co2  29  GLU29      -0.2457
     15  OE2       64.7050   31.9550  111.5030 O.co2  29  GLU29      -0.2457
     16  N         62.5070   35.3440  107.3520 N.am   30  ILE30      -0.1963
     17  CA        63.2360   36.2780  106.5060 C.3    30  ILE30       0.1727
     18  C         62.3270   37.3370  105.8870 C.2    30  ILE30       0.2616
     19  O         62.7540   38.4710  105.7170 O.2    30  ILE30      -0.2715
     20  CB        64.0170   35.5150  105.4030 C.3    30  ILE30       0.0290
     21  CG1       65.2160   34.7810  106.0160 C.3    30  ILE30       0.0022
     22  CG2       64.4870   36.4500  104.3090 C.3    30  ILE30       0.0023
     23  CD1       65.7120   33.5700  105.2350 C.3    30  ILE30       0.0001
     24  N         61.0830   36.9740  105.5720 N.am   31  LEU31      -0.1963
     25  CA        60.1770   37.8640  104.8380 C.3    31  LEU31       0.1728
     26  C         58.8180   38.1070  105.5010 C.2    31  LEU31       0.2616
     27  O         58.2720   37.2200  106.1780 O.2    31  LEU31      -0.2715
     28  CB        59.9060   37.2990  103.4480 C.3    31  LEU31       0.0311
     29  CG        61.0680   37.0390  102.5150 C.3    31  LEU31       0.0022
     30  CD1       60.6230   36.1010  101.4190 C.3    31  LEU31       0.0001
     31  CD2       61.5700   38.3370  101.9240 C.3    31  LEU31       0.0001
     32  N         58.2640   39.3010  105.2870 N.am   32  ILE32      -0.1977
     33  CA        56.8320   39.5080  105.4930 C.3    32  ILE32       0.1596
     34  C         56.1700   39.6540  104.1230 C.2    32  ILE32       0.2287
     35  O         56.8590   39.9570  103.1500 O.2    32  ILE32      -0.2864
     36  CB        56.5180   40.7230  106.3750 C.3    32  ILE32       0.0276
     37  CG1       57.0870   42.0000  105.7610 C.3    32  ILE32       0.0022
     38  CG2       57.0040   40.4770  107.8050 C.3    32  ILE32       0.0022
     39  CD1       56.4300   43.2560  106.2590 C.3    32  ILE32       0.0001
     40  N         57.1980   42.4040  101.5250 N.3    35  ASP35      -0.1239
     41  CA        58.5120   42.3400  100.9040 C.3    35  ASP35       0.1674
     42  C         58.4350   41.9260   99.4460 C.2    35  ASP35       0.2266
     43  O         59.2840   42.3120   98.6620 O.2    35  ASP35      -0.2867
     44  CB        59.4120   41.3610  101.6550 C.3    35  ASP35       0.1410
     45  CG        59.9070   41.9060  103.0040 C.2    35  ASP35       0.3668
     46  OD1       60.3060   43.0930  103.0600 O.co2  35  ASP35      -0.2456
     47  OD2       59.9240   41.1380  104.0100 O.co2  35  ASP35      -0.2456
     48  N         64.0390   39.7030   99.9030 N.3   103  GLU103     -0.1245
     49  CA        64.2090   40.5910  101.0430 C.3   103  GLU103      0.1567
     50  C         65.1170   41.7610  100.7370 C.2   103  GLU103      0.2260
     51  O         64.7970   42.9000  101.0740 O.2   103  GLU103     -0.2867
     52  CB        64.7740   39.8170  102.2180 C.3   103  GLU103      0.0388
     53  CG        64.6920   40.5530  103.5550 C.3   103  GLU103      0.1160
     54  CD        66.0360   41.0100  104.0900 C.2   103  GLU103      0.3649
     55  OE1       66.0250   41.9980  104.8490 O.co2 103  GLU103     -0.2457
     56  OE2       67.0840   40.3840  103.7790 O.co2 103  GLU103     -0.2457
     57  N         63.4330   44.1690   98.5220 N.3   106  SER106     -0.1202
     58  CA        62.4870   44.9010   99.3530 C.3   106  SER106      0.2020
     59  C         63.1550   46.1030  100.0300 C.2   106  SER106      0.2618
     60  O         62.6490   47.2380   99.9710 O.2   106  SER106     -0.2717
     61  CB        61.8780   43.9730  100.4040 C.3   106  SER106      0.2103
     62  OG        60.8550   44.6340  101.1170 O.3   106  SER106     -0.2182
     63  N         64.2950   45.8450  100.6610 N.am  107  VAL107     -0.1979
     64  CA        65.0500   46.8840  101.3410 C.3   107  VAL107      0.1595
     65  C         65.4570   47.9840  100.3710 C.2   107  VAL107      0.2287
     66  O         65.3170   49.1610  100.6690 O.2   107  VAL107     -0.2864
     67  CB        66.2780   46.3020  102.0450 C.3   107  VAL107      0.0276
     68  CG1       67.0690   47.3950  102.7440 C.3   107  VAL107      0.0022
     69  CG2       65.8430   45.2460  103.0460 C.3   107  VAL107      0.0022
     70  N         62.5900   50.1900   99.5940 N.3   110  ARG110     -0.1245
     71  CA        62.2550   50.9270  100.8160 C.3   110  ARG110      0.1563
     72  C         63.2070   52.1120  100.9590 C.2   110  ARG110      0.2260
     73  O         62.7910   53.2200  101.3150 O.2   110  ARG110     -0.2867
     74  CB        62.2600   50.0380  102.0600 C.3   110  ARG110      0.0307
     75  CG        61.7600   50.7620  103.2930 C.3   110  ARG110      0.0489
     76  CD        60.9460   49.8500  104.1980 C.3   110  ARG110      0.2205
     77  NE        61.8030   48.9640  104.9920 N.pl3 110  ARG110     -0.0865
     78  CZ        62.3400   49.2840  106.1730 C.cat 110  ARG110      0.5346
     79  NH1       62.1140   50.4800  106.7150 N.pl3 110  ARG110      0.1354
     80  NH2       63.1070   48.4050  106.8150 N.pl3 110  ARG110      0.1354
     81  N         67.7740   49.4370  109.9330 N.3   145  GLN145     -0.1231
     82  CA        66.9640   48.7200  110.9420 C.3   145  GLN145      0.1698
     83  C         66.0470   47.6980  110.2820 C.2   145  GLN145      0.2592
     84  O         64.8210   47.7810  110.3860 O.2   145  GLN145     -0.2718
     85  CB        66.1510   49.7080  111.8180 C.3   145  GLN145      0.0381
     86  CG        66.9670   50.6500  112.7010 C.3   145  GLN145      0.0905
     87  CD        67.8760   49.9080  113.6460 C.2   145  GLN145      0.2608
     88  OE1       67.3970   49.0170  114.3740 O.2   145  GLN145     -0.2717
     89  NE2       69.1490   50.1420  113.5780 N.am  145  GLN145     -0.0878
     90  N         66.6800   46.7540  109.5850 N.am  146  ARG146     -0.1966
     91  CA        66.0460   45.6160  108.9290 C.3   146  ARG146      0.1729
     92  C         65.9180   44.4720  109.9310 C.2   146  ARG146      0.2616
     93  O         66.8140   44.2520  110.7610 O.2   146  ARG146     -0.2715
     94  CB        66.8760   45.2270  107.7050 C.3   146  ARG146      0.0348
     95  CG        67.1600   43.7570  107.5400 C.3   146  ARG146      0.0492
     96  CD        67.7730   43.4810  106.1830 C.3   146  ARG146      0.2205
     97  NE        69.1310   43.9830  106.0200 N.pl3 146  ARG146     -0.0865
     98  CZ        69.8570   43.8550  104.9070 C.cat 146  ARG146      0.5346
     99  NH1       69.3730   43.2350  103.8250 N.pl3 146  ARG146      0.1354
    100  NH2       71.0870   44.3540  104.8740 N.pl3 146  ARG146      0.1354
    101  N         64.7960   43.7620  109.8710 N.am  147  LYS147     -0.1963
    102  CA        64.4240   42.8660  110.9730 C.3   147  LYS147      0.1728
    103  C         64.6480   41.3920  110.6650 C.2   147  LYS147      0.2616
    104  O         64.4140   40.9390  109.5390 O.2   147  LYS147     -0.2715
    105  CB        62.9740   43.1380  111.4570 C.3   147  LYS147      0.0311
    106  CG        62.6290   44.5270  111.9840 C.3   147  LYS147      0.0038
    107  CD        63.4480   44.6990  113.2120 C.3   147  LYS147      0.0206
    108  CE        63.1690   46.1940  113.5090 C.3   147  LYS147      0.1093
    109  NZ        64.3940   46.7570  114.0970 N.3   147  LYS147     -0.1314
    110  N         65.0920   40.6660  111.6990 N.am  148  HIS148     -0.1973
    111  CA        65.6070   39.2890  111.6100 C.3   148  HIS148      0.1656
    112  C         66.6450   39.1530  110.4990 C.2   148  HIS148      0.2291
    113  O         66.7180   40.0010  109.6040 O.2   148  HIS148     -0.2864
    114  CB        64.4850   38.2780  111.4670 C.3   148  HIS148      0.0771
    115  CG        63.6870   38.0930  112.7440 C.ar  148  HIS148      0.0820
    116  ND1       63.7120   37.0300  113.5390 N.ar  148  HIS148     -0.2267
    117  CD2       62.8180   38.9960  113.2920 C.ar  148  HIS148      0.1154
    118  CE1       62.8990   37.2420  114.5390 C.ar  148  HIS148      0.1986
    119  NE2       62.3640   38.4200  114.3840 N.ar  148  HIS148     -0.2212
@<TRIPOS>BOND
     1    57    58    1
     2    43    42    2
     3    58    59    1
     4    58    61    1
     5    42    41    1
     6    70    71    1
     7    48    49    1
     8    60    59    2
     9    59    63   am
    10    65    66    2
    11    65    64    1
    12    61    62    1
    13    63    64    1
    14    50    49    1
    15    50    51    2
    16    71    72    1
    17    71    74    1
    18    41    40    1
    19    41    44    1
    20    72    73    2
    21    49    52    1
    22    64    67    1
    23    30    29    1
    24    44    45    1
    25    31    29    1
    26    67    68    1
    27    67    69    1
    28    74    75    1
    29    52    53    1
    30    29    28    1
    31    45    46   ar
    32    45    47   ar
    33    35    34    2
    34    75    76    1
    35    28    25    1
    36    53    54    1
    37    56    54   ar
    38    99    98    1
    39    54    55   ar
    40    34    33    1
    41    76    77    1
    42    22    20    1
    43    25    26    1
    44    25    24    1
    45   100    98    1
    46    98    97    2
    47    77    78    2
    48    23    21    1
    49    32    33    1
    50    32    26   am
    51    20    21    1
    52    20    17    1
    53    33    36    1
    54    26    27    2
    55    24    18   am
    56    19    18    2
    57    37    39    1
    58    37    36    1
    59    18    17    1
    60    97    96    1
    61    78    79    1
    62    78    80    1
    63    96    95    1
    64     1     2    1
    65    36    38    1
    66    17    16    1
    67     2     5    1
    68     2     3    1
    69    16     9   am
    70    95    94    1
    71     5     6    1
    72    94    91    1
    73     3     7   am
    74     3     4    2
    75     7     8    1
    76     9    10    2
    77     9     8    1
    78    91    90    1
    79    91    92    1
    80     8    11    1
    81   104   103    2
    82    90    83   am
    83   113   112    2
    84    11    12    1
    85   101    92   am
    86   101   102    1
    87    92    93    2
    88    81    82    1
    89    83    84    2
    90    83    82    1
    91   112   111    1
    92   103   102    1
    93   103   110   am
    94    82    85    1
    95   102   105    1
    96    12    13    1
    97    13    15   ar
    98    13    14   ar
    99   105   106    1
   100   114   111    1
   101   114   115    1
   102   111   110    1
   103    85    86    1
   104   106   107    1
   105    86    87    1
   106   115   117   ar
   107   115   116   ar
   108   107   108    1
   109   117   119   ar
   110   108   109    1
   111   116   118   ar
   112    89    87   am
   113    87    88    2
   114   119   118   ar
