@<TRIPOS>MOLECULE
tmp/4eswB00.pdb
 105 103 0 0 0
SMALL
GASTEIGER

@<TRIPOS>ATOM
      1  N         41.7930   40.8640   10.1780 N.3    48  PRO48      -0.2102
      2  CA        41.2670   41.0270    8.8160 C.3    48  PRO48       0.1504
      3  C         42.0520   40.2440    7.7510 C.2    48  PRO48       0.2576
      4  O         41.5020   39.9610    6.6850 O.2    48  PRO48      -0.2718
      5  CB        41.3670   42.5470    8.5740 C.3    48  PRO48       0.0282
      6  CG        42.3630   43.0400    9.5680 C.3    48  PRO48       0.0208
      7  CD        42.2270   42.1400   10.7710 C.3    48  PRO48       0.0893
      8  N         43.2930   39.8790    8.0430 N.am   49  SER49      -0.1953
      9  CA        44.1100   39.1140    7.1040 C.3    49  SER49       0.1924
     10  C         43.6000   37.6920    6.9160 C.2    49  SER49       0.2314
     11  O         44.0130   37.0010    5.9820 O.2    49  SER49      -0.2863
     12  CB        45.5750   39.0780    7.5400 C.3    49  SER49       0.2116
     13  OG        46.1670   40.3590    7.4220 O.3    49  SER49      -0.2180
     14  N         35.5200   42.4640    1.4010 N.3    65  LYS65      -0.1231
     15  CA        36.9520   42.7160    1.2750 C.3    65  LYS65       0.1693
     16  C         37.1760   43.8620    0.3150 C.2    65  LYS65       0.2591
     17  O         36.4010   44.0400   -0.6350 O.2    65  LYS65      -0.2718
     18  CB        37.6740   41.4670    0.7560 C.3    65  LYS65       0.0285
     19  CG        39.1850   41.5220    0.9600 C.3    65  LYS65       0.0035
     20  CD        39.5250   41.5280    2.4570 C.3    65  LYS65       0.0206
     21  CE        41.0260   41.4840    2.6780 C.3    65  LYS65       0.1093
     22  NZ        41.3790   41.6310    4.1220 N.3    65  LYS65      -0.1314
     23  N         38.2350   44.6400    0.5410 N.am   66  ALA66      -0.1980
     24  CA        38.5620   45.6960   -0.4090 C.3    66  ALA66       0.1597
     25  C         39.0980   45.1170   -1.7200 C.2    66  ALA66       0.2287
     26  O         39.4270   43.9230   -1.8110 O.2    66  ALA66      -0.2864
     27  CB        39.5390   46.6970    0.1900 C.3    66  ALA66       0.0319
     28  N         41.9090   45.4070   -3.6520 N.3    68  VAL68      -0.1231
     29  CA        43.2530   44.8350   -3.7620 C.3    68  VAL68       0.1692
     30  C         43.2940   43.4220   -3.1870 C.2    68  VAL68       0.2592
     31  O         43.7970   42.4930   -3.8280 O.2    68  VAL68      -0.2718
     32  CB        44.3220   45.7150   -3.0680 C.3    68  VAL68       0.0266
     33  CG1       45.6580   44.9730   -3.0100 C.3    68  VAL68       0.0020
     34  CG2       44.4860   47.0150   -3.8210 C.3    68  VAL68       0.0020
     35  N         42.7360   43.2590   -1.9960 N.am   69  GLY69      -0.1957
     36  CA        42.7040   41.9550   -1.3490 C.3    69  GLY69       0.1869
     37  C         41.8630   40.9530   -2.1180 C.2    69  GLY69       0.2309
     38  O         42.1890   39.7670   -2.1630 O.2    69  GLY69      -0.2863
     39  N         50.7080   49.6610    8.8890 N.3   116  TYR116     -0.1227
     40  CA        49.8130   49.1510    7.8560 C.3   116  TYR116      0.1736
     41  C         48.9340   48.0880    8.4980 C.2   116  TYR116      0.2595
     42  O         49.2070   47.6500    9.6210 O.2   116  TYR116     -0.2718
     43  CB        50.6100   48.6110    6.6590 C.3   116  TYR116      0.0548
     44  CG        51.4740   47.4090    6.9570 C.ar  116  TYR116     -0.0200
     45  CD1       52.7240   47.5540    7.5380 C.ar  116  TYR116     -0.0009
     46  CD2       51.0470   46.1300    6.6320 C.ar  116  TYR116     -0.0009
     47  CE1       53.5180   46.4460    7.8010 C.ar  116  TYR116      0.0417
     48  CE2       51.8270   45.0280    6.8840 C.ar  116  TYR116      0.0417
     49  CZ        53.0600   45.1910    7.4680 C.ar  116  TYR116      0.1957
     50  OH        53.8340   44.0800    7.7200 O.3   116  TYR116     -0.2866
     51  N         47.8720   47.6870    7.8080 N.am  117  VAL117     -0.1966
     52  CA        46.9040   46.7690    8.3960 C.3   117  VAL117      0.1727
     53  C         47.3510   45.3150    8.3970 C.2   117  VAL117      0.2617
     54  O         47.5010   44.7030    9.4580 O.2   117  VAL117     -0.2715
     55  CB        45.5350   46.8750    7.7100 C.3   117  VAL117      0.0290
     56  CG1       44.5750   45.8320    8.2850 C.3   117  VAL117      0.0023
     57  CG2       44.9640   48.2610    7.8980 C.3   117  VAL117      0.0023
     58  N         47.5590   44.7470    7.2150 N.am  118  GLY118     -0.1940
     59  CA        47.7070   43.3070    7.1330 C.3   118  GLY118      0.2014
     60  C         48.8900   42.7930    6.3430 C.2   118  GLY118      0.2639
     61  O         49.7040   42.0220    6.8600 O.2   118  GLY118     -0.2714
     62  N         48.9710   43.1930    5.0780 N.am  119  GLU119     -0.1963
     63  CA        50.0280   42.7210    4.1960 C.3   119  GLU119      0.1733
     64  C         50.2450   43.6520    3.0080 C.2   119  GLU119      0.2616
     65  O         51.3690   44.0640    2.7260 O.2   119  GLU119     -0.2715
     66  CB        49.7190   41.3100    3.6880 C.3   119  GLU119      0.0429
     67  CG        50.7550   40.8020    2.6970 C.3   119  GLU119      0.1163
     68  CD        50.4190   39.4380    2.1110 C.2   119  GLU119      0.3649
     69  OE1       49.3180   38.9000    2.3840 O.co2 119  GLU119     -0.2457
     70  OE2       51.2690   38.9110    1.3610 O.co2 119  GLU119     -0.2457
     71  N         49.1670   43.9650    2.2980 N.am  120  PHE120     -0.1960
     72  CA        49.3040   44.6950    1.0420 C.3   120  PHE120      0.1771
     73  C         49.6460   46.1670    1.2180 C.2   120  PHE120      0.2620
     74  O         50.2170   46.7810    0.3170 O.2   120  PHE120     -0.2715
     75  CB        48.0820   44.4820    0.1480 C.3   120  PHE120      0.0574
     76  CG        47.8800   43.0490   -0.2220 C.ar  120  PHE120     -0.0200
     77  CD1       48.7200   42.4370   -1.1400 C.ar  120  PHE120     -0.0042
     78  CD2       46.8830   42.2940    0.3810 C.ar  120  PHE120     -0.0042
     79  CE1       48.5590   41.1010   -1.4730 C.ar  120  PHE120     -0.0003
     80  CE2       46.7150   40.9560    0.0500 C.ar  120  PHE120     -0.0003
     81  CZ        47.5560   40.3580   -0.8710 C.ar  120  PHE120     -0.0000
     82  N         49.3360   46.7290    2.3810 N.am  121  GLY121     -0.1954
     83  CA        49.6970   48.1070    2.6480 C.3   121  GLY121      0.1869
     84  C         51.2010   48.3110    2.5950 C.2   121  GLY121      0.2309
     85  O         51.6800   49.3100    2.0520 O.2   121  GLY121     -0.2863
     86  N         52.3350   48.2160   -0.9940 N.3   124  GLN124     -0.1245
     87  CA        52.0350   49.4900   -1.6530 C.3   124  GLN124      0.1566
     88  C         53.0340   50.5970   -1.3150 C.2   124  GLN124      0.2260
     89  O         53.5230   51.2910   -2.2070 O.2   124  GLN124     -0.2867
     90  CB        50.6210   49.9470   -1.2950 C.3   124  GLN124      0.0367
     91  CG        49.5350   49.0820   -1.9080 C.3   124  GLN124      0.0905
     92  CD        48.1570   49.6050   -1.5840 C.2   124  GLN124      0.2608
     93  OE1       47.4980   49.1120   -0.6720 O.2   124  GLN124     -0.2717
     94  NE2       47.7210   50.6290   -2.3160 N.am  124  GLN124     -0.0878
     95  N         41.1920   51.4070   -5.6960 N.3   201  PHE201     -0.1241
     96  CA        41.7580   50.2270   -5.0380 C.3   201  PHE201      0.1605
     97  C         41.2270   49.9520   -3.6270 C.2   201  PHE201      0.2264
     98  O         41.4160   48.8610   -3.0910 O.2   201  PHE201     -0.2867
     99  CB        43.2950   50.2960   -5.0340 C.3   201  PHE201      0.0534
    100  CG        43.8580   51.3790   -4.1540 C.ar  201  PHE201     -0.0203
    101  CD1       44.2630   51.0960   -2.8560 C.ar  201  PHE201     -0.0042
    102  CD2       43.9900   52.6770   -4.6300 C.ar  201  PHE201     -0.0042
    103  CE1       44.7840   52.0870   -2.0440 C.ar  201  PHE201     -0.0003
    104  CE2       44.5110   53.6740   -3.8260 C.ar  201  PHE201     -0.0003
    105  CZ        44.9030   53.3780   -2.5290 C.ar  201  PHE201     -0.0000
@<TRIPOS>BOND
     1    95    96    1
     2    96    99    1
     3    96    97    1
     4    99   100    1
     5   102   100   ar
     6   102   104   ar
     7   100   101   ar
     8    31    30    2
     9   104   105   ar
    10    34    32    1
    11    29    28    1
    12    29    30    1
    13    29    32    1
    14    97    98    2
    15    30    35   am
    16    32    33    1
    17   101   103   ar
    18   105   103   ar
    19    94    92   am
    20    89    88    2
    21    38    37    2
    22    37    36    1
    23    35    36    1
    24    91    92    1
    25    91    90    1
    26    26    25    2
    27    25    24    1
    28    87    88    1
    29    87    90    1
    30    87    86    1
    31    92    93    2
    32    79    77   ar
    33    79    81   ar
    34    77    76   ar
    35    81    80   ar
    36    17    16    2
    37    24    27    1
    38    24    23    1
    39    76    75    1
    40    76    78   ar
    41    80    78   ar
    42    75    72    1
    43    16    23   am
    44    16    15    1
    45    74    73    2
    46    18    19    1
    47    18    15    1
    48    19    20    1
    49    72    73    1
    50    72    71    1
    51    73    82   am
    52    15    14    1
    53    70    68   ar
    54    85    84    2
    55    68    69   ar
    56    68    67    1
    57    71    64   am
    58    82    83    1
    59    20    21    1
    60    84    83    1
    61    21    22    1
    62    67    66    1
    63    65    64    2
    64    64    63    1
    65    66    63    1
    66    63    62    1
    67    62    60   am
    68    11    10    2
    69    60    61    2
    70    60    59    1
    71    46    48   ar
    72    46    44   ar
    73    43    44    1
    74    43    40    1
    75     4     3    2
    76    48    49   ar
    77    10     9    1
    78    44    45   ar
    79     9    12    1
    80     9     8    1
    81    59    58    1
    82    58    53   am
    83    13    12    1
    84    49    50    1
    85    49    47   ar
    86    45    47   ar
    87    55    57    1
    88    55    56    1
    89    55    52    1
    90     3     8   am
    91     3     2    1
    92    51    52    1
    93    51    41   am
    94    40    41    1
    95    40    39    1
    96    52    53    1
    97    53    54    2
    98    41    42    2
    99     5     2    1
   100     5     6    1
   101     2     1    1
   102     6     7    1
   103     1     7    1
