@<TRIPOS>MOLECULE
tmp/4etjA01.pdb
 93 88 0 0 0
SMALL
GASTEIGER

@<TRIPOS>ATOM
      1  N          7.5520    1.7920   21.5780 N.3   121  ALA121     -0.1231
      2  CA         7.4330    2.1760   20.1740 C.3   121  ALA121      0.1694
      3  C          6.2670    1.4940   19.4560 C.2   121  ALA121      0.2591
      4  O          5.5660    2.1380   18.6900 O.2   121  ALA121     -0.2718
      5  CB         8.7380    1.8940   19.4390 C.3   121  ALA121      0.0304
      6  N          6.0730    0.1960   19.7040 N.am  122  GLU122     -0.1979
      7  CA         5.0250   -0.5750   19.0370 C.3   122  GLU122      0.1602
      8  C          3.6220   -0.0160   19.3080 C.2   122  GLU122      0.2287
      9  O          2.8060    0.1000   18.3940 O.2   122  GLU122     -0.2864
     10  CB         5.0910   -2.0650   19.4180 C.3   122  GLU122      0.0415
     11  CG         6.5080   -2.6360   19.6220 C.3   122  GLU122      0.1163
     12  CD         7.0510   -2.4410   21.0540 C.2   122  GLU122      0.3649
     13  OE1        7.6990   -1.4050   21.3160 O.co2 122  GLU122     -0.2457
     14  OE2        6.8320   -3.3250   21.9180 O.co2 122  GLU122     -0.2457
     15  N          3.3980    3.5620   17.5830 N.3   125  LEU125     -0.1231
     16  CA         3.2230    3.4550   16.1410 C.3   125  LEU125      0.1693
     17  C          1.7900    3.0280   15.7750 C.2   125  LEU125      0.2591
     18  O          1.2290    3.4960   14.8010 O.2   125  LEU125     -0.2718
     19  CB         4.2570    2.4930   15.5430 C.3   125  LEU125      0.0284
     20  CG         5.7050    2.9960   15.6350 C.3   125  LEU125      0.0019
     21  CD1        6.7210    1.9780   15.1010 C.3   125  LEU125      0.0001
     22  CD2        5.8560    4.2900   14.9020 C.3   125  LEU125      0.0001
     23  N          1.2070    2.1350   16.5620 N.am  126  ARG126     -0.1980
     24  CA        -0.1760    1.7470   16.3310 C.3   126  ARG126      0.1597
     25  C         -1.1580    2.9140   16.4940 C.2   126  ARG126      0.2287
     26  O         -2.0250    3.1060   15.6410 O.2   126  ARG126     -0.2864
     27  CB        -0.5830    0.5860   17.2330 C.3   126  ARG126      0.0334
     28  CG        -1.9620    0.0360   16.9010 C.3   126  ARG126      0.0492
     29  CD        -2.2410   -1.2850   17.6090 C.3   126  ARG126      0.2205
     30  NE        -1.3830   -2.3660   17.1360 N.pl3 126  ARG126     -0.0865
     31  CZ        -1.6030   -3.0770   16.0340 C.cat 126  ARG126      0.5346
     32  NH1       -2.6540   -2.8270   15.2710 N.pl3 126  ARG126      0.1354
     33  NH2       -0.7650   -4.0450   15.6970 N.pl3 126  ARG126      0.1354
     34  N         -0.6080    5.2350   13.5600 N.3   129  LEU129     -0.1245
     35  CA        -1.1850    4.6340   12.3570 C.3   129  LEU129      0.1561
     36  C         -2.6890    4.8990   12.2600 C.2   129  LEU129      0.2260
     37  O         -3.1950    5.2750   11.1950 O.2   129  LEU129     -0.2867
     38  CB        -0.9060    3.1320   12.3320 C.3   129  LEU129      0.0270
     39  CG        -1.6680    2.3420   11.2730 C.3   129  LEU129      0.0019
     40  CD1       -1.3210    2.8800    9.8950 C.3   129  LEU129      0.0001
     41  CD2       -1.3610    0.8410   11.3670 C.3   129  LEU129      0.0001
     42  N         10.9950   -3.1230   10.1390 N.3   153  ALA153     -0.1231
     43  CA        10.0180   -3.6610   11.0700 C.3   153  ALA153      0.1694
     44  C          8.6590   -2.9610   10.9170 C.2   153  ALA153      0.2591
     45  O          7.6230   -3.6220   10.7960 O.2   153  ALA153     -0.2718
     46  CB        10.5380   -3.5590   12.5190 C.3   153  ALA153      0.0304
     47  N          8.6660   -1.6310   10.9200 N.am  154  ALA154     -0.1980
     48  CA         7.4350   -0.8570   10.7500 C.3   154  ALA154      0.1597
     49  C          6.8200   -1.1180    9.3650 C.2   154  ALA154      0.2287
     50  O          5.6050   -1.2120    9.2060 O.2   154  ALA154     -0.2864
     51  CB         7.7240    0.6030   10.9480 C.3   154  ALA154      0.0319
     52  N          5.1220   -4.3960    9.5860 N.3   157  ALA157     -0.1231
     53  CA         3.8720   -4.2130   10.3310 C.3   157  ALA157      0.1694
     54  C          2.7930   -3.6160    9.4380 C.2   157  ALA157      0.2591
     55  O          1.6370   -4.0430    9.4690 O.2   157  ALA157     -0.2718
     56  CB         4.0880   -3.3310   11.5620 C.3   157  ALA157      0.0304
     57  N          3.1910   -2.6300    8.6390 N.am  158  LEU158     -0.1980
     58  CA         2.2800   -1.9280    7.7510 C.3   158  LEU158      0.1596
     59  C          1.7180   -2.8630    6.6760 C.2   158  LEU158      0.2287
     60  O          0.5530   -2.7510    6.3000 O.2   158  LEU158     -0.2864
     61  CB         2.9950   -0.7290    7.1240 C.3   158  LEU158      0.0297
     62  CG         2.1650    0.3960    6.5120 C.3   158  LEU158      0.0022
     63  CD1        1.2050    0.9690    7.5410 C.3   158  LEU158      0.0001
     64  CD2        3.0910    1.4790    5.9690 C.3   158  LEU158      0.0001
     65  N          1.4080   -6.1890    7.1490 N.3   160  GLU160     -0.1231
     66  CA         0.5540   -7.0870    7.9370 C.3   160  GLU160      0.1699
     67  C         -0.8380   -6.4910    8.1490 C.2   160  GLU160      0.2592
     68  O         -1.8180   -7.2200    8.3340 O.2   160  GLU160     -0.2718
     69  CB         1.1750   -7.3740    9.3090 C.3   160  GLU160      0.0402
     70  CG         2.4050   -8.2710    9.3070 C.3   160  GLU160      0.1161
     71  CD         2.9910   -8.4590   10.7030 C.2   160  GLU160      0.3649
     72  OE1        3.7240   -9.4470   10.9140 O.co2 160  GLU160     -0.2457
     73  OE2        2.7230   -7.6200   11.5910 O.co2 160  GLU160     -0.2457
     74  N         -0.9050   -5.1610    8.1270 N.am  161  HIS161     -0.1976
     75  CA        -2.1430   -4.4160    8.3430 C.3   161  HIS161      0.1656
     76  C         -3.1610   -4.6230    7.2140 C.2   161  HIS161      0.2291
     77  O         -4.3530   -4.3690    7.3970 O.2   161  HIS161     -0.2864
     78  CB        -1.8290   -2.9250    8.5090 C.3   161  HIS161      0.0771
     79  CG        -2.9080   -2.1470    9.1960 C.ar  161  HIS161      0.0820
     80  ND1       -3.3510   -2.4510   10.4660 N.ar  161  HIS161     -0.2267
     81  CD2       -3.6270   -1.0710    8.7940 C.ar  161  HIS161      0.1154
     82  CE1       -4.2990   -1.5980   10.8150 C.ar  161  HIS161      0.1986
     83  NE2       -4.4840   -0.7500    9.8180 N.ar  161  HIS161     -0.2212
     84  N         -4.0300   -7.4430    6.0580 N.3   163  HIS163     -0.1241
     85  CA        -4.6370   -8.7560    6.2360 C.3   163  HIS163      0.1621
     86  C         -5.4880   -8.7640    7.5160 C.2   163  HIS163      0.2264
     87  O         -5.0730   -9.3190    8.5340 O.2   163  HIS163     -0.2867
     88  CB        -3.5450   -9.8340    6.3050 C.3   163  HIS163      0.0745
     89  CG        -3.9530  -11.1620    5.7380 C.ar  163  HIS163      0.0817
     90  ND1       -4.3720  -12.2130    6.5270 N.ar  163  HIS163     -0.2268
     91  CD2       -3.9860  -11.6150    4.4620 C.ar  163  HIS163      0.1154
     92  CE1       -4.6570  -13.2510    5.7600 C.ar  163  HIS163      0.1986
     93  NE2       -4.4310  -12.9140    4.5030 N.ar  163  HIS163     -0.2212
@<TRIPOS>BOND
     1    91    93   ar
     2    91    89   ar
     3    93    92   ar
     4    89    88    1
     5    89    90   ar
     6    92    90   ar
     7    64    62    1
     8    84    85    1
     9    85    88    1
    10    85    86    1
    11    60    59    2
    12    62    61    1
    13    62    63    1
    14    59    58    1
    15    61    58    1
    16    65    66    1
    17    76    77    2
    18    76    75    1
    19    86    87    2
    20    58    57    1
    21    66    67    1
    22    66    69    1
    23    74    67   am
    24    74    75    1
    25    67    68    2
    26    75    78    1
    27    78    79    1
    28    57    54   am
    29    81    79   ar
    30    81    83   ar
    31    79    80   ar
    32    50    49    2
    33    70    69    1
    34    70    71    1
    35    49    48    1
    36    54    55    2
    37    54    53    1
    38    52    53    1
    39    83    82   ar
    40    40    39    1
    41    42    43    1
    42    53    56    1
    43    80    82   ar
    44    71    72   ar
    45    71    73   ar
    46    48    47    1
    47    48    51    1
    48    45    44    2
    49    44    47   am
    50    44    43    1
    51    43    46    1
    52    37    36    2
    53    39    41    1
    54    39    38    1
    55    36    35    1
    56    38    35    1
    57    35    34    1
    58    18    17    2
    59    22    20    1
    60    21    20    1
    61    32    31    1
    62    19    20    1
    63    19    16    1
    64    26    25    2
    65    33    31    1
    66    17    16    1
    67    17    23   am
    68    31    30    2
    69    16    15    1
    70    24    25    1
    71    24    23    1
    72    24    27    1
    73    28    27    1
    74    28    29    1
    75    30    29    1
    76     9     8    2
    77     4     3    2
    78     7     8    1
    79     7    10    1
    80     7     6    1
    81    10    11    1
    82     5     2    1
    83     3     6   am
    84     3     2    1
    85    11    12    1
    86     2     1    1
    87    12    13   ar
    88    12    14   ar
