@<TRIPOS>MOLECULE
tmp/4etjA02.pdb
 167 160 0 0 0
SMALL
GASTEIGER

@<TRIPOS>ATOM
      1  N          1.5730    6.3230    3.8730 N.3     3  ILE3       -0.1245
      2  CA         2.6420    6.1310    4.8490 C.3     3  ILE3        0.1561
      3  C          3.8530    5.4320    4.2300 C.2     3  ILE3        0.2260
      4  O          3.7160    4.4600    3.4920 O.2     3  ILE3       -0.2867
      5  CB         2.1730    5.2930    6.0450 C.3     3  ILE3        0.0252
      6  CG1        1.0050    5.9750    6.7430 C.3     3  ILE3        0.0019
      7  CG2        3.2940    5.1090    7.0620 C.3     3  ILE3        0.0019
      8  CD1        0.5600    5.2390    7.9770 C.3     3  ILE3        0.0001
      9  N          8.0160    4.2220    5.4490 N.3     5  HIS5       -0.1241
     10  CA         9.0120    4.1250    6.5010 C.3     5  HIS5        0.1621
     11  C         10.4090    4.0140    5.9220 C.2     5  HIS5        0.2264
     12  O         10.7120    3.1000    5.1550 O.2     5  HIS5       -0.2867
     13  CB         8.7220    2.9260    7.4040 C.3     5  HIS5        0.0745
     14  CG         7.5720    3.1470    8.3280 C.ar    5  HIS5        0.0817
     15  ND1        7.6710    3.9290    9.4570 N.ar    5  HIS5       -0.2268
     16  CD2        6.2860    2.7280    8.2690 C.ar    5  HIS5        0.1154
     17  CE1        6.5020    3.9580   10.0720 C.ar    5  HIS5        0.1986
     18  NE2        5.6430    3.2470    9.3660 N.ar    5  HIS5       -0.2212
     19  N         14.9020   14.8330   19.5740 N.3    32  VAL32      -0.1245
     20  CA        15.0260   15.4100   18.2350 C.3    32  VAL32       0.1561
     21  C         14.9880   16.9400   18.2710 C.2    32  VAL32       0.2260
     22  O         15.6280   17.5960   17.4590 O.2    32  VAL32      -0.2867
     23  CB        13.9250   14.8890   17.2880 C.3    32  VAL32       0.0252
     24  CG1       14.1900   13.4380   16.9250 C.3    32  VAL32       0.0019
     25  CG2       12.5450   15.0440   17.9340 C.3    32  VAL32       0.0019
     26  N          7.6370   12.3290   10.5290 N.3   109  PHE109     -0.1227
     27  CA         7.3900   12.1770   11.9520 C.3   109  PHE109      0.1736
     28  C          8.4280   11.2080   12.4600 C.2   109  PHE109      0.2596
     29  O          8.9220   10.3710   11.6990 O.2   109  PHE109     -0.2718
     30  CB         6.0650   11.4490   12.2280 C.3   109  PHE109      0.0547
     31  CG         4.8190   12.2940   12.1470 C.ar  109  PHE109     -0.0202
     32  CD1        4.2650   12.6450   10.9200 C.ar  109  PHE109     -0.0042
     33  CD2        4.1410   12.6470   13.3090 C.ar  109  PHE109     -0.0042
     34  CE1        3.0820   13.3600   10.8630 C.ar  109  PHE109     -0.0003
     35  CE2        2.9470   13.3630   13.2560 C.ar  109  PHE109     -0.0003
     36  CZ         2.4190   13.7190   12.0380 C.ar  109  PHE109     -0.0000
     37  N          8.7140   11.2890   13.7590 N.am  110  THR110     -0.1939
     38  CA         9.3030   10.1770   14.4850 C.3   110  THR110      0.2028
     39  C          8.2180    9.5900   15.3990 C.2   110  THR110      0.2642
     40  O          7.0740   10.0410   15.3830 O.2   110  THR110     -0.2714
     41  CB        10.5270   10.6170   15.2980 C.3   110  THR110      0.1808
     42  OG1       10.1570   11.6780   16.1850 O.3   110  THR110     -0.2208
     43  CG2       11.6300   11.0950   14.3670 C.3   110  THR110      0.0379
     44  N          8.5640    8.5730   16.1770 N.am  111  ALA111     -0.1963
     45  CA         7.5850    7.9110   17.0340 C.3   111  ALA111      0.1728
     46  C          7.3370    8.7530   18.2840 C.2   111  ALA111      0.2616
     47  O          8.0080    8.5740   19.2900 O.2   111  ALA111     -0.2715
     48  CB         8.0710    6.4910   17.4220 C.3   111  ALA111      0.0334
     49  N          6.3660    9.6590   18.2000 N.am  112  LEU112     -0.1963
     50  CA         6.1140   10.6560   19.2380 C.3   112  LEU112      0.1728
     51  C          5.9250   10.0470   20.6220 C.2   112  LEU112      0.2617
     52  O          5.0990    9.1540   20.8120 O.2   112  LEU112     -0.2715
     53  CB         4.8780   11.4720   18.8760 C.3   112  LEU112      0.0311
     54  CG         4.9170   12.3030   17.5980 C.3   112  LEU112      0.0022
     55  CD1        3.5790   13.0340   17.3950 C.3   112  LEU112      0.0001
     56  CD2        6.0440   13.2880   17.6910 C.3   112  LEU112      0.0001
     57  N          6.7000   10.5250   21.5910 N.am  113  GLY113     -0.1940
     58  CA         6.5790   10.0290   22.9420 C.3   113  GLY113      0.2014
     59  C          7.3230    8.7360   23.2220 C.2   113  GLY113      0.2639
     60  O          7.3420    8.2730   24.3620 O.2   113  GLY113     -0.2714
     61  N          7.9520    8.1400   22.2120 N.am  114  ALA114     -0.1963
     62  CA         8.6730    6.8880   22.4760 C.3   114  ALA114      0.1728
     63  C         10.1090    7.0890   22.9720 C.2   114  ALA114      0.2616
     64  O         10.7050    6.1870   23.5520 O.2   114  ALA114     -0.2715
     65  CB         8.6410    5.9720   21.2700 C.3   114  ALA114      0.0334
     66  N         10.6740    8.2670   22.7500 N.am  115  TRP115     -0.1974
     67  CA        12.0200    8.5340   23.2470 C.3   115  TRP115      0.1640
     68  C         11.9580    9.2780   24.5770 C.2   115  TRP115      0.2290
     69  O         12.1660    8.6900   25.6460 O.2   115  TRP115     -0.2864
     70  CB        12.8450    9.3100   22.2110 C.3   115  TRP115      0.0576
     71  CG        14.1960    9.7690   22.7060 C.ar  115  TRP115      0.0006
     72  CD1       14.6010   11.0590   22.8960 C.ar  115  TRP115      0.0946
     73  CD2       15.3100    8.9420   23.0760 C.ar  115  TRP115      0.0152
     74  NE1       15.8960   11.0890   23.3580 N.ar  115  TRP115     -0.2442
     75  CE2       16.3550    9.8040   23.4780 C.ar  115  TRP115      0.0810
     76  CE3       15.5270    7.5600   23.1080 C.ar  115  TRP115      0.0012
     77  CZ2       17.5960    9.3290   23.9050 C.ar  115  TRP115      0.0191
     78  CZ3       16.7660    7.0890   23.5360 C.ar  115  TRP115      0.0001
     79  CH2       17.7810    7.9730   23.9280 C.ar  115  TRP115      0.0015
     80  N          3.3980    3.5620   17.5830 N.3   125  LEU125     -0.1245
     81  CA         3.2230    3.4550   16.1410 C.3   125  LEU125      0.1561
     82  C          1.7900    3.0280   15.7750 C.2   125  LEU125      0.2260
     83  O          1.2290    3.4960   14.8010 O.2   125  LEU125     -0.2867
     84  CB         4.2570    2.4930   15.5430 C.3   125  LEU125      0.0270
     85  CG         5.7050    2.9960   15.6350 C.3   125  LEU125      0.0019
     86  CD1        6.7210    1.9780   15.1010 C.3   125  LEU125      0.0001
     87  CD2        5.8560    4.2900   14.9020 C.3   125  LEU125      0.0001
     88  N         -0.4560    6.1320   16.2170 N.3   128  MET128     -0.1230
     89  CA        -0.1390    7.0320   15.1050 C.3   128  MET128      0.1702
     90  C         -0.7580    6.5270   13.8120 C.2   128  MET128      0.2592
     91  O         -1.3920    7.2860   13.0720 O.2   128  MET128     -0.2718
     92  CB         1.3770    7.2300   14.9520 C.3   128  MET128      0.0401
     93  CG         1.9900    7.9740   16.1540 C.3   128  MET128      0.0596
     94  SD         3.7510    8.2540   15.9790 S.3   128  MET128     -0.1393
     95  CE         3.7770    9.5850   14.7760 C.3   128  MET128      0.0692
     96  N         -0.6080    5.2350   13.5600 N.am  129  LEU129     -0.1980
     97  CA        -1.1850    4.6340   12.3570 C.3   129  LEU129      0.1596
     98  C         -2.6890    4.8990   12.2600 C.2   129  LEU129      0.2287
     99  O         -3.1950    5.2750   11.1950 O.2   129  LEU129     -0.2864
    100  CB        -0.9060    3.1320   12.3320 C.3   129  LEU129      0.0297
    101  CG        -1.6680    2.3420   11.2730 C.3   129  LEU129      0.0022
    102  CD1       -1.3210    2.8800    9.8950 C.3   129  LEU129      0.0001
    103  CD2       -1.3610    0.8410   11.3670 C.3   129  LEU129      0.0001
    104  N         -3.2180    8.5790   11.4320 N.3   132  ILE132     -0.1245
    105  CA        -2.7540    8.9470   10.0920 C.3   132  ILE132      0.1561
    106  C         -3.7330    8.4790    9.0110 C.2   132  ILE132      0.2260
    107  O         -3.9370    9.1590    8.0070 O.2   132  ILE132     -0.2867
    108  CB        -1.3090    8.4300    9.8140 C.3   132  ILE132      0.0252
    109  CG1       -0.3140    9.1450   10.7360 C.3   132  ILE132      0.0019
    110  CG2       -0.9170    8.6610    8.3530 C.3   132  ILE132      0.0019
    111  CD1        1.0200    8.4300   10.8950 C.3   132  ILE132      0.0001
    112  N          2.7940   10.7830    4.8690 N.3   141  VAL141     -0.1245
    113  CA         3.5620   10.7810    6.0940 C.3   141  VAL141      0.1561
    114  C          4.7670    9.8530    5.9670 C.2   141  VAL141      0.2260
    115  O          4.6370    8.6860    5.5880 O.2   141  VAL141     -0.2867
    116  CB         2.6960   10.3480    7.2900 C.3   141  VAL141      0.0252
    117  CG1        3.5460   10.2020    8.5350 C.3   141  VAL141      0.0019
    118  CG2        1.5900   11.3700    7.5190 C.3   141  VAL141      0.0019
    119  N          7.7070    8.1540    8.1470 N.3   143  GLY143     -0.1210
    120  CA         8.3170    7.8430    9.4240 C.3   143  GLY143      0.1956
    121  C          9.8140    7.6640    9.2280 C.2   143  GLY143      0.2612
    122  O         10.2510    6.8690    8.4060 O.2   143  GLY143     -0.2717
    123  N         10.6060    8.4160    9.9790 N.am  144  VAL144     -0.1965
    124  CA        12.0570    8.3730    9.8300 C.3   144  VAL144      0.1727
    125  C         12.6970    7.5860   10.9790 C.2   144  VAL144      0.2616
    126  O         12.4580    7.8910   12.1370 O.2   144  VAL144     -0.2715
    127  CB        12.6380    9.8060    9.8060 C.3   144  VAL144      0.0290
    128  CG1       14.1340    9.7690    9.5920 C.3   144  VAL144      0.0023
    129  CG2       11.9560   10.6420    8.7200 C.3   144  VAL144      0.0023
    130  N         13.5060    6.5790   10.6550 N.am  145  HIS145     -0.1959
    131  CA        14.1190    5.7270   11.6720 C.3   145  HIS145      0.1787
    132  C         15.6340    5.8560   11.6890 C.2   145  HIS145      0.2620
    133  O         16.2520    6.1370   10.6660 O.2   145  HIS145     -0.2715
    134  CB        13.7790    4.2620   11.4150 C.3   145  HIS145      0.0785
    135  CG        12.3140    3.9870   11.3250 C.ar  145  HIS145      0.0821
    136  ND1       11.6290    3.2890   12.2950 N.ar  145  HIS145     -0.2267
    137  CD2       11.4040    4.2990   10.3720 C.ar  145  HIS145      0.1154
    138  CE1       10.3580    3.1920   11.9490 C.ar  145  HIS145      0.1986
    139  NE2       10.1960    3.7930   10.7850 N.ar  145  HIS145     -0.2212
    140  N         16.2330    5.6250   12.8530 N.am  146  GLY146     -0.1954
    141  CA        17.6790    5.6180   12.9640 C.3   146  GLY146      0.1869
    142  C         18.3000    4.4010   12.3030 C.2   146  GLY146      0.2309
    143  O         19.4640    4.4240   11.8990 O.2   146  GLY146     -0.2863
    144  N         14.9170   -1.0740   12.1620 N.3   150  SER150     -0.1217
    145  CA        13.7430   -0.3650   12.6620 C.3   150  SER150      0.1889
    146  C         12.7050   -0.0560   11.5650 C.2   150  SER150      0.2288
    147  O         11.5160   -0.3710   11.7070 O.2   150  SER150     -0.2866
    148  CB        14.1900    0.9200   13.3550 C.3   150  SER150      0.2089
    149  OG        13.0920    1.6290   13.8830 O.3   150  SER150     -0.2183
    150  N          8.6660   -1.6310   10.9200 N.3   154  ALA154     -0.1245
    151  CA         7.4350   -0.8570   10.7500 C.3   154  ALA154      0.1562
    152  C          6.8200   -1.1180    9.3650 C.2   154  ALA154      0.2260
    153  O          5.6050   -1.2120    9.2060 O.2   154  ALA154     -0.2867
    154  CB         7.7240    0.6030   10.9480 C.3   154  ALA154      0.0290
    155  N          5.1220   -4.3960    9.5860 N.3   157  ALA157     -0.1231
    156  CA         3.8720   -4.2130   10.3310 C.3   157  ALA157      0.1694
    157  C          2.7930   -3.6160    9.4380 C.2   157  ALA157      0.2591
    158  O          1.6370   -4.0430    9.4690 O.2   157  ALA157     -0.2718
    159  CB         4.0880   -3.3310   11.5620 C.3   157  ALA157      0.0304
    160  N          3.1910   -2.6300    8.6390 N.am  158  LEU158     -0.1980
    161  CA         2.2800   -1.9280    7.7510 C.3   158  LEU158      0.1596
    162  C          1.7180   -2.8630    6.6760 C.2   158  LEU158      0.2287
    163  O          0.5530   -2.7510    6.3000 O.2   158  LEU158     -0.2864
    164  CB         2.9950   -0.7290    7.1240 C.3   158  LEU158      0.0297
    165  CG         2.1650    0.3960    6.5120 C.3   158  LEU158      0.0022
    166  CD1        1.2050    0.9690    7.5410 C.3   158  LEU158      0.0001
    167  CD2        3.0910    1.4790    5.9690 C.3   158  LEU158      0.0001
@<TRIPOS>BOND
     1     4     3    2
     2     1     2    1
     3     3     2    1
     4     2     5    1
     5   112   113    1
     6    12    11    2
     7     9    10    1
     8   115   114    2
     9    11    10    1
    10   114   113    1
    11   167   165    1
    12     5     6    1
    13     5     7    1
    14   113   116    1
    15   163   162    2
    16    10    13    1
    17   165   164    1
    18   165   166    1
    19   162   161    1
    20     6     8    1
    21   164   161    1
    22   116   118    1
    23   116   117    1
    24    13    14    1
    25   161   160    1
    26   107   106    2
    27   119   120    1
    28    16    14   ar
    29    16    18   ar
    30    14    15   ar
    31   110   108    1
    32   122   121    2
    33   160   157   am
    34   129   127    1
    35   106   105    1
    36   153   152    2
    37   121   120    1
    38   121   123   am
    39   152   151    1
    40    18    17   ar
    41   157   158    2
    42   157   156    1
    43    15    17   ar
    44   155   156    1
    45   128   127    1
    46   127   124    1
    47   108   105    1
    48   108   109    1
    49   124   123    1
    50   124   125    1
    51   102   101    1
    52   105   104    1
    53   156   159    1
    54   137   139   ar
    55   137   135   ar
    56    26    27    1
    57   130   125   am
    58   130   131    1
    59   133   132    2
    60   109   111    1
    61   151   150    1
    62   151   154    1
    63   139   138   ar
    64    34    32   ar
    65    34    36   ar
    66    32    31   ar
    67   125   126    2
    68    99    98    2
    69   101   103    1
    70   101   100    1
    71   135   134    1
    72   135   136   ar
    73   134   131    1
    74   146   147    2
    75   146   145    1
    76   131   132    1
    77   132   140   am
    78    29    28    2
    79   143   142    2
    80   138   136   ar
    81    27    30    1
    82    27    28    1
    83    36    35   ar
    84    31    30    1
    85    31    33   ar
    86   144   145    1
    87    98    97    1
    88   142   141    1
    89   100    97    1
    90    97    96    1
    91    28    37   am
    92   145   148    1
    93   140   141    1
    94    91    90    2
    95    35    33   ar
    96   148   149    1
    97    96    90   am
    98    37    38    1
    99    90    89    1
   100    43    41    1
   101    38    41    1
   102    38    39    1
   103    95    94    1
   104    83    82    2
   105    87    85    1
   106    92    89    1
   107    92    93    1
   108    86    85    1
   109    89    88    1
   110    41    42    1
   111    40    39    2
   112    39    44   am
   113    84    85    1
   114    84    81    1
   115    82    81    1
   116    94    93    1
   117    81    80    1
   118    44    45    1
   119    24    23    1
   120    45    48    1
   121    45    46    1
   122    23    25    1
   123    23    20    1
   124    55    54    1
   125    22    21    2
   126    54    56    1
   127    54    53    1
   128    49    46   am
   129    49    50    1
   130    20    21    1
   131    20    19    1
   132    46    47    2
   133    53    50    1
   134    50    51    1
   135    51    52    2
   136    51    57   am
   137    65    62    1
   138    57    58    1
   139    70    71    1
   140    70    67    1
   141    61    62    1
   142    61    59   am
   143    62    63    1
   144    71    72   ar
   145    71    73   ar
   146    66    63   am
   147    66    67    1
   148    72    74   ar
   149    58    59    1
   150    63    64    2
   151    73    76   ar
   152    73    75   ar
   153    76    78   ar
   154    59    60    2
   155    67    68    1
   156    74    75   ar
   157    75    77   ar
   158    78    79   ar
   159    77    79   ar
   160    68    69    2
