@<TRIPOS>MOLECULE
tmp/4etjA00.pdb
 82 78 0 0 0
SMALL
GASTEIGER

@<TRIPOS>ATOM
      1  N          5.0410    5.9320    4.5370 N.3     4  ARG4       -0.1245
      2  CA         6.2620    5.2390    4.1590 C.3     4  ARG4        0.1563
      3  C          7.1980    5.2620    5.3480 C.2     4  ARG4        0.2260
      4  O          7.1800    6.2030    6.1570 O.2     4  ARG4       -0.2867
      5  CB         6.9310    5.9120    2.9480 C.3     4  ARG4        0.0307
      6  CG         7.3440    7.3570    3.2330 C.3     4  ARG4        0.0489
      7  CD         7.7390    8.1080    1.9920 C.3     4  ARG4        0.2205
      8  NE         9.0580    7.7400    1.4960 N.pl3   4  ARG4       -0.0865
      9  CZ        10.1340    8.5080    1.5980 C.cat   4  ARG4        0.5346
     10  NH1       10.0510    9.6860    2.2040 N.pl3   4  ARG4        0.1354
     11  NH2       11.2850    8.1060    1.0980 N.pl3   4  ARG4        0.1354
     12  N         11.2710    4.9400    6.3100 N.3     6  VAL6       -0.1231
     13  CA        12.6260    4.9220    5.7940 C.3     6  VAL6        0.1692
     14  C         13.6400    5.2160    6.8950 C.2     6  VAL6        0.2592
     15  O         13.3100    5.7640    7.9360 O.2     6  VAL6       -0.2718
     16  CB        12.7900    5.9360    4.6350 C.3     6  VAL6        0.0266
     17  CG1       12.1130    5.4280    3.3450 C.3     6  VAL6        0.0020
     18  CG2       12.2190    7.2690    5.0370 C.3     6  VAL6        0.0020
     19  N         14.8800    4.8340    6.6520 N.am    7  GLN7       -0.1966
     20  CA        15.9730    5.1950    7.5360 C.3     7  GLN7        0.1733
     21  C         16.4910    6.5680    7.1300 C.2     7  GLN7        0.2617
     22  O         16.6090    6.8730    5.9360 O.2     7  GLN7       -0.2715
     23  CB        17.1020    4.1630    7.4300 C.3     7  GLN7        0.0408
     24  CG        18.1520    4.2820    8.5230 C.3     7  GLN7        0.0908
     25  CD        19.2700    5.2380    8.1620 C.2     7  GLN7        0.2608
     26  OE1       19.6880    5.3080    7.0060 O.2     7  GLN7       -0.2717
     27  NE2       19.7580    5.9850    9.1490 N.am    7  GLN7       -0.0878
     28  N         16.8030    7.3940    8.1220 N.am    8  GLY8       -0.1940
     29  CA        17.4290    8.6740    7.8570 C.3     8  GLY8        0.2014
     30  C         17.5300    9.5760    9.0680 C.2     8  GLY8        0.2638
     31  O         17.3880    9.1520   10.2210 O.2     8  GLY8       -0.2714
     32  N         17.7800   10.8420    8.7870 N.am    9  ASP9       -0.1971
     33  CA        17.8930   11.8600    9.8110 C.3     9  ASP9        0.1709
     34  C         16.7710   12.8370    9.5280 C.2     9  ASP9        0.2293
     35  O         16.7560   13.4880    8.4810 O.2     9  ASP9       -0.2864
     36  CB        19.2600   12.5420    9.6990 C.3     9  ASP9        0.1436
     37  CG        19.4160   13.7240   10.6430 C.2     9  ASP9        0.3671
     38  OD1       18.5260   13.9510   11.4900 O.co2   9  ASP9       -0.2456
     39  OD2       20.4500   14.4220   10.5420 O.co2   9  ASP9       -0.2456
     40  N         17.1190   16.3150    8.0430 N.3    12  GLU12      -0.1231
     41  CA        17.5490   16.4770    6.6590 C.3    12  GLU12       0.1699
     42  C         16.4130   16.1400    5.6870 C.2    12  GLU12       0.2592
     43  O         16.6020   16.1510    4.4760 O.2    12  GLU12      -0.2718
     44  CB        18.7940   15.6320    6.3670 C.3    12  GLU12       0.0402
     45  CG        20.0410   16.0670    7.1260 C.3    12  GLU12       0.1161
     46  CD        20.4610   17.4990    6.8140 C.2    12  GLU12       0.3649
     47  OE1       20.3080   17.9350    5.6530 O.co2  12  GLU12      -0.2457
     48  OE2       20.9390   18.1940    7.7370 O.co2  12  GLU12      -0.2457
     49  N         15.2340   15.8450    6.2370 N.am   13  PHE13      -0.1962
     50  CA        14.0320   15.5970    5.4440 C.3    13  PHE13       0.1771
     51  C         13.7800   16.7610    4.5070 C.2    13  PHE13       0.2619
     52  O         13.8550   17.9150    4.9220 O.2    13  PHE13      -0.2715
     53  CB        12.8230   15.4210    6.3590 C.3    13  PHE13       0.0574
     54  CG        11.5660   15.0090    5.6420 C.ar   13  PHE13      -0.0200
     55  CD1       11.4710   13.7590    5.0430 C.ar   13  PHE13      -0.0042
     56  CD2       10.4660   15.8580    5.6020 C.ar   13  PHE13      -0.0042
     57  CE1       10.3080   13.3770    4.3940 C.ar   13  PHE13      -0.0003
     58  CE2        9.2960   15.4790    4.9740 C.ar   13  PHE13      -0.0003
     59  CZ         9.2140   14.2400    4.3670 C.ar   13  PHE13      -0.0000
     60  N         13.4560   16.4610    3.2530 N.am   14  GLN14      -0.1977
     61  CA        13.3760   17.4940    2.2420 C.3    14  GLN14       0.1601
     62  C         11.9520   17.6880    1.7140 C.2    14  GLN14       0.2287
     63  O         11.7400   17.7460    0.5110 O.2    14  GLN14      -0.2864
     64  CB        14.3270   17.1400    1.0890 C.3    14  GLN14       0.0394
     65  CG        14.8780   18.3270    0.3340 C.3    14  GLN14       0.0908
     66  CD        16.3010   18.6810    0.7360 C.2    14  GLN14       0.2608
     67  OE1       16.8590   18.1090    1.6760 O.2    14  GLN14      -0.2717
     68  NE2       16.8940   19.6320    0.0200 N.am   14  GLN14      -0.0878
     69  N          5.9410   10.3940    6.2580 N.3   142  THR142     -0.1218
     70  CA         7.1700    9.6150    6.2830 C.3   142  THR142      0.1862
     71  C          7.5840    9.4100    7.7340 C.2   142  THR142      0.2287
     72  O          7.7530   10.3790    8.4810 O.2   142  THR142     -0.2866
     73  CB         8.2950   10.3630    5.5560 C.3   142  THR142      0.1770
     74  OG1        7.9490   10.5330    4.1750 O.3   142  THR142     -0.2211
     75  CG2        9.6210    9.6210    5.6780 C.3   142  THR142      0.0375
     76  N         10.6060    8.4160    9.9790 N.3   144  VAL144     -0.1245
     77  CA        12.0570    8.3730    9.8300 C.3   144  VAL144      0.1561
     78  C         12.6970    7.5860   10.9790 C.2   144  VAL144      0.2260
     79  O         12.4580    7.8910   12.1370 O.2   144  VAL144     -0.2867
     80  CB        12.6380    9.8060    9.8060 C.3   144  VAL144      0.0252
     81  CG1       14.1340    9.7690    9.5920 C.3   144  VAL144      0.0019
     82  CG2       11.9560   10.6420    8.7200 C.3   144  VAL144      0.0019
@<TRIPOS>BOND
     1    68    66   am
     2    65    66    1
     3    65    64    1
     4    63    62    2
     5    66    67    2
     6    64    61    1
     7    11     9    1
     8     8     9    2
     9     8     7    1
    10     9    10    1
    11    62    61    1
    12     7     6    1
    13    61    60    1
    14     5     6    1
    15     5     2    1
    16    60    51   am
    17    17    16    1
    18     2     1    1
    19     2     3    1
    20    74    73    1
    21    59    57   ar
    22    59    58   ar
    23    57    55   ar
    24    43    42    2
    25    51    52    2
    26    51    50    1
    27    16    18    1
    28    16    13    1
    29    58    56   ar
    30    55    54   ar
    31     3     4    2
    32    50    49    1
    33    50    53    1
    34    73    75    1
    35    73    70    1
    36    56    54   ar
    37    54    53    1
    38    47    46   ar
    39    42    49   am
    40    42    41    1
    41    13    12    1
    42    13    14    1
    43    22    21    2
    44    69    70    1
    45    70    71    1
    46    44    41    1
    47    44    45    1
    48    19    14   am
    49    19    20    1
    50    41    40    1
    51    46    45    1
    52    46    48   ar
    53    14    15    2
    54    26    25    2
    55    21    20    1
    56    21    28   am
    57    23    20    1
    58    23    24    1
    59    71    72    2
    60    29    28    1
    61    29    30    1
    62    25    24    1
    63    25    27   am
    64    35    34    2
    65    82    80    1
    66    32    30   am
    67    32    33    1
    68    30    31    2
    69    34    33    1
    70    81    80    1
    71    36    33    1
    72    36    37    1
    73    80    77    1
    74    77    76    1
    75    77    78    1
    76    39    37   ar
    77    37    38   ar
    78    78    79    2
