@<TRIPOS>MOLECULE
tmp/4etpA00.pdb
 134 128 0 0 0
SMALL
GASTEIGER

@<TRIPOS>ATOM
      1  N         -3.3880  -12.0630  -15.5450 N.3    62  ARG62      -0.1245
      2  CA        -4.4570  -12.9240  -16.0360 C.3    62  ARG62       0.1563
      3  C         -5.8220  -12.2560  -15.9610 C.2    62  ARG62       0.2260
      4  O         -6.3210  -11.9460  -14.8760 O.2    62  ARG62      -0.2867
      5  CB        -4.5040  -14.2730  -15.3200 C.3    62  ARG62       0.0307
      6  CG        -5.5640  -15.1680  -15.9410 C.3    62  ARG62       0.0489
      7  CD        -5.7060  -16.5180  -15.2760 C.3    62  ARG62       0.2205
      8  NE        -6.4550  -17.4190  -16.1520 N.pl3  62  ARG62      -0.0865
      9  CZ        -6.7210  -18.6900  -15.8770 C.cat  62  ARG62       0.5346
     10  NH1       -6.3120  -19.2280  -14.7330 N.pl3  62  ARG62       0.1354
     11  NH2       -7.3950  -19.4250  -16.7510 N.pl3  62  ARG62       0.1354
     12  N         -9.5610  -12.8960  -16.3560 N.3    64  ARG64      -0.1231
     13  CA       -10.5450  -13.9660  -16.3830 C.3    64  ARG64       0.1679
     14  C        -11.6880  -13.6020  -17.3380 C.2    64  ARG64       0.2434
     15  O        -11.8520  -12.4280  -17.6840 O.2    64  ARG64      -0.2733
     16  CB       -11.0800  -14.2430  -14.9700 C.3    64  ARG64       0.0321
     17  CG       -11.7890  -13.0670  -14.3110 C.3    64  ARG64       0.0489
     18  CD       -12.9120  -13.5500  -13.4060 C.3    64  ARG64       0.2205
     19  NE       -13.4690  -12.4800  -12.5770 N.pl3  64  ARG64      -0.0865
     20  CZ       -14.3510  -11.5740  -12.9950 C.cat  64  ARG64       0.5346
     21  NH1      -14.7910  -10.6470  -12.1500 N.pl3  64  ARG64       0.1354
     22  NH2      -14.7960  -11.5880  -14.2520 N.pl3  64  ARG64       0.1354
     23  N        -12.4770  -14.6030  -17.7740 N.am   65  PRO65      -0.2729
     24  CA       -13.6840  -14.3120  -18.5500 C.3    65  PRO65       0.1401
     25  C        -14.6510  -13.4210  -17.7750 C.2    65  PRO65       0.2269
     26  O        -14.7060  -13.4910  -16.5450 O.2    65  PRO65      -0.2865
     27  CB       -14.3190  -15.6940  -18.7480 C.3    65  PRO65       0.0296
     28  CG       -13.1790  -16.6520  -18.6620 C.3    65  PRO65       0.0237
     29  CD       -12.2180  -16.0520  -17.6760 C.3    65  PRO65       0.0939
     30  N        -18.1870  -12.1930  -16.2560 N.3    67  LEU67      -0.1245
     31  CA       -19.2580  -12.9310  -15.5970 C.3    67  LEU67       0.1561
     32  C        -20.5960  -12.2080  -15.7420 C.2    67  LEU67       0.2260
     33  O        -20.8020  -11.1420  -15.1580 O.2    67  LEU67      -0.2867
     34  CB       -18.9320  -13.1440  -14.1130 C.3    67  LEU67       0.0270
     35  CG       -17.6320  -13.8630  -13.7270 C.3    67  LEU67       0.0019
     36  CD1      -17.2820  -13.5680  -12.2770 C.3    67  LEU67       0.0001
     37  CD2      -17.7190  -15.3650  -13.9660 C.3    67  LEU67       0.0001
     38  N        -23.0800  -10.6780  -13.1100 N.3    70  LEU70      -0.1245
     39  CA       -22.5500  -10.2660  -11.8110 C.3    70  LEU70       0.1561
     40  C        -21.6980   -9.0070  -11.9070 C.2    70  LEU70       0.2260
     41  O        -21.2910   -8.4400  -10.8920 O.2    70  LEU70      -0.2867
     42  CB       -21.7530  -11.4100  -11.1730 C.3    70  LEU70       0.0270
     43  CG       -22.4870  -12.7470  -10.9970 C.3    70  LEU70       0.0019
     44  CD1      -21.5410  -13.8130  -10.4630 C.3    70  LEU70       0.0001
     45  CD2      -23.7070  -12.6050  -10.0930 C.3    70  LEU70       0.0001
     46  N         -7.7910  -17.4970  -22.5110 N.3   116  ASP116     -0.1239
     47  CA        -6.7050  -18.3520  -22.0260 C.3   116  ASP116      0.1674
     48  C         -7.1310  -19.1980  -20.8260 C.2   116  ASP116      0.2266
     49  O         -7.5190  -18.6790  -19.7760 O.2   116  ASP116     -0.2867
     50  CB        -5.4450  -17.5330  -21.7230 C.3   116  ASP116      0.1410
     51  CG        -4.8160  -16.9500  -22.9780 C.2   116  ASP116      0.3668
     52  OD1       -4.5940  -17.7060  -23.9450 O.co2 116  ASP116     -0.2456
     53  OD2       -4.5430  -15.7330  -23.0020 O.co2 116  ASP116     -0.2456
     54  N         -8.0740   -8.6500   -6.4870 N.3   145  GLN145     -0.1231
     55  CA        -9.2680   -8.4340   -5.6670 C.3   145  GLN145      0.1698
     56  C        -10.0910   -9.7180   -5.5250 C.2   145  GLN145      0.2593
     57  O        -10.0330  -10.6040   -6.3860 O.2   145  GLN145     -0.2718
     58  CB       -10.1300   -7.2980   -6.2400 C.3   145  GLN145      0.0381
     59  CG       -10.8510   -7.6350   -7.5400 C.3   145  GLN145      0.0905
     60  CD       -11.8200   -6.5560   -7.9860 C.2   145  GLN145      0.2608
     61  OE1      -12.6400   -6.0640   -7.2040 O.2   145  GLN145     -0.2717
     62  NE2      -11.7400   -6.1910   -9.2570 N.am  145  GLN145     -0.0878
     63  N        -10.8430   -9.8200   -4.4310 N.am  146  THR146     -0.1939
     64  CA       -11.8160  -10.8970   -4.2740 C.3   146  THR146      0.2028
     65  C        -12.7310  -10.8810   -5.4970 C.2   146  THR146      0.2643
     66  O        -13.2320   -9.8230   -5.8880 O.2   146  THR146     -0.2714
     67  CB       -12.6380  -10.7270   -2.9850 C.3   146  THR146      0.1808
     68  OG1      -11.7510  -10.6930   -1.8630 O.3   146  THR146     -0.2208
     69  CG2      -13.6390  -11.8800   -2.8010 C.3   146  THR146      0.0379
     70  N        -12.9080  -12.0470   -6.1110 N.am  147  GLY147     -0.1939
     71  CA       -13.7210  -12.1780   -7.3160 C.3   147  GLY147      0.2014
     72  C        -12.9420  -12.1570   -8.6230 C.2   147  GLY147      0.2640
     73  O        -13.5250  -12.3770   -9.6850 O.2   147  GLY147     -0.2714
     74  N        -11.6330  -11.9040   -8.5560 N.am  148  SER148     -0.1935
     75  CA       -10.8180  -11.7530   -9.7750 C.3   148  SER148      0.2055
     76  C        -10.3080  -13.0790  -10.3550 C.2   148  SER148      0.2644
     77  O         -9.8920  -13.1320  -11.5170 O.2   148  SER148     -0.2714
     78  CB        -9.6560  -10.7750   -9.5510 C.3   148  SER148      0.2130
     79  OG        -8.7090  -11.2970   -8.6350 O.3   148  SER148     -0.2179
     80  N        -10.3360  -14.1370   -9.5470 N.am  149  GLY149     -0.1939
     81  CA       -10.0180  -15.4850  -10.0200 C.3   149  GLY149      0.2014
     82  C         -8.7610  -16.1310   -9.4570 C.2   149  GLY149      0.2639
     83  O         -8.2090  -17.0430  -10.0730 O.2   149  GLY149     -0.2714
     84  N         -8.3160  -15.6790   -8.2860 N.am  150  LYS150     -0.1963
     85  CA        -7.1160  -16.2350   -7.6510 C.3   150  LYS150      0.1728
     86  C         -7.2680  -17.7180   -7.3310 C.2   150  LYS150      0.2617
     87  O         -6.4010  -18.5200   -7.6740 O.2   150  LYS150     -0.2715
     88  CB        -6.7530  -15.4660   -6.3790 C.3   150  LYS150      0.0311
     89  CG        -6.3700  -14.0060   -6.6060 C.3   150  LYS150      0.0038
     90  CD        -6.1070  -13.2780   -5.2940 C.3   150  LYS150      0.0206
     91  CE        -7.3050  -13.3140   -4.3490 C.3   150  LYS150      0.1093
     92  NZ        -8.5040  -12.5840   -4.8600 N.3   150  LYS150     -0.1314
     93  N         -8.3760  -18.0740   -6.6830 N.am  151  THR151     -0.1937
     94  CA        -8.6180  -19.4520   -6.2570 C.3   151  THR151      0.2028
     95  C         -8.8640  -20.3790   -7.4560 C.2   151  THR151      0.2642
     96  O         -8.3850  -21.5110   -7.4700 O.2   151  THR151     -0.2714
     97  CB        -9.7670  -19.5280   -5.2320 C.3   151  THR151      0.1808
     98  OG1       -9.5200  -18.5860   -4.1740 O.3   151  THR151     -0.2208
     99  CG2       -9.8970  -20.9330   -4.6330 C.3   151  THR151      0.0379
    100  N         -9.5860  -19.8900   -8.4620 N.am  152  PHE152     -0.1959
    101  CA        -9.8030  -20.6540   -9.6920 C.3   152  PHE152      0.1771
    102  C         -8.4640  -20.9750  -10.3530 C.2   152  PHE152      0.2620
    103  O         -8.2070  -22.1220  -10.7220 O.2   152  PHE152     -0.2715
    104  CB       -10.7060  -19.8790  -10.6620 C.3   152  PHE152      0.0574
    105  CG       -11.0630  -20.6410  -11.9150 C.ar  152  PHE152     -0.0200
    106  CD1      -12.2770  -21.3160  -12.0120 C.ar  152  PHE152     -0.0042
    107  CD2      -10.1940  -20.6740  -13.0050 C.ar  152  PHE152     -0.0042
    108  CE1      -12.6170  -22.0120  -13.1640 C.ar  152  PHE152     -0.0003
    109  CE2      -10.5290  -21.3720  -14.1580 C.ar  152  PHE152     -0.0003
    110  CZ       -11.7400  -22.0410  -14.2380 C.ar  152  PHE152     -0.0000
    111  N         -7.6140  -19.9560  -10.4850 N.am  153  THR153     -0.1951
    112  CA        -6.2900  -20.1100  -11.0750 C.3   153  THR153      0.1897
    113  C         -5.4760  -21.1660  -10.3200 C.2   153  THR153      0.2313
    114  O         -4.8400  -22.0250  -10.9340 O.2   153  THR153     -0.2863
    115  CB        -5.5470  -18.7530  -11.1160 C.3   153  THR153      0.1794
    116  OG1       -6.1960  -17.8820  -12.0510 O.3   153  THR153     -0.2208
    117  CG2       -4.0870  -18.9150  -11.5190 C.3   153  THR153      0.0378
    118  N        -11.9230  -20.5050   -1.7200 N.3   245  ARG245     -0.1245
    119  CA       -12.0880  -21.7130   -0.9200 C.3   245  ARG245      0.1563
    120  C        -13.4610  -21.7510   -0.2510 C.2   245  ARG245      0.2260
    121  O        -14.4860  -21.9200   -0.9150 O.2   245  ARG245     -0.2867
    122  CB       -10.9870  -21.8140    0.1400 C.3   245  ARG245      0.0307
    123  CG        -9.6100  -22.2010   -0.3850 C.3   245  ARG245      0.0489
    124  CD        -8.6430  -22.4610    0.7650 C.3   245  ARG245      0.2205
    125  NE        -8.2470  -21.2260    1.4460 N.pl3 245  ARG245     -0.0865
    126  CZ        -8.1240  -21.0910    2.7660 C.cat 245  ARG245      0.5346
    127  NH1       -8.3780  -22.1150    3.5760 N.pl3 245  ARG245      0.1354
    128  NH2       -7.7610  -19.9210    3.2820 N.pl3 245  ARG245      0.1354
    129  N        -11.0890  -15.3240    1.7220 N.3   253  SER253     -0.1217
    130  CA       -10.8280  -14.1210    0.9340 C.3   253  SER253      0.1889
    131  C        -10.0990  -13.0300    1.7280 C.2   253  SER253      0.2288
    132  O         -9.6030  -12.0640    1.1450 O.2   253  SER253     -0.2866
    133  CB       -12.1340  -13.5580    0.3660 C.3   253  SER253      0.2089
    134  OG       -12.8510  -12.8540    1.3670 O.3   253  SER253     -0.2183
@<TRIPOS>BOND
     1    52    51   ar
     2    53    51   ar
     3    51    50    1
     4    46    47    1
     5    47    50    1
     6    47    48    1
     7    48    49    2
     8    27    28    1
     9    27    24    1
    10    28    29    1
    11    24    25    1
    12    24    23    1
    13    25    26    2
    14    23    29    1
    15    23    14   am
    16    15    14    2
    17    14    13    1
    18    11     9    1
    19    13    12    1
    20    13    16    1
    21    30    31    1
    22     8     9    2
    23     8     7    1
    24     2     3    1
    25     2     1    1
    26     2     5    1
    27     3     4    2
    28     6     5    1
    29     6     7    1
    30     9    10    1
    31    32    31    1
    32    32    33    2
    33    31    34    1
    34    16    17    1
    35    17    18    1
    36    22    20    1
    37   110   109   ar
    38   110   108   ar
    39   109   107   ar
    40    34    35    1
    41    37    35    1
    42    35    36    1
    43    18    19    1
    44   108   106   ar
    45    38    39    1
    46   107   105   ar
    47    20    19    2
    48    20    21    1
    49   116   115    1
    50   106   105   ar
    51   105   104    1
    52    40    39    1
    53    40    41    2
    54    39    42    1
    55   117   115    1
    56    77    76    2
    57    42    43    1
    58   115   112    1
    59   112   111    1
    60   112   113    1
    61    43    44    1
    62    43    45    1
    63   114   113    2
    64   103   102    2
    65   104   101    1
    66   111   102   am
    67    76    75    1
    68    76    80   am
    69   102   101    1
    70    83    82    2
    71    81    80    1
    72    81    82    1
    73    75    78    1
    74    75    74    1
    75   101   100    1
    76    73    72    2
    77    78    79    1
    78    82    84   am
    79    62    60   am
    80    72    74   am
    81    72    71    1
    82   100    95   am
    83    84    85    1
    84    60    59    1
    85    60    61    2
    86    87    86    2
    87    85    86    1
    88    85    88    1
    89    59    58    1
    90    96    95    2
    91    95    94    1
    92    86    93   am
    93    71    70    1
    94    93    94    1
    95    89    88    1
    96    89    90    1
    97    54    55    1
    98    57    56    2
    99    94    97    1
   100    58    55    1
   101    70    65   am
   102    66    65    2
   103    55    56    1
   104    56    63   am
   105    65    64    1
   106    90    91    1
   107    97    99    1
   108    97    98    1
   109    92    91    1
   110    63    64    1
   111    64    67    1
   112    67    69    1
   113    67    68    1
   114   118   119    1
   115   119   120    1
   116   119   122    1
   117   121   120    2
   118   123   122    1
   119   123   124    1
   120   133   130    1
   121   133   134    1
   122   124   125    1
   123   130   129    1
   124   130   131    1
   125   132   131    2
   126   125   126    2
   127   126   128    1
   128   126   127    1
