@<TRIPOS>MOLECULE
tmp/4etpB00.pdb
 78 74 0 0 0
SMALL
GASTEIGER

@<TRIPOS>ATOM
      1  N         17.0120  -47.2510  -26.5280 N.3    32  TYR32      -0.1227
      2  CA        17.6330  -46.5690  -27.6610 C.3    32  TYR32       0.1736
      3  C         16.7780  -45.3900  -28.1290 C.2    32  TYR32       0.2595
      4  O         17.3000  -44.3040  -28.3830 O.2    32  TYR32      -0.2718
      5  CB        17.8630  -47.5630  -28.8060 C.3    32  TYR32       0.0548
      6  CG        18.5470  -46.9960  -30.0320 C.ar   32  TYR32      -0.0200
      7  CD1       19.9180  -46.7340  -30.0350 C.ar   32  TYR32      -0.0009
      8  CD2       17.8270  -46.7480  -31.1990 C.ar   32  TYR32      -0.0009
      9  CE1       20.5490  -46.2260  -31.1620 C.ar   32  TYR32       0.0417
     10  CE2       18.4480  -46.2420  -32.3310 C.ar   32  TYR32       0.0417
     11  CZ        19.8070  -45.9800  -32.3070 C.ar   32  TYR32       0.1957
     12  OH        20.4220  -45.4750  -33.4300 O.3    32  TYR32      -0.2866
     13  N         15.4690  -45.6110  -28.2330 N.am   33  ASN33      -0.1974
     14  CA        14.5330  -44.5530  -28.6170 C.3    33  ASN33       0.1688
     15  C         14.4250  -43.4500  -27.5640 C.2    33  ASN33       0.2292
     16  O         14.3670  -42.2690  -27.9090 O.2    33  ASN33      -0.2864
     17  CB        13.1520  -45.1320  -28.9520 C.3    33  ASN33       0.1181
     18  CG        13.1430  -45.8960  -30.2660 C.2    33  ASN33       0.2629
     19  OD1       13.8830  -45.5660  -31.1950 O.2    33  ASN33      -0.2716
     20  ND2       12.3050  -46.9250  -30.3490 N.am   33  ASN33      -0.0877
     21  N         17.4610  -41.1070  -27.8200 N.3    36  CYS36      -0.1235
     22  CA        17.2750  -40.1720  -28.9340 C.3    36  CYS36       0.1677
     23  C         16.2860  -39.0570  -28.6000 C.2    36  CYS36       0.2270
     24  O         16.4950  -37.9070  -28.9840 O.2    36  CYS36      -0.2867
     25  CB        16.8090  -40.9020  -30.1920 C.3    36  CYS36       0.0956
     26  SG        17.9850  -42.0950  -30.8620 S.3    36  CYS36      -0.0801
     27  N         29.9660  -40.8050  -33.9800 N.3    97  LYS97      -0.1231
     28  CA        28.7290  -41.1410  -33.2800 C.3    97  LYS97       0.1693
     29  C         27.4880  -40.6110  -34.0010 C.2    97  LYS97       0.2592
     30  O         26.3950  -41.1620  -33.8510 O.2    97  LYS97      -0.2718
     31  CB        28.7690  -40.6190  -31.8390 C.3    97  LYS97       0.0285
     32  CG        29.7930  -41.3110  -30.9500 C.3    97  LYS97       0.0035
     33  CD        29.8240  -40.6990  -29.5580 C.3    97  LYS97       0.0206
     34  CE        30.8540  -41.3840  -28.6740 C.3    97  LYS97       0.1093
     35  NZ        30.8970  -40.7890  -27.3100 N.3    97  LYS97      -0.1314
     36  N         27.6650  -39.5480  -34.7830 N.am   98  VAL98      -0.1966
     37  CA        26.5520  -38.8860  -35.4680 C.3    98  VAL98       0.1727
     38  C         26.7570  -38.8680  -36.9840 C.2    98  VAL98       0.2616
     39  O         27.6940  -38.2420  -37.4860 O.2    98  VAL98      -0.2715
     40  CB        26.3430  -37.4440  -34.9380 C.3    98  VAL98       0.0290
     41  CG1       25.2730  -36.7100  -35.7350 C.3    98  VAL98       0.0023
     42  CG2       25.9900  -37.4580  -33.4570 C.3    98  VAL98       0.0023
     43  N         25.8740  -39.5570  -37.7030 N.am   99  SER99      -0.1950
     44  CA        25.9100  -39.5830  -39.1650 C.3    99  SER99       0.1924
     45  C         25.2920  -38.3120  -39.7470 C.2    99  SER99       0.2314
     46  O         24.7860  -37.4670  -39.0070 O.2    99  SER99      -0.2863
     47  CB        25.1910  -40.8240  -39.7040 C.3    99  SER99       0.2116
     48  OG        23.7930  -40.7380  -39.4960 O.3    99  SER99      -0.2180
     49  N         22.6170  -38.1460  -41.6300 N.3   101  ASP101     -0.1225
     50  CA        21.1750  -38.2690  -41.4160 C.3   101  ASP101      0.1805
     51  C         20.8130  -37.9320  -39.9770 C.2   101  ASP101      0.2598
     52  O         19.7950  -37.2870  -39.7140 O.2   101  ASP101     -0.2718
     53  CB        20.7000  -39.6880  -41.7380 C.3   101  ASP101      0.1424
     54  CG        20.8280  -40.0300  -43.2090 C.2   101  ASP101      0.3668
     55  OD1       20.4720  -39.1860  -44.0600 O.co2 101  ASP101     -0.2456
     56  OD2       21.2780  -41.1550  -43.5120 O.co2 101  ASP101     -0.2456
     57  N         21.6600  -38.3840  -39.0540 N.am  102  CYS102     -0.1970
     58  CA        21.4850  -38.1390  -37.6310 C.3   102  CYS102      0.1712
     59  C         21.7190  -36.6680  -37.2910 C.2   102  CYS102      0.2296
     60  O         21.0550  -36.1250  -36.4080 O.2   102  CYS102     -0.2864
     61  CB        22.4240  -39.0330  -36.8180 C.3   102  CYS102      0.0983
     62  SG        22.1650  -38.9830  -35.0290 S.3   102  CYS102     -0.0798
     63  N         18.3440  -34.8670  -38.0650 N.3   105  THR105     -0.1203
     64  CA        17.2430  -35.2400  -37.1700 C.3   105  THR105      0.1994
     65  C         17.5170  -34.8470  -35.7200 C.2   105  THR105      0.2617
     66  O         16.6240  -34.3570  -35.0290 O.2   105  THR105     -0.2717
     67  CB        16.9060  -36.7490  -37.2290 C.3   105  THR105      0.1784
     68  OG1       18.0230  -37.5200  -36.7640 O.3   105  THR105     -0.2211
     69  CG2       16.5290  -37.1800  -38.6460 C.3   105  THR105      0.0376
     70  N         18.7520  -35.0570  -35.2700 N.am  106  GLN106     -0.1979
     71  CA        19.1170  -34.8540  -33.8690 C.3   106  GLN106      0.1601
     72  C         19.6360  -33.4470  -33.5640 C.2   106  GLN106      0.2287
     73  O         19.2590  -32.8490  -32.5540 O.2   106  GLN106     -0.2864
     74  CB        20.1340  -35.9180  -33.4210 C.3   106  GLN106      0.0394
     75  CG        20.7160  -35.7000  -32.0260 C.3   106  GLN106      0.0908
     76  CD        21.4790  -36.9030  -31.5020 C.2   106  GLN106      0.2608
     77  OE1       20.9270  -37.9970  -31.3650 O.2   106  GLN106     -0.2717
     78  NE2       22.7540  -36.7020  -31.1930 N.am  106  GLN106     -0.0878
@<TRIPOS>BOND
     1    55    54   ar
     2    56    54   ar
     3    54    53    1
     4    53    50    1
     5    49    50    1
     6    50    51    1
     7    51    52    2
     8    51    57   am
     9    45    44    1
    10    45    46    2
    11    47    48    1
    12    47    44    1
    13    44    43    1
    14    57    58    1
    15    69    67    1
    16    63    64    1
    17    43    38   am
    18    58    59    1
    19    58    61    1
    20    39    38    2
    21    59    60    2
    22    67    64    1
    23    67    68    1
    24    64    65    1
    25    38    37    1
    26    61    62    1
    27    41    40    1
    28    65    70   am
    29    65    66    2
    30    37    40    1
    31    37    36    1
    32    70    71    1
    33    40    42    1
    34    36    29   am
    35    29    30    2
    36    29    28    1
    37    27    28    1
    38    71    72    1
    39    71    74    1
    40    72    73    2
    41    12    11    1
    42    74    75    1
    43    28    31    1
    44    10    11   ar
    45    10     8   ar
    46    11     9   ar
    47    75    76    1
    48    31    32    1
    49    76    77    2
    50    76    78   am
    51     8     6   ar
    52    19    18    2
    53     9     7   ar
    54    32    33    1
    55    26    25    1
    56    20    18   am
    57    18    17    1
    58    25    22    1
    59     7     6   ar
    60     6     5    1
    61    33    34    1
    62    24    23    2
    63    17    14    1
    64    22    23    1
    65    22    21    1
    66     5     2    1
    67    34    35    1
    68    14    13    1
    69    14    15    1
    70     4     3    2
    71    13     3   am
    72     3     2    1
    73    16    15    2
    74     2     1    1
