@<TRIPOS>MOLECULE
tmp/4etwA00.pdb
 183 177 0 0 0
SMALL
GASTEIGER

@<TRIPOS>ATOM
      1  N         -9.0520  -13.9250   27.9170 N.3    19  GLY19      -0.1210
      2  CA       -10.1850  -13.0990   27.5550 C.3    19  GLY19       0.1956
      3  C        -11.1630  -12.9370   28.7020 C.2    19  GLY19       0.2611
      4  O        -10.9520  -13.4360   29.8140 O.2    19  GLY19      -0.2717
      5  N        -12.2580  -12.2440   28.4240 N.am   20  TRP20      -0.1976
      6  CA       -13.2080  -11.8630   29.4600 C.3    20  TRP20       0.1640
      7  C        -13.8760  -13.0890   30.0640 C.2    20  TRP20       0.2290
      8  O        -14.2700  -14.0080   29.3530 O.2    20  TRP20      -0.2864
      9  CB       -14.2620  -10.9320   28.8510 C.3    20  TRP20       0.0576
     10  CG       -15.3040  -10.4500   29.8060 C.ar   20  TRP20       0.0006
     11  CD1      -15.2810   -9.3050   30.5390 C.ar   20  TRP20       0.0946
     12  CD2      -16.5270  -11.1110   30.1310 C.ar   20  TRP20       0.0152
     13  NE1      -16.4210   -9.2120   31.3090 N.ar   20  TRP20      -0.2442
     14  CE2      -17.2130  -10.2950   31.0580 C.ar   20  TRP20       0.0810
     15  CE3      -17.1270  -12.2970   29.7010 C.ar   20  TRP20       0.0012
     16  CZ2      -18.4540  -10.6400   31.5820 C.ar   20  TRP20       0.0191
     17  CZ3      -18.3580  -12.6420   30.2210 C.ar   20  TRP20       0.0001
     18  CH2      -19.0120  -11.8160   31.1550 C.ar   20  TRP20       0.0015
     19  N        -12.7230  -15.4760   31.8640 N.3    22  LEU22      -0.1245
     20  CA       -11.9080  -16.6740   32.0300 C.3    22  LEU22       0.1561
     21  C        -10.6600  -16.4420   32.8810 C.2    22  LEU22       0.2260
     22  O        -10.6010  -15.5380   33.6970 O.2    22  LEU22      -0.2867
     23  CB       -11.5420  -17.2140   30.6560 C.3    22  LEU22       0.0270
     24  CG       -12.8470  -17.5320   29.9070 C.3    22  LEU22       0.0019
     25  CD1      -12.6120  -17.7380   28.4310 C.3    22  LEU22       0.0001
     26  CD2      -13.5500  -18.7420   30.5040 C.3    22  LEU22       0.0001
     27  N         -5.6080  -12.4320   24.1580 N.3    79  TRP79      -0.1227
     28  CA        -6.7880  -13.0210   23.5230 C.3    79  TRP79       0.1737
     29  C         -8.0280  -12.2080   23.8990 C.2    79  TRP79       0.2595
     30  O         -8.3000  -11.9990   25.0740 O.2    79  TRP79      -0.2718
     31  CB        -6.9690  -14.4620   24.0040 C.3    79  TRP79       0.0564
     32  CG        -8.3100  -15.1180   23.6510 C.ar   79  TRP79       0.0003
     33  CD1       -8.9680  -15.0370   22.4560 C.ar   79  TRP79       0.0946
     34  CD2       -9.1250  -15.9690   24.4960 C.ar   79  TRP79       0.0152
     35  NE1      -10.1510  -15.7630   22.5070 N.ar   79  TRP79      -0.2442
     36  CE2      -10.2670  -16.3430   23.7410 C.ar   79  TRP79       0.0810
     37  CE3       -9.0140  -16.4220   25.8210 C.ar   79  TRP79       0.0012
     38  CZ2      -11.2780  -17.1750   24.2610 C.ar   79  TRP79       0.0191
     39  CZ3      -10.0130  -17.2420   26.3330 C.ar   79  TRP79       0.0001
     40  CH2      -11.1380  -17.6060   25.5510 C.ar   79  TRP79       0.0015
     41  N         -8.7720  -11.7620   22.8950 N.am   80  ALA80      -0.1966
     42  CA        -9.9760  -10.9590   23.1160 C.3    80  ALA80       0.1728
     43  C         -9.7150   -9.7350   24.0110 C.2    80  ALA80       0.2616
     44  O         -8.9460   -8.8630   23.6290 O.2    80  ALA80      -0.2715
     45  CB       -11.0840  -11.8150   23.6530 C.3    80  ALA80       0.0334
     46  N        -10.3300   -9.6760   25.1910 N.am   81  LEU81      -0.1977
     47  CA       -10.0450   -8.5740   26.1480 C.3    81  LEU81       0.1596
     48  C         -8.5460   -8.4900   26.4750 C.2    81  LEU81       0.2287
     49  O         -7.9950   -7.4130   26.6710 O.2    81  LEU81      -0.2864
     50  CB       -10.8240   -8.7850   27.4570 C.3    81  LEU81       0.0297
     51  CG       -10.4730   -7.8870   28.6520 C.3    81  LEU81       0.0022
     52  CD1      -10.8330   -6.4220   28.3610 C.3    81  LEU81       0.0001
     53  CD2      -11.2020   -8.3380   29.9130 C.3    81  LEU81       0.0001
     54  N        -14.2130   -3.0060   20.2520 N.3   109  PHE109     -0.1241
     55  CA       -15.1700   -4.1030   20.2340 C.3   109  PHE109      0.1605
     56  C        -16.5940   -3.7220   19.8240 C.2   109  PHE109      0.2264
     57  O        -17.3060   -4.5460   19.2350 O.2   109  PHE109     -0.2867
     58  CB       -15.1680   -4.8650   21.5620 C.3   109  PHE109      0.0534
     59  CG       -14.1470   -5.9710   21.6230 C.ar  109  PHE109     -0.0203
     60  CD1      -14.4960   -7.2780   21.3020 C.ar  109  PHE109     -0.0042
     61  CD2      -12.8360   -5.7100   22.0010 C.ar  109  PHE109     -0.0042
     62  CE1      -13.5580   -8.3080   21.3610 C.ar  109  PHE109     -0.0003
     63  CE2      -11.8920   -6.7440   22.0650 C.ar  109  PHE109     -0.0003
     64  CZ       -12.2540   -8.0400   21.7440 C.ar  109  PHE109     -0.0000
     65  N        -19.6650   -5.3100   18.0350 N.3   118  ILE118     -0.1245
     66  CA       -20.8270   -5.7290   18.7850 C.3   118  ILE118      0.1561
     67  C        -21.7880   -4.5400   18.9000 C.2   118  ILE118      0.2260
     68  O        -21.3910   -3.4300   19.2810 O.2   118  ILE118     -0.2867
     69  CB       -20.4270   -6.2370   20.1820 C.3   118  ILE118      0.0252
     70  CG1      -19.4850   -7.4410   20.0410 C.3   118  ILE118      0.0019
     71  CG2      -21.6680   -6.6010   20.9830 C.3   118  ILE118      0.0019
     72  CD1      -18.8460   -7.8970   21.3430 C.3   118  ILE118      0.0001
     73  N        -26.8860   -4.8690   22.1010 N.3   122  VAL122     -0.1231
     74  CA       -26.6110   -6.2760   22.3380 C.3   122  VAL122      0.1692
     75  C        -25.7670   -6.3570   23.5950 C.2   122  VAL122      0.2591
     76  O        -26.0920   -7.0840   24.5200 O.2   122  VAL122     -0.2718
     77  CB       -25.8880   -6.9320   21.1520 C.3   122  VAL122      0.0266
     78  CG1      -25.2570   -8.2510   21.5660 C.3   122  VAL122      0.0020
     79  CG2      -26.8660   -7.1380   19.9970 C.3   122  VAL122      0.0020
     80  N        -24.7000   -5.5680   23.6260 N.am  123  LEU123     -0.1980
     81  CA       -23.7830   -5.5210   24.7590 C.3   123  LEU123      0.1596
     82  C        -24.5110   -5.1350   26.0400 C.2   123  LEU123      0.2287
     83  O        -24.3110   -5.7360   27.0960 O.2   123  LEU123     -0.2864
     84  CB       -22.6610   -4.5260   24.4640 C.3   123  LEU123      0.0297
     85  CG       -21.3990   -4.5830   25.3220 C.3   123  LEU123      0.0022
     86  CD1      -20.9770   -6.0150   25.5740 C.3   123  LEU123      0.0001
     87  CD2      -20.2840   -3.8130   24.6430 C.3   123  LEU123      0.0001
     88  N        -26.6100   -7.8880   27.2600 N.3   126  PHE126     -0.1241
     89  CA       -25.7680   -8.9050   27.8830 C.3   126  PHE126      0.1605
     90  C        -25.3980   -8.5180   29.3170 C.2   126  PHE126      0.2264
     91  O        -25.4620   -9.3390   30.2300 O.2   126  PHE126     -0.2867
     92  CB       -24.5090   -9.1130   27.0290 C.3   126  PHE126      0.0534
     93  CG       -23.5660  -10.1590   27.5570 C.ar  126  PHE126     -0.0203
     94  CD1      -23.7420  -11.5040   27.2440 C.ar  126  PHE126     -0.0042
     95  CD2      -22.4800   -9.7950   28.3380 C.ar  126  PHE126     -0.0042
     96  CE1      -22.8590  -12.4630   27.7190 C.ar  126  PHE126     -0.0003
     97  CE2      -21.5960  -10.7520   28.8140 C.ar  126  PHE126     -0.0003
     98  CZ       -21.7890  -12.0850   28.5030 C.ar  126  PHE126     -0.0000
     99  N        -23.9610  -19.3370   28.4410 N.3   140  ARG140     -0.1231
    100  CA       -24.3540  -19.0840   27.0680 C.3   140  ARG140      0.1694
    101  C        -23.1920  -18.4100   26.3510 C.2   140  ARG140      0.2592
    102  O        -22.9570  -18.6720   25.1850 O.2   140  ARG140     -0.2718
    103  CB       -25.6330  -18.2360   26.9940 C.3   140  ARG140      0.0321
    104  CG       -26.9140  -19.0760   26.9930 C.3   140  ARG140      0.0489
    105  CD       -28.1610  -18.2380   27.2270 C.3   140  ARG140      0.2205
    106  NE       -28.3480  -17.2400   26.1760 N.pl3 140  ARG140     -0.0865
    107  CZ       -28.9790  -17.4740   25.0280 C.cat 140  ARG140      0.5346
    108  NH1      -29.4800  -18.6770   24.7870 N.pl3 140  ARG140      0.1354
    109  NH2      -29.1100  -16.5100   24.1210 N.pl3 140  ARG140      0.1354
    110  N        -22.4820  -17.5370   27.0650 N.am  141  PHE141     -0.1976
    111  CA       -21.3220  -16.8460   26.4990 C.3   141  PHE141      0.1639
    112  C        -20.2640  -17.8420   26.0020 C.2   141  PHE141      0.2290
    113  O        -19.6650  -17.6500   24.9390 O.2   141  PHE141     -0.2864
    114  CB       -20.7250  -15.8770   27.5340 C.3   141  PHE141      0.0560
    115  CG       -19.3770  -15.3220   27.1450 C.ar  141  PHE141     -0.0200
    116  CD1      -19.2550  -14.4450   26.0750 C.ar  141  PHE141     -0.0042
    117  CD2      -18.2360  -15.6770   27.8570 C.ar  141  PHE141     -0.0042
    118  CE1      -18.0210  -13.9290   25.7110 C.ar  141  PHE141     -0.0003
    119  CE2      -16.9880  -15.1680   27.4990 C.ar  141  PHE141     -0.0003
    120  CZ       -16.8840  -14.2930   26.4260 C.ar  141  PHE141     -0.0000
    121  N        -21.4890  -19.3650   22.8760 N.3   144  LEU144     -0.1231
    122  CA       -21.3750  -18.3310   21.8380 C.3   144  LEU144      0.1693
    123  C        -19.9910  -18.3360   21.1920 C.2   144  LEU144      0.2591
    124  O        -19.8510  -18.1350   19.9810 O.2   144  LEU144     -0.2718
    125  CB       -21.6430  -16.9540   22.4500 C.3   144  LEU144      0.0284
    126  CG       -22.3900  -15.8800   21.6470 C.3   144  LEU144      0.0019
    127  CD1      -21.9330  -14.4880   22.0770 C.3   144  LEU144      0.0001
    128  CD2      -22.2350  -16.0550   20.1410 C.3   144  LEU144      0.0001
    129  N        -18.9690  -18.5730   22.0100 N.am  145  GLN145     -0.1979
    130  CA       -17.5790  -18.5160   21.5550 C.3   145  GLN145      0.1601
    131  C        -17.2010  -19.6070   20.5760 C.2   145  GLN145      0.2287
    132  O        -16.2330  -19.4690   19.8160 O.2   145  GLN145     -0.2864
    133  CB       -16.6440  -18.6560   22.7530 C.3   145  GLN145      0.0394
    134  CG       -16.6070  -17.4720   23.6600 C.3   145  GLN145      0.0908
    135  CD       -15.2900  -17.4540   24.4200 C.2   145  GLN145      0.2608
    136  OE1      -14.3000  -18.0370   23.9700 O.2   145  GLN145     -0.2717
    137  NE2      -15.2770  -16.8110   25.5610 N.am  145  GLN145     -0.0878
    138  N        -19.5850  -21.4780   18.6880 N.3   147  MET147     -0.1245
    139  CA       -20.7010  -21.7990   17.7980 C.3   147  MET147      0.1570
    140  C        -20.2770  -21.8330   16.3470 C.2   147  MET147      0.2261
    141  O        -19.4790  -21.0020   15.9080 O.2   147  MET147     -0.2867
    142  CB       -21.8300  -20.7790   17.9670 C.3   147  MET147      0.0387
    143  CG       -22.8970  -21.1920   18.9600 C.3   147  MET147      0.0595
    144  SD       -24.5330  -20.7520   18.3450 S.3   147  MET147     -0.1393
    145  CE       -24.1340  -19.4430   17.1830 C.3   147  MET147      0.0692
    146  N        -16.7370   -5.3700   30.7620 N.3   178  LEU178     -0.1245
    147  CA       -17.6700   -5.0160   29.6980 C.3   178  LEU178      0.1561
    148  C        -17.5770   -3.5240   29.3750 C.2   178  LEU178      0.2260
    149  O        -17.7020   -3.1300   28.1980 O.2   178  LEU178     -0.2867
    150  CB       -19.1080   -5.4130   30.0720 C.3   178  LEU178      0.0270
    151  CG       -19.4560   -6.8910   30.2780 C.3   178  LEU178      0.0019
    152  CD1      -20.9370   -7.0790   30.5970 C.3   178  LEU178      0.0001
    153  CD2      -19.0580   -7.7350   29.0610 C.3   178  LEU178      0.0001
    154  N        -14.6350   -3.0540   27.0630 N.3   181  LEU181     -0.1245
    155  CA       -14.9800   -3.4880   25.7160 C.3   181  LEU181      0.1561
    156  C        -15.9300   -2.5010   25.0470 C.2   181  LEU181      0.2260
    157  O        -15.8410   -2.2670   23.8390 O.2   181  LEU181     -0.2867
    158  CB       -15.6250   -4.8730   25.7530 C.3   181  LEU181      0.0270
    159  CG       -14.7510   -6.0260   26.2620 C.3   181  LEU181      0.0019
    160  CD1      -15.5910   -7.2660   26.5490 C.3   181  LEU181      0.0001
    161  CD2      -13.6400   -6.3650   25.2770 C.3   181  LEU181      0.0001
    162  N        -18.2790  -14.4970   15.8740 N.3   206  GLY206     -0.1210
    163  CA       -19.3460  -13.5090   15.9380 C.3   206  GLY206      0.1956
    164  C        -19.0220  -12.2620   16.7480 C.2   206  GLY206      0.2611
    165  O        -19.6480  -11.2140   16.5740 O.2   206  GLY206     -0.2717
    166  N        -18.0290  -12.3680   17.6240 N.am  207  LEU207     -0.1979
    167  CA       -17.6990  -11.2970   18.5730 C.3   207  LEU207      0.1596
    168  C        -16.7380  -10.2750   17.9500 C.2   207  LEU207      0.2287
    169  O        -16.6550   -9.1140   18.3670 O.2   207  LEU207     -0.2864
    170  CB       -17.1140  -11.9120   19.8590 C.3   207  LEU207      0.0297
    171  CG       -18.0890  -12.8210   20.6050 C.3   207  LEU207      0.0022
    172  CD1      -17.4240  -13.5070   21.8010 C.3   207  LEU207      0.0001
    173  CD2      -19.2790  -12.0030   21.0440 C.3   207  LEU207      0.0001
    174  N        -14.2620  -17.9610   18.1840 N.3   233  HIS233     -0.1241
    175  CA       -13.6340  -16.9790   19.0660 C.3   233  HIS233      0.1621
    176  C        -12.3770  -17.5220   19.7590 C.2   233  HIS233      0.2264
    177  O        -11.5620  -16.7580   20.2900 O.2   233  HIS233     -0.2867
    178  CB       -14.6360  -16.4750   20.1000 C.3   233  HIS233      0.0745
    179  CG       -14.2160  -15.2540   20.8160 C.ar  233  HIS233      0.0817
    180  ND1      -13.8540  -14.0610   20.1460 N.ar  233  HIS233     -0.2268
    181  CD2      -14.0600  -14.9540   22.1240 C.ar  233  HIS233      0.1154
    182  CE1      -13.5450  -13.1490   21.0070 C.ar  233  HIS233      0.1986
    183  NE2      -13.6450  -13.6720   22.2530 N.ar  233  HIS233     -0.2212
@<TRIPOS>BOND
     1   162   163    1
     2   141   140    2
     3   163   164    1
     4   140   139    1
     5   165   164    2
     6   164   166   am
     7   145   144    1
     8   166   167    1
     9   139   142    1
    10   139   138    1
    11   168   169    2
    12   168   167    1
    13   142   143    1
    14    65    66    1
    15   174   175    1
    16   144   143    1
    17   167   170    1
    18    66    67    1
    19    66    69    1
    20    67    68    2
    21   175   176    1
    22   175   178    1
    23    57    56    2
    24   176   177    2
    25   132   131    2
    26    56    55    1
    27   170   171    1
    28   124   123    2
    29    79    77    1
    30    70    69    1
    31    70    72    1
    32   178   179    1
    33   128   126    1
    34   180   179   ar
    35   180   182   ar
    36    69    71    1
    37    55    54    1
    38    55    58    1
    39   131   130    1
    40   171   173    1
    41   171   172    1
    42   179   181   ar
    43   182   183   ar
    44    77    78    1
    45    77    74    1
    46   123   122    1
    47   123   129   am
    48    60    62   ar
    49    60    59   ar
    50    62    64   ar
    51   130   129    1
    52   130   133    1
    53    58    59    1
    54    59    61   ar
    55   126   127    1
    56   126   125    1
    57    64    63   ar
    58   122   125    1
    59   122   121    1
    60    61    63   ar
    61    73    74    1
    62   181   183   ar
    63    74    75    1
    64    33    35   ar
    65    33    32   ar
    66    35    36   ar
    67   133   134    1
    68    41    42    1
    69    41    29   am
    70    42    45    1
    71    42    43    1
    72    28    29    1
    73    28    31    1
    74    28    27    1
    75    75    80   am
    76    75    76    2
    77    80    81    1
    78    44    43    2
    79    32    31    1
    80    32    34   ar
    81   134   135    1
    82    36    38   ar
    83    36    34   ar
    84   157   156    2
    85    29    30    2
    86   136   135    2
    87    43    46   am
    88   109   107    1
    89    38    40   ar
    90   135   137   am
    91    84    81    1
    92    84    85    1
    93    34    37   ar
    94    87    85    1
    95    81    82    1
    96   108   107    1
    97   113   112    2
    98   107   106    2
    99   156   155    1
   100   102   101    2
   101    46    47    1
   102   161   159    1
   103    85    86    1
   104    40    39   ar
   105   118   116   ar
   106   118   120   ar
   107   155   158    1
   108   155   154    1
   109   158   159    1
   110    37    39   ar
   111   112   111    1
   112    82    83    2
   113   116   115   ar
   114    47    48    1
   115    47    50    1
   116   106   105    1
   117   159   160    1
   118   101   110   am
   119   101   100    1
   120   120   119   ar
   121    48    49    2
   122   111   110    1
   123   111   114    1
   124   104   103    1
   125   104   105    1
   126   103   100    1
   127    92    93    1
   128    92    89    1
   129   100    99    1
   130   115   114    1
   131   115   117   ar
   132    94    93   ar
   133    94    96   ar
   134    88    89    1
   135    50    51    1
   136   119   117   ar
   137     2     1    1
   138     2     3    1
   139    93    95   ar
   140    96    98   ar
   141    89    90    1
   142   149   148    2
   143    95    97   ar
   144    52    51    1
   145     5     3   am
   146     5     6    1
   147    25    24    1
   148    98    97   ar
   149    51    53    1
   150     3     4    2
   151     9     6    1
   152     9    10    1
   153   153   151    1
   154    90    91    2
   155     8     7    2
   156   148   147    1
   157     6     7    1
   158   147   150    1
   159   147   146    1
   160    15    12   ar
   161    15    17   ar
   162    10    12   ar
   163    10    11   ar
   164    24    26    1
   165    24    23    1
   166   150   151    1
   167    12    14   ar
   168    17    18   ar
   169   151   152    1
   170    11    13   ar
   171    23    20    1
   172    14    13   ar
   173    14    16   ar
   174    18    16   ar
   175    19    20    1
   176    20    21    1
   177    21    22    2
