@<TRIPOS>MOLECULE
tmp/4etzB00.pdb
 120 113 0 0 0
SMALL
GASTEIGER

@<TRIPOS>ATOM
      1  N         19.5380  -22.4220   55.8490 N.3     1  GLN1       -0.1245
      2  CA        19.3870  -20.9430   56.0740 C.3     1  GLN1        0.1566
      3  C         20.7150  -20.2260   56.3410 C.2     1  GLN1        0.2260
      4  O         20.7400  -18.9990   56.4730 O.2     1  GLN1       -0.2867
      5  CB        18.3610  -20.6010   57.1770 C.3     1  GLN1        0.0367
      6  CG        17.6300  -19.2640   56.9090 C.3     1  GLN1        0.0905
      7  CD        17.1630  -18.5090   58.1510 C.2     1  GLN1        0.2608
      8  OE1       17.7510  -18.6220   59.2340 O.2     1  GLN1       -0.2717
      9  NE2       16.1080  -17.7100   57.9890 N.am    1  GLN1       -0.0878
     10  N         20.5560  -19.3610   52.8530 N.3     4  ARG4       -0.1245
     11  CA        19.5380  -18.3240   52.7000 C.3     4  ARG4        0.1563
     12  C         20.0550  -17.0260   53.2950 C.2     4  ARG4        0.2260
     13  O         19.9760  -15.9790   52.6460 O.2     4  ARG4       -0.2867
     14  CB        18.1710  -18.7040   53.3210 C.3     4  ARG4        0.0307
     15  CG        17.5310  -20.0080   52.7980 C.3     4  ARG4        0.0489
     16  CD        16.0040  -20.1050   53.0700 C.3     4  ARG4        0.2205
     17  NE        15.6010  -20.1670   54.4960 N.pl3   4  ARG4       -0.0865
     18  CZ        15.4090  -21.2920   55.1990 C.cat   4  ARG4        0.5346
     19  NH1       15.6110  -22.4810   54.6410 N.pl3   4  ARG4        0.1354
     20  NH2       15.0450  -21.2350   56.4840 N.pl3   4  ARG4        0.1354
     21  N          2.7770  -10.6230   53.7130 N.3   200  SER200     -0.1202
     22  CA         3.4250  -11.6890   54.4700 C.3   200  SER200      0.2020
     23  C          4.8040  -12.0510   53.9050 C.2   200  SER200      0.2619
     24  O          5.5610  -12.7910   54.5440 O.2   200  SER200     -0.2717
     25  CB         2.5450  -12.9460   54.5120 C.3   200  SER200      0.2103
     26  OG         2.5480  -13.6090   53.2560 O.3   200  SER200     -0.2182
     27  N          5.1080  -11.5530   52.7090 N.am  201  GLN201     -0.1965
     28  CA         6.3510  -11.9110   51.9980 C.3   201  GLN201      0.1733
     29  C          7.6160  -11.7330   52.8300 C.2   201  GLN201      0.2616
     30  O          7.8220  -10.6950   53.4600 O.2   201  GLN201     -0.2715
     31  CB         6.4920  -11.1470   50.6930 C.3   201  GLN201      0.0408
     32  CG         7.3680  -11.9040   49.7140 C.3   201  GLN201      0.0908
     33  CD         7.7180  -11.0860   48.5240 C.2   201  GLN201      0.2608
     34  OE1        6.8780  -10.8530   47.6500 O.2   201  GLN201     -0.2717
     35  NE2        8.9630  -10.6230   48.4750 N.am  201  GLN201     -0.0878
     36  N          8.4590  -12.7600   52.8350 N.am  202  ARG202     -0.1963
     37  CA         9.6420  -12.7670   53.6940 C.3   202  ARG202      0.1729
     38  C         10.8170  -13.4180   53.0030 C.2   202  ARG202      0.2616
     39  O         10.6680  -14.4470   52.3360 O.2   202  ARG202     -0.2715
     40  CB         9.3370  -13.5110   55.0140 C.3   202  ARG202      0.0348
     41  CG        10.5510  -13.7160   55.9600 C.3   202  ARG202      0.0492
     42  CD        10.1770  -14.4200   57.3000 C.3   202  ARG202      0.2205
     43  NE         9.3850  -13.5530   58.1620 N.pl3 202  ARG202     -0.0865
     44  CZ         9.0360  -13.8320   59.4210 C.cat 202  ARG202      0.5346
     45  NH1        9.4050  -14.9670   60.0190 N.pl3 202  ARG202      0.1354
     46  NH2        8.3140  -12.9670   60.0870 N.pl3 202  ARG202      0.1354
     47  N         11.9930  -12.8260   53.1870 N.am  203  GLY203     -0.1955
     48  CA        13.2390  -13.4430   52.7690 C.3   203  GLY203      0.1869
     49  C         13.2720  -13.6350   51.2610 C.2   203  GLY203      0.2309
     50  O         12.9720  -12.7190   50.4960 O.2   203  GLY203     -0.2863
     51  N         11.3580  -15.6300   49.4540 N.3   205  ASP205     -0.1239
     52  CA        10.1130  -16.0120   48.8050 C.3   205  ASP205      0.1674
     53  C          9.7170  -15.0240   47.7340 C.2   205  ASP205      0.2266
     54  O          9.9070  -13.8090   47.8890 O.2   205  ASP205     -0.2867
     55  CB         8.9920  -16.1360   49.8100 C.3   205  ASP205      0.1410
     56  CG         9.2750  -17.1570   50.8690 C.2   205  ASP205      0.3668
     57  OD1       10.2830  -17.9090   50.7710 O.co2 205  ASP205     -0.2456
     58  OD2        8.4660  -17.2080   51.8110 O.co2 205  ASP205     -0.2456
     59  N          8.5840  -20.8870   47.8020 N.3   223  LEU223     -0.1231
     60  CA         9.4520  -20.9260   48.9660 C.3   223  LEU223      0.1678
     61  C         10.7720  -21.6390   48.6020 C.2   223  LEU223      0.2434
     62  O         10.8690  -22.8770   48.6740 O.2   223  LEU223     -0.2733
     63  CB         8.7650  -21.6470   50.1290 C.3   223  LEU223      0.0284
     64  CG         7.3330  -21.2870   50.5620 C.3   223  LEU223      0.0019
     65  CD1        7.0350  -21.8900   51.9460 C.3   223  LEU223      0.0001
     66  CD2        7.1060  -19.8050   50.6150 C.3   223  LEU223      0.0001
     67  N         11.7830  -20.8640   48.1820 N.am  224  PRO224     -0.2729
     68  CA        13.0450  -21.4900   47.7620 C.3   224  PRO224      0.1401
     69  C         13.8210  -22.0450   48.9480 C.2   224  PRO224      0.2269
     70  O         13.7920  -21.4540   50.0400 O.2   224  PRO224     -0.2865
     71  CB        13.8270  -20.3280   47.1020 C.3   224  PRO224      0.0296
     72  CG        12.8140  -19.2270   46.8620 C.3   224  PRO224      0.0237
     73  CD        11.7830  -19.4020   47.9640 C.3   224  PRO224      0.0939
     74  N         13.5680  -24.5700   51.0030 N.3   226  THR226     -0.1218
     75  CA        12.7250  -24.7070   52.1800 C.3   226  THR226      0.1862
     76  C         12.2440  -26.1390   52.2920 C.2   226  THR226      0.2287
     77  O         11.6860  -26.6970   51.3440 O.2   226  THR226     -0.2866
     78  CB        11.5450  -23.6900   52.1460 C.3   226  THR226      0.1770
     79  OG1       12.0560  -22.3710   52.4030 O.3   226  THR226     -0.2211
     80  CG2       10.4770  -24.0150   53.2120 C.3   226  THR226      0.0375
     81  N          9.1370  -26.0950   57.9670 N.3   230  GLY230     -0.1225
     82  CA         9.5970  -24.9120   57.2560 C.3   230  GLY230      0.1811
     83  C          8.4650  -24.4370   56.3890 C.2   230  GLY230      0.2280
     84  O          7.9660  -23.3480   56.6100 O.2   230  GLY230     -0.2866
     85  N          5.9440  -24.5550   59.0100 N.3   233  GLY233     -0.1210
     86  CA         6.1780  -23.3310   59.7850 C.3   233  GLY233      0.1956
     87  C          5.6760  -22.0360   59.1340 C.2   233  GLY233      0.2611
     88  O          5.2590  -21.1110   59.8260 O.2   233  GLY233     -0.2717
     89  N          5.7550  -21.9550   57.8040 N.am  234  TYR234     -0.1976
     90  CA         5.2590  -20.7970   57.0670 C.3   234  TYR234      0.1639
     91  C          3.7520  -20.6560   57.2520 C.2   234  TYR234      0.2290
     92  O          3.2490  -19.5520   57.5130 O.2   234  TYR234     -0.2864
     93  CB         5.6210  -20.9190   55.5860 C.3   234  TYR234      0.0560
     94  CG         4.9090  -19.9670   54.6290 C.ar  234  TYR234     -0.0198
     95  CD1        5.1050  -18.5800   54.7010 C.ar  234  TYR234     -0.0009
     96  CD2        4.0830  -20.4610   53.6190 C.ar  234  TYR234     -0.0009
     97  CE1        4.4680  -17.7120   53.8020 C.ar  234  TYR234      0.0417
     98  CE2        3.4500  -19.5980   52.7020 C.ar  234  TYR234      0.0417
     99  CZ         3.6480  -18.2300   52.8050 C.ar  234  TYR234      0.1957
    100  OH         3.0110  -17.3910   51.9200 O.3   234  TYR234     -0.2866
    101  N          1.9750  -22.0280   59.7740 N.3   236  GLN236     -0.1231
    102  CA         1.7430  -21.6630   61.1710 C.3   236  GLN236      0.1698
    103  C          1.7990  -20.1250   61.3320 C.2   236  GLN236      0.2592
    104  O          0.8850  -19.5260   61.8720 O.2   236  GLN236     -0.2718
    105  CB         2.7570  -22.3480   62.0910 C.3   236  GLN236      0.0381
    106  CG         2.5160  -22.0820   63.5790 C.3   236  GLN236      0.0905
    107  CD         3.5080  -22.8180   64.4880 C.2   236  GLN236      0.2608
    108  OE1        4.7180  -22.8470   64.2340 O.2   236  GLN236     -0.2717
    109  NE2        2.9920  -23.4050   65.5590 N.am  236  GLN236     -0.0878
    110  N          2.8620  -19.5020   60.8260 N.am  237  ARG237     -0.1980
    111  CA         3.0050  -18.0460   60.8940 C.3   237  ARG237      0.1597
    112  C          1.8290  -17.3400   60.2130 C.2   237  ARG237      0.2287
    113  O          1.2340  -16.4130   60.7770 O.2   237  ARG237     -0.2864
    114  CB         4.3350  -17.5930   60.2590 C.3   237  ARG237      0.0334
    115  CG         4.6510  -16.1200   60.5550 C.3   237  ARG237      0.0492
    116  CD         6.0140  -15.6960   60.0870 C.3   237  ARG237      0.2205
    117  NE         6.1480  -15.6970   58.6270 N.pl3 237  ARG237     -0.0865
    118  CZ         5.7780  -14.6980   57.8190 C.cat 237  ARG237      0.5346
    119  NH1        5.2210  -13.5950   58.3130 N.pl3 237  ARG237      0.1354
    120  NH2        5.9680  -14.8040   56.5010 N.pl3 237  ARG237      0.1354
@<TRIPOS>BOND
     1    72    71    1
     2    72    73    1
     3    71    68    1
     4    34    33    2
     5    53    54    2
     6    53    52    1
     7    68    67    1
     8    68    69    1
     9    59    60    1
    10    73    67    1
    11    67    61   am
    12    35    33   am
    13    33    32    1
    14    61    62    2
    15    61    60    1
    16    52    51    1
    17    52    55    1
    18    69    70    2
    19    60    63    1
    20    32    31    1
    21    55    56    1
    22    63    64    1
    23    50    49    2
    24    64    66    1
    25    64    65    1
    26    31    28    1
    27    57    56   ar
    28    56    58   ar
    29    74    75    1
    30    49    48    1
    31    77    76    2
    32   100    99    1
    33    28    27    1
    34    28    29    1
    35    78    75    1
    36    78    79    1
    37    78    80    1
    38    75    76    1
    39    39    38    2
    40    13    12    2
    41    11    10    1
    42    11    12    1
    43    11    14    1
    44    98    99   ar
    45    98    96   ar
    46    27    23   am
    47    48    47    1
    48    15    16    1
    49    15    14    1
    50    99    97   ar
    51    29    36   am
    52    29    30    2
    53    36    37    1
    54    38    47   am
    55    38    37    1
    56    16    17    1
    57    26    25    1
    58    96    94   ar
    59    37    40    1
    60    21    22    1
    61    97    95   ar
    62    23    22    1
    63    23    24    2
    64    22    25    1
    65    17    18    2
    66    94    95   ar
    67    94    93    1
    68    19    18    1
    69    40    41    1
    70    18    20    1
    71    93    90    1
    72     1     2    1
    73    41    42    1
    74     2     3    1
    75     2     5    1
    76     3     4    2
    77    83    84    2
    78    83    82    1
    79   120   118    1
    80     6     5    1
    81     6     7    1
    82    90    91    1
    83    90    89    1
    84    91    92    2
    85    82    81    1
    86    42    43    1
    87    89    87   am
    88   118   119    1
    89   118   117    2
    90     9     7   am
    91     7     8    2
    92    43    44    2
    93   117   116    1
    94    85    86    1
    95    87    86    1
    96    87    88    2
    97    44    45    1
    98    44    46    1
    99   101   102    1
   100   116   115    1
   101   112   113    2
   102   112   111    1
   103   114   115    1
   104   114   111    1
   105   110   111    1
   106   110   103   am
   107   102   103    1
   108   102   105    1
   109   103   104    2
   110   105   106    1
   111   106   107    1
   112   108   107    2
   113   107   109   am
