@<TRIPOS>MOLECULE
tmp/4eu2I00.pdb
 119 111 0 0 0
SMALL
GASTEIGER

@<TRIPOS>ATOM
      1  N         64.8400    9.1230   44.2980 N.3     1  THR1       -0.1218
      2  CA        65.1960   10.2890   45.0980 C.3     1  THR1        0.1862
      3  C         65.1090    9.9680   46.5820 C.2     1  THR1        0.2287
      4  O         64.1680    9.3160   47.0360 O.2     1  THR1       -0.2866
      5  CB        64.2860   11.5070   44.7740 C.3     1  THR1        0.1770
      6  OG1       64.7120   12.1130   43.5490 O.3     1  THR1       -0.2211
      7  CG2       64.3380   12.5550   45.8840 C.3     1  THR1        0.0375
      8  N         68.4030   12.3690   38.9620 N.3    20  SER20      -0.1202
      9  CA        67.0910   12.6220   38.3730 C.3    20  SER20       0.2020
     10  C         66.7210   11.5090   37.3990 C.2    20  SER20       0.2619
     11  O         67.5290   11.1550   36.5370 O.2    20  SER20      -0.2717
     12  CB        67.0640   13.9670   37.6540 C.3    20  SER20       0.2103
     13  OG        65.7940   14.1750   37.0640 O.3    20  SER20      -0.2182
     14  N         65.5110   10.9610   37.5280 N.am   21  THR21      -0.1952
     15  CA        65.0910    9.8800   36.6420 C.3    21  THR21       0.1897
     16  C         63.8570   10.1910   35.8120 C.2    21  THR21       0.2313
     17  O         62.8990   10.8100   36.2890 O.2    21  THR21      -0.2863
     18  CB        64.8550    8.5240   37.3770 C.3    21  THR21       0.1794
     19  OG1       63.8420    8.6730   38.3790 O.3    21  THR21      -0.2208
     20  CG2       66.1390    8.0200   38.0090 C.3    21  THR21       0.0378
     21  N         61.4950    7.6340   34.0460 N.3    23  GLY23      -0.1225
     22  CA        61.2400    6.2110   33.9710 C.3    23  GLY23       0.1811
     23  C         62.3940    5.4300   34.5650 C.2    23  GLY23       0.2280
     24  O         62.6900    5.5660   35.7500 O.2    23  GLY23      -0.2866
     25  N         69.0060   18.9290   44.4400 N.3    33  LYS33      -0.1245
     26  CA        67.6410   18.7530   44.9130 C.3    33  LYS33       0.1561
     27  C         67.4170   19.5920   46.1550 C.2    33  LYS33       0.2260
     28  O         66.2880   19.6740   46.6610 O.2    33  LYS33      -0.2867
     29  CB        67.3430   17.2750   45.2030 C.3    33  LYS33       0.0271
     30  CG        67.6310   16.3420   44.0500 C.3    33  LYS33       0.0035
     31  CD        67.0460   14.9400   44.2760 C.3    33  LYS33       0.0206
     32  CE        67.5600   13.9540   43.2040 C.3    33  LYS33       0.1093
     33  NZ        67.0420   12.5420   43.3340 N.3    33  LYS33      -0.1314
     34  N         63.4030   18.4830   47.6930 N.3    45  GLY45      -0.1210
     35  CA        62.2010   18.1670   46.9460 C.3    45  GLY45       0.1956
     36  C         62.1980   16.7970   46.2960 C.2    45  GLY45       0.2612
     37  O         63.2220   16.3250   45.8060 O.2    45  GLY45      -0.2717
     38  N         61.0310   16.1590   46.2970 N.am   46  ALA46      -0.1965
     39  CA        60.8150   14.8860   45.6190 C.3    46  ALA46       0.1728
     40  C         59.4090   14.9230   45.0660 C.2    46  ALA46       0.2617
     41  O         58.5300   15.5540   45.6460 O.2    46  ALA46      -0.2715
     42  CB        60.9730   13.7260   46.5880 C.3    46  ALA46       0.0334
     43  N         59.1950   14.2450   43.9490 N.am   47  GLY47      -0.1940
     44  CA        57.9320   14.3090   43.2390 C.3    47  GLY47       0.2014
     45  C         58.1890   14.8480   41.8430 C.2    47  GLY47       0.2640
     46  O         59.2840   14.6700   41.2950 O.2    47  GLY47      -0.2714
     47  N         57.1970   15.5130   41.2590 N.am   48  THR48      -0.1936
     48  CA        57.4060   16.1240   39.9620 C.3    48  THR48       0.2028
     49  C         58.4220   17.2490   40.1390 C.2    48  THR48       0.2642
     50  O         58.1880   18.1970   40.8930 O.2    48  THR48      -0.2714
     51  CB        56.1040   16.6810   39.4070 C.3    48  THR48       0.1808
     52  OG1       55.0480   15.7200   39.5840 O.3    48  THR48      -0.2208
     53  CG2       56.2690   17.0330   37.9280 C.3    48  THR48       0.0379
     54  N         59.5660   17.1400   39.4760 N.am   49  ALA49      -0.1977
     55  CA        60.6550   18.0880   39.7350 C.3    49  ALA49       0.1597
     56  C         60.3550   19.5470   39.3100 C.2    49  ALA49       0.2287
     57  O         60.7920   20.4990   39.9640 O.2    49  ALA49      -0.2864
     58  CB        61.9650   17.5880   39.1250 C.3    49  ALA49       0.0319
     59  N         58.4680   20.7570   42.3210 N.3    52  THR52      -0.1218
     60  CA        59.2630   21.0800   43.5040 C.3    52  THR52       0.1862
     61  C         60.0410   22.3730   43.2760 C.2    52  THR52       0.2287
     62  O         60.1860   23.1640   44.1880 O.2    52  THR52      -0.2866
     63  CB        60.1970   19.9140   44.0020 C.3    52  THR52       0.1770
     64  OG1       61.3160   19.7530   43.1210 O.3    52  THR52      -0.2211
     65  CG2       59.4270   18.6190   44.0990 C.3    52  THR52       0.0375
     66  N         56.7360   17.1560   47.1370 N.3    97  TYR97      -0.1241
     67  CA        56.8760   16.4690   48.3980 C.3    97  TYR97       0.1605
     68  C         58.1670   17.0040   48.9460 C.2    97  TYR97       0.2264
     69  O         59.2060   16.9350   48.2830 O.2    97  TYR97      -0.2867
     70  CB        56.9200   14.9620   48.1700 C.3    97  TYR97       0.0534
     71  CG        55.5750   14.3910   47.7750 C.ar   97  TYR97      -0.0201
     72  CD1       54.7070   13.8810   48.7420 C.ar   97  TYR97      -0.0009
     73  CD2       55.1650   14.3690   46.4450 C.ar   97  TYR97      -0.0009
     74  CE1       53.4780   13.3570   48.4020 C.ar   97  TYR97       0.0417
     75  CE2       53.9380   13.8480   46.0970 C.ar   97  TYR97       0.0417
     76  CZ        53.0950   13.3440   47.0840 C.ar   97  TYR97       0.1957
     77  OH        51.8550   12.8300   46.7650 O.3    97  TYR97      -0.2866
     78  N         53.3660   17.4640   52.3550 N.3   114  HIS114     -0.1241
     79  CA        52.9140   16.5900   51.2870 C.3   114  HIS114      0.1621
     80  C         52.1010   17.3070   50.2160 C.2   114  HIS114      0.2264
     81  O         51.5000   18.3770   50.4660 O.2   114  HIS114     -0.2867
     82  CB        52.1510   15.3990   51.8570 C.3   114  HIS114      0.0745
     83  CG        53.0480   14.3790   52.4800 C.ar  114  HIS114      0.0817
     84  ND1       53.1540   13.0910   52.0040 N.ar  114  HIS114     -0.2268
     85  CD2       53.9200   14.4770   53.5140 C.ar  114  HIS114      0.1154
     86  CE1       54.0370   12.4280   52.7360 C.ar  114  HIS114      0.1986
     87  NE2       54.5180   13.2470   53.6550 N.ar  114  HIS114     -0.2212
     88  N         49.3430   17.0380   49.0080 N.3   116  HIS116     -0.1241
     89  CA        47.9380   17.3270   49.2260 C.3   116  HIS116      0.1621
     90  C         47.7550   18.4490   50.2030 C.2   116  HIS116      0.2264
     91  O         46.6660   19.0230   50.2730 O.2   116  HIS116     -0.2867
     92  CB        47.1810   16.0840   49.6860 C.3   116  HIS116      0.0745
     93  CG        46.8150   15.1720   48.5640 C.ar  116  HIS116      0.0817
     94  ND1       47.7140   14.2850   48.0050 N.ar  116  HIS116     -0.2268
     95  CD2       45.6660   15.0360   47.8620 C.ar  116  HIS116      0.1154
     96  CE1       47.1260   13.6310   47.0200 C.ar  116  HIS116      0.1986
     97  NE2       45.8810   14.0660   46.9130 N.ar  116  HIS116     -0.2212
     98  N         61.8980   11.4640   52.7870 N.3   127  LEU127     -0.1231
     99  CA        60.9100   11.3090   51.7360 C.3   127  LEU127      0.1693
    100  C         61.6290   10.8310   50.4950 C.2   127  LEU127      0.2593
    101  O         62.8550   10.9770   50.3710 O.2   127  LEU127     -0.2718
    102  CB        60.2080   12.6380   51.3970 C.3   127  LEU127      0.0284
    103  CG        59.3720   13.4360   52.4110 C.3   127  LEU127      0.0019
    104  CD1       58.8990   14.7090   51.7430 C.3   127  LEU127      0.0001
    105  CD2       58.1850   12.6710   53.0550 C.3   127  LEU127      0.0001
    106  N         60.8620   10.2860   49.5610 N.am  128  GLY128     -0.1942
    107  CA        61.4350    9.8820   48.2990 C.3   128  GLY128      0.2014
    108  C         61.2820    8.4020   48.0490 C.2   128  GLY128      0.2639
    109  O         60.7040    7.6890   48.8580 O.2   128  GLY128     -0.2714
    110  N         61.7950    7.9380   46.9150 N.am  129  SER129     -0.1949
    111  CA        61.6970    6.5240   46.5760 C.3   129  SER129      0.1924
    112  C         62.6920    5.7730   47.4460 C.2   129  SER129      0.2314
    113  O         62.6140    4.5560   47.5900 O.2   129  SER129     -0.2863
    114  CB        61.9450    6.3030   45.0850 C.3   129  SER129      0.2116
    115  OG        63.2590    6.6880   44.7020 O.3   129  SER129     -0.2180
    116  N         65.8210    4.3080   42.4880 N.3   168  GLY168     -0.1225
    117  CA        65.3970    5.6490   42.1340 C.3   168  GLY168      0.1811
    118  C         66.3630    6.7150   42.6140 C.2   168  GLY168      0.2280
    119  O         66.3110    7.8650   42.1800 O.2   168  GLY168     -0.2866
@<TRIPOS>BOND
     1    22    21    1
     2    22    23    1
     3    23    24    2
     4    16    17    2
     5    16    15    1
     6    11    10    2
     7    15    18    1
     8    15    14    1
     9    13    12    1
    10    18    20    1
    11    18    19    1
    12    10    14   am
    13    10     9    1
    14    12     9    1
    15    53    51    1
    16     9     8    1
    17    58    55    1
    18    56    55    1
    19    56    57    2
    20    51    52    1
    21    51    48    1
    22    54    55    1
    23    54    49   am
    24    48    49    1
    25    48    47    1
    26    49    50    2
    27    47    45   am
    28    46    45    2
    29    45    44    1
    30   117   116    1
    31   117   118    1
    32   119   118    2
    33    59    60    1
    34    64    63    1
    35    32    33    1
    36    32    31    1
    37    44    43    1
    38    61    60    1
    39    61    62    2
    40    60    63    1
    41     6     5    1
    42    43    40   am
    43    63    65    1
    44    30    31    1
    45    30    29    1
    46     1     2    1
    47    25    26    1
    48   115   114    1
    49     5     2    1
    50     5     7    1
    51    26    29    1
    52    26    27    1
    53    40    39    1
    54    40    41    2
    55   114   111    1
    56     2     3    1
    57    39    38    1
    58    39    42    1
    59    37    36    2
    60    75    73   ar
    61    75    76   ar
    62    27    28    2
    63    36    38   am
    64    36    35    1
    65    73    71   ar
    66   111   110    1
    67   111   112    1
    68     3     4    2
    69    77    76    1
    70    97    96   ar
    71    97    95   ar
    72   110   108   am
    73    35    34    1
    74    96    94   ar
    75    76    74   ar
    76    66    67    1
    77   112   113    2
    78    71    70    1
    79    71    72   ar
    80    95    93   ar
    81    94    93   ar
    82   108   107    1
    83   108   109    2
    84    70    67    1
    85    69    68    2
    86   107   106    1
    87    67    68    1
    88    74    72   ar
    89    93    92    1
    90    88    89    1
    91    89    92    1
    92    89    90    1
    93   106   100   am
    94    90    91    2
    95    80    81    2
    96    80    79    1
    97   101   100    2
    98   100    99    1
    99    79    82    1
   100    79    78    1
   101   102    99    1
   102   102   103    1
   103    99    98    1
   104   104   103    1
   105    82    83    1
   106    84    83   ar
   107    84    86   ar
   108   103   105    1
   109    83    85   ar
   110    86    87   ar
   111    85    87   ar
