@<TRIPOS>MOLECULE
tmp/4eu2Z00.pdb
 136 128 0 0 0
SMALL
GASTEIGER

@<TRIPOS>ATOM
      1  N         56.1570   -3.4290    8.0410 N.3     1  THR1       -0.1218
      2  CA        57.0230   -3.9780    7.0010 C.3     1  THR1        0.1862
      3  C         56.3720   -4.0270    5.6130 C.2     1  THR1        0.2287
      4  O         55.1750   -3.8020    5.4530 O.2     1  THR1       -0.2866
      5  CB        57.5140   -5.3890    7.3770 C.3     1  THR1        0.1770
      6  OG1       56.6430   -6.3690    6.8070 O.3     1  THR1       -0.2211
      7  CG2       57.5470   -5.5490    8.8790 C.3     1  THR1        0.0375
      8  N         60.3550   -3.7140   14.2440 N.3    21  THR21      -0.1218
      9  CA        60.2140   -2.7170   15.2970 C.3    21  THR21       0.1862
     10  C         59.3360   -3.2030   16.4410 C.2    21  THR21       0.2287
     11  O         58.3640   -3.9140   16.2290 O.2    21  THR21      -0.2866
     12  CB        59.5890   -1.4150   14.7620 C.3    21  THR21       0.1770
     13  OG1       58.2580   -1.6880   14.2930 O.3    21  THR21      -0.2211
     14  CG2       60.4340   -0.8340   13.6370 C.3    21  THR21       0.0375
     15  N         62.3760  -11.9530    5.8490 N.3    33  ARG33      -0.1245
     16  CA        60.9250  -11.9580    5.8090 C.3    33  ARG33       0.1563
     17  C         60.4680  -12.9230    4.7050 C.2    33  ARG33       0.2260
     18  O         59.2740  -13.1330    4.4830 O.2    33  ARG33      -0.2867
     19  CB        60.3590  -10.5140    5.6790 C.3    33  ARG33       0.0307
     20  CG        60.7840   -9.5650    6.8330 C.3    33  ARG33       0.0489
     21  CD        59.7440   -8.4640    7.1830 C.3    33  ARG33       0.2205
     22  NE        59.8360   -8.0080    8.5900 N.pl3  33  ARG33      -0.0865
     23  CZ        58.9890   -8.3410    9.5910 C.cat  33  ARG33       0.5346
     24  NH1       57.9290   -9.1210    9.3710 N.pl3  33  ARG33       0.1354
     25  NH2       59.1750   -7.8680   10.8310 N.pl3  33  ARG33       0.1354
     26  N         54.6180  -11.4730    7.2930 N.3    46  ALA46      -0.1231
     27  CA        53.9690  -10.2520    7.7700 C.3    46  ALA46       0.1694
     28  C         52.9310  -10.5520    8.8490 C.2    46  ALA46       0.2592
     29  O         52.2920  -11.6050    8.8290 O.2    46  ALA46      -0.2718
     30  CB        53.3410   -9.4940    6.6200 C.3    46  ALA46       0.0304
     31  N         52.7450   -9.6100    9.7720 N.am   47  GLY47      -0.1957
     32  CA        51.9320   -9.8450   10.9520 C.3    47  GLY47       0.1869
     33  C         52.8550  -10.3990   12.0210 C.2    47  GLY47       0.2309
     34  O         53.8610   -9.7680   12.3550 O.2    47  GLY47      -0.2863
     35  N         41.2990  -19.7590   14.2850 N.3    91  LYS91      -0.1231
     36  CA        40.6150  -18.4740   14.1850 C.3    91  LYS91       0.1693
     37  C         40.0740  -18.0570   15.5490 C.2    91  LYS91       0.2592
     38  O         39.4760  -18.8660   16.2580 O.2    91  LYS91      -0.2718
     39  CB        39.4850  -18.5380   13.1530 C.3    91  LYS91       0.0285
     40  CG        38.8200  -17.2010   12.8370 C.3    91  LYS91       0.0035
     41  CD        37.7810  -17.3620   11.7260 C.3    91  LYS91       0.0206
     42  CE        37.0440  -16.0650   11.4050 C.3    91  LYS91       0.1093
     43  NZ        37.8860  -15.0660   10.7080 N.3    91  LYS91      -0.1314
     44  N         40.3460  -16.8090   15.9320 N.am   92  GLY92      -0.1957
     45  CA        39.8710  -16.2630   17.1920 C.3    92  GLY92       0.1869
     46  C         40.8800  -16.3500   18.3210 C.2    92  GLY92       0.2309
     47  O         40.7670  -15.6420   19.3330 O.2    92  GLY92      -0.2863
     48  N         46.2090  -15.6840   16.4180 N.3    95  LEU95      -0.1231
     49  CA        47.2940  -15.8090   15.4530 C.3    95  LEU95       0.1693
     50  C         47.2800  -14.5510   14.5760 C.2    95  LEU95       0.2593
     51  O         46.2110  -13.9860   14.3100 O.2    95  LEU95      -0.2718
     52  CB        47.0830  -17.0510   14.5950 C.3    95  LEU95       0.0284
     53  CG        48.1150  -18.1660   14.6240 C.3    95  LEU95       0.0019
     54  CD1       48.6790  -18.3740   16.0130 C.3    95  LEU95       0.0001
     55  CD2       47.4780  -19.4400   14.1070 C.3    95  LEU95       0.0001
     56  N         48.4600  -14.1100   14.1430 N.am   96  SER96      -0.1938
     57  CA        48.5710  -12.9790   13.2270 C.3    96  SER96       0.2055
     58  C         49.5080  -13.3170   12.0850 C.2    96  SER96       0.2643
     59  O         50.6980  -13.5230   12.3060 O.2    96  SER96      -0.2714
     60  CB        49.0810  -11.7190   13.9480 C.3    96  SER96       0.2130
     61  OG        49.0930  -10.5870   13.0790 O.3    96  SER96      -0.2179
     62  N         48.9730  -13.3510   10.8690 N.am   97  MET97      -0.1962
     63  CA        49.7280  -13.7570    9.6830 C.3    97  MET97       0.1736
     64  C         49.1590  -13.1050    8.4360 C.2    97  MET97       0.2617
     65  O         47.9510  -13.0890    8.2570 O.2    97  MET97      -0.2715
     66  CB        49.5980  -15.2650    9.4540 C.3    97  MET97       0.0427
     67  CG        50.3230  -16.1910   10.4290 C.3    97  MET97       0.0599
     68  SD        50.1280  -17.9140    9.8690 S.3    97  MET97      -0.1393
     69  CE        50.2600  -17.6900    8.0880 C.3    97  MET97       0.0692
     70  N         50.0250  -12.6070    7.5600 N.am   98  GLY98      -0.1955
     71  CA        49.6180  -12.1700    6.2330 C.3    98  GLY98       0.1869
     72  C         50.7470  -12.5810    5.3320 C.2    98  GLY98       0.2309
     73  O         51.8880  -12.2490    5.6160 O.2    98  GLY98      -0.2863
     74  N         47.5490  -15.5240   -1.5580 N.3   114  TYR114     -0.1241
     75  CA        47.5990  -14.7490   -0.3280 C.3   114  TYR114      0.1605
     76  C         46.8480  -15.5500    0.7400 C.2   114  TYR114      0.2264
     77  O         45.7520  -16.0450    0.4840 O.2   114  TYR114     -0.2867
     78  CB        46.9750  -13.3500   -0.5420 C.3   114  TYR114      0.0534
     79  CG        46.5710  -12.6370    0.7280 C.ar  114  TYR114     -0.0201
     80  CD1       47.5210  -12.0330    1.5430 C.ar  114  TYR114     -0.0009
     81  CD2       45.2420  -12.5730    1.1130 C.ar  114  TYR114     -0.0009
     82  CE1       47.1580  -11.3850    2.7180 C.ar  114  TYR114      0.0417
     83  CE2       44.8650  -11.9400    2.2780 C.ar  114  TYR114      0.0417
     84  CZ        45.8240  -11.3400    3.0840 C.ar  114  TYR114      0.1957
     85  OH        45.4370  -10.6990    4.2500 O.3   114  TYR114     -0.2866
     86  N         45.9130  -15.3820    5.0310 N.3   116  ASP116     -0.1225
     87  CA        46.0280  -14.6580    6.2980 C.3   116  ASP116      0.1805
     88  C         45.3760  -15.3430    7.5010 C.2   116  ASP116      0.2598
     89  O         44.6030  -16.2890    7.3440 O.2   116  ASP116     -0.2718
     90  CB        45.5850  -13.1880    6.1580 C.3   116  ASP116      0.1424
     91  CG        44.0770  -13.0170    6.0180 C.2   116  ASP116      0.3668
     92  OD1       43.3180  -13.8510    6.5420 O.co2 116  ASP116     -0.2456
     93  OD2       43.6420  -12.0140    5.3980 O.co2 116  ASP116     -0.2456
     94  N         45.6730  -14.8380    8.6980 N.am  117  SER117     -0.1938
     95  CA        45.1770  -15.4280    9.9320 C.3   117  SER117      0.2055
     96  C         43.6670  -15.3520   10.1100 C.2   117  SER117      0.2643
     97  O         43.1340  -15.9050   11.0710 O.2   117  SER117     -0.2714
     98  CB        45.8390  -14.7720   11.1260 C.3   117  SER117      0.2130
     99  OG        46.6140  -13.6720   10.7170 O.3   117  SER117     -0.2179
    100  N         42.9780  -14.6620    9.2040 N.am  118  ASP118     -0.1971
    101  CA        41.5160  -14.6030    9.2500 C.3   118  ASP118      0.1709
    102  C         40.9110  -15.8330    8.5900 C.2   118  ASP118      0.2293
    103  O         39.7190  -16.1000    8.7410 O.2   118  ASP118     -0.2864
    104  CB        40.9760  -13.3390    8.5730 C.3   118  ASP118      0.1436
    105  CG        40.6470  -12.2410    9.5680 C.2   118  ASP118      0.3671
    106  OD1       40.5860  -12.5510   10.7820 O.co2 118  ASP118     -0.2456
    107  OD2       40.4320  -11.0770    9.1360 O.co2 118  ASP118     -0.2456
    108  N         51.7260   -6.7010    1.1760 N.3   129  VAL129     -0.1231
    109  CA        51.2490   -6.9500    2.5280 C.3   129  VAL129      0.1692
    110  C         52.1470   -6.2630    3.5320 C.2   129  VAL129      0.2593
    111  O         53.3750   -6.3750    3.4560 O.2   129  VAL129     -0.2718
    112  CB        51.2650   -8.4670    2.8520 C.3   129  VAL129      0.0266
    113  CG1       50.8230   -8.7120    4.2790 C.3   129  VAL129      0.0020
    114  CG2       50.3820   -9.2430    1.8790 C.3   129  VAL129      0.0020
    115  N         51.5360   -5.5640    4.4830 N.am  130  GLY130     -0.1942
    116  CA        52.2830   -4.9000    5.5320 C.3   130  GLY130      0.2014
    117  C         52.0580   -3.3990    5.5820 C.2   130  GLY130      0.2639
    118  O         51.3320   -2.8480    4.7590 O.2   130  GLY130     -0.2714
    119  N         52.6900   -2.7370    6.5460 N.am  131  SER131     -0.1949
    120  CA        52.4780   -1.3090    6.7700 C.3   131  SER131      0.1924
    121  C         52.8930   -0.4790    5.5680 C.2   131  SER131      0.2314
    122  O         52.2990    0.5580    5.2890 O.2   131  SER131     -0.2863
    123  CB        53.2460   -0.8470    7.9980 C.3   131  SER131      0.2116
    124  OG        54.6330   -1.0870    7.8380 O.3   131  SER131     -0.2180
    125  N         58.0720    1.9750    9.2960 N.3   170  TYR170     -0.1241
    126  CA        58.2110    0.5970    9.7990 C.3   170  TYR170      0.1605
    127  C         58.8250   -0.4010    8.8010 C.2   170  TYR170      0.2264
    128  O         58.9770   -1.5850    9.1080 O.2   170  TYR170     -0.2867
    129  CB        56.8700    0.0890   10.3380 C.3   170  TYR170      0.0534
    130  CG        56.3740    0.9130   11.4970 C.ar  170  TYR170     -0.0201
    131  CD1       57.2380    1.2980   12.5120 C.ar  170  TYR170     -0.0009
    132  CD2       55.0560    1.3480   11.5650 C.ar  170  TYR170     -0.0009
    133  CE1       56.8060    2.0690   13.5780 C.ar  170  TYR170      0.0417
    134  CE2       54.6120    2.1300   12.6370 C.ar  170  TYR170      0.0417
    135  CZ        55.4990    2.4810   13.6360 C.ar  170  TYR170      0.1957
    136  OH        55.0980    3.2540   14.7040 O.3   170  TYR170     -0.2866
@<TRIPOS>BOND
     1    74    75    1
     2    78    75    1
     3    78    79    1
     4    75    76    1
     5    77    76    2
     6    79    81   ar
     7    79    80   ar
     8    81    83   ar
     9   108   109    1
    10    80    82   ar
    11   114   112    1
    12    83    84   ar
    13   109   112    1
    14   109   110    1
    15    82    84   ar
    16   112   113    1
    17    84    85    1
    18   111   110    2
    19   110   115   am
    20   115   116    1
    21    18    17    2
    22    17    16    1
    23   118   117    2
    24    86    87    1
    25   122   121    2
    26    72    73    2
    27    72    71    1
    28    93    91   ar
    29     4     3    2
    30   116   117    1
    31   121   120    1
    32   117   119   am
    33     3     2    1
    34    19    16    1
    35    19    20    1
    36    16    15    1
    37    91    90    1
    38    91    92   ar
    39    90    87    1
    40    71    70    1
    41    87    88    1
    42   119   120    1
    43    30    27    1
    44   120   123    1
    45     6     5    1
    46    20    21    1
    47     2     5    1
    48     2     1    1
    49    21    22    1
    50    26    27    1
    51    89    88    2
    52     5     7    1
    53    88    94   am
    54    70    64   am
    55    27    28    1
    56   124   123    1
    57    69    68    1
    58    65    64    2
    59    64    63    1
    60   104   101    1
    61   104   105    1
    62   102   103    2
    63   102   101    1
    64    22    23    2
    65    94    95    1
    66   127   128    2
    67   127   126    1
    68    29    28    2
    69    28    31   am
    70   107   105   ar
    71   100   101    1
    72   100    96   am
    73   125   126    1
    74    24    23    1
    75    66    63    1
    76    66    67    1
    77   105   106   ar
    78    23    25    1
    79    63    62    1
    80    31    32    1
    81   126   129    1
    82    68    67    1
    83    95    96    1
    84    95    98    1
    85    96    97    2
    86   129   130    1
    87    43    42    1
    88    99    98    1
    89    62    58   am
    90    32    33    1
    91    42    41    1
    92   130   132   ar
    93   130   131   ar
    94   132   134   ar
    95    41    40    1
    96    33    34    2
    97    58    59    2
    98    58    57    1
    99   131   133   ar
   100   134   135   ar
   101    40    39    1
   102    61    60    1
   103    39    36    1
   104    57    60    1
   105    57    56    1
   106   133   135   ar
   107   135   136    1
   108    14    12    1
   109    55    53    1
   110    56    50   am
   111    36    35    1
   112    36    37    1
   113     8     9    1
   114    13    12    1
   115    51    50    2
   116    50    49    1
   117    52    53    1
   118    52    49    1
   119    53    54    1
   120    12     9    1
   121     9    10    1
   122    49    48    1
   123    37    44   am
   124    37    38    2
   125    44    45    1
   126    11    10    2
   127    45    46    1
   128    46    47    2
