@<TRIPOS>MOLECULE
tmp/4eu2H00.pdb
 74 65 0 0 0
SMALL
GASTEIGER

@<TRIPOS>ATOM
      1  N         43.6030    5.6320   62.7250 N.3     1  THR1       -0.1218
      2  CA        43.7890    6.3840   63.9650 C.3     1  THR1        0.1862
      3  C         42.6390    6.1660   64.9670 C.2     1  THR1        0.2287
      4  O         41.5230    5.7920   64.5880 O.2     1  THR1       -0.2866
      5  CB        44.0200    7.9120   63.6940 C.3     1  THR1        0.1770
      6  OG1       42.7780    8.6160   63.6830 O.3     1  THR1       -0.2211
      7  CG2       44.7310    8.1330   62.3790 C.3     1  THR1        0.0375
      8  N         49.7030    7.6330   65.4360 N.3    19  ARG19      -0.1245
      9  CA        50.0980    6.9790   64.1860 C.3    19  ARG19       0.1563
     10  C         49.3360    7.4990   62.9740 C.2    19  ARG19       0.2260
     11  O         48.1060    7.4150   62.9150 O.2    19  ARG19      -0.2867
     12  CB        49.9310    5.4550   64.2730 C.3    19  ARG19       0.0307
     13  CG        50.2280    4.7260   62.9560 C.3    19  ARG19       0.0489
     14  CD        50.0870    3.2100   63.0730 C.3    19  ARG19       0.2205
     15  NE        51.2110    2.6240   63.7950 N.pl3  19  ARG19      -0.0865
     16  CZ        51.3100    1.3440   64.1440 C.cat  19  ARG19       0.5346
     17  NH1       50.3530    0.4820   63.8430 N.pl3  19  ARG19       0.1354
     18  NH2       52.3770    0.9260   64.7970 N.pl3  19  ARG19       0.1354
     19  N         49.3830    6.8090   58.8160 N.3    21  THR21      -0.1218
     20  CA        49.8410    5.7630   57.9600 C.3    21  THR21       0.1862
     21  C         49.5140    6.0710   56.5100 C.2    21  THR21       0.2287
     22  O         48.4930    6.6890   56.1990 O.2    21  THR21      -0.2866
     23  CB        49.2110    4.4470   58.3980 C.3    21  THR21       0.1770
     24  OG1       49.8560    3.3840   57.7050 O.3    21  THR21      -0.2211
     25  CG2       47.7050    4.4290   58.1240 C.3    21  THR21       0.0375
     26  N         40.6380   13.2700   62.5040 N.3    46  SER46      -0.1202
     27  CA        40.7540   12.0020   61.8070 C.3    46  SER46       0.2020
     28  C         40.2400   12.1730   60.3700 C.2    46  SER46       0.2619
     29  O         39.3690   13.0130   60.0980 O.2    46  SER46      -0.2717
     30  CB        39.9710   10.9000   62.5310 C.3    46  SER46       0.2103
     31  OG        38.5850   10.9790   62.2380 O.3    46  SER46      -0.2182
     32  N         40.7850   11.3730   59.4600 N.am   47  GLY47      -0.1956
     33  CA        40.4390   11.4630   58.0590 C.3    47  GLY47       0.1869
     34  C         41.6580   11.9120   57.2950 C.2    47  GLY47       0.2309
     35  O         42.7870   11.6070   57.6870 O.2    47  GLY47      -0.2863
     36  N         37.3750   14.6340   53.5150 N.3    94  THR94      -0.1218
     37  CA        37.2700   13.4080   54.2800 C.3    94  THR94       0.1862
     38  C         37.7680   13.7090   55.6930 C.2    94  THR94       0.2287
     39  O         38.9350   13.4620   56.0390 O.2    94  THR94      -0.2866
     40  CB        38.0410   12.2350   53.6310 C.3    94  THR94       0.1770
     41  OG1       37.7090   12.1530   52.2360 O.3    94  THR94      -0.2211
     42  CG2       37.6780   10.9070   54.3120 C.3    94  THR94       0.0375
     43  N         31.5190   12.3220   58.9360 N.3   115  LEU115     -0.1245
     44  CA        31.5210   12.5660   57.4910 C.3   115  LEU115      0.1561
     45  C         30.3170   13.3410   56.9530 C.2   115  LEU115      0.2260
     46  O         30.4450   14.1400   56.0040 O.2   115  LEU115     -0.2867
     47  CB        31.6460   11.2370   56.7440 C.3   115  LEU115      0.0270
     48  CG        33.0300   10.7230   56.3160 C.3   115  LEU115      0.0019
     49  CD1       33.5480   11.4640   55.0790 C.3   115  LEU115      0.0001
     50  CD2       34.0360   10.8250   57.4620 C.3   115  LEU115      0.0001
     51  N         37.5850    7.6890   64.4280 N.3   128  GLY128     -0.1210
     52  CA        38.7630    7.0740   63.8470 C.3   128  GLY128      0.1956
     53  C         38.5400    5.5930   63.5450 C.2   128  GLY128      0.2612
     54  O         37.5290    5.0070   63.9380 O.2   128  GLY128     -0.2717
     55  N         39.4860    4.9820   62.8410 N.am  129  SER129     -0.1952
     56  CA        39.2970    3.6190   62.3570 C.3   129  SER129      0.1924
     57  C         39.3550    2.6050   63.5020 C.2   129  SER129      0.2314
     58  O         38.5980    1.6350   63.5070 O.2   129  SER129     -0.2863
     59  CB        40.3090    3.2770   61.2610 C.3   129  SER129      0.2116
     60  OG        41.6140    3.1470   61.7910 O.3   129  SER129     -0.2180
     61  N         43.3550   -2.3190   65.8240 N.3   166  ASP166     -0.1239
     62  CA        43.5070   -1.5500   64.5800 C.3   166  ASP166      0.1674
     63  C         44.9660   -1.2800   64.2860 C.2   166  ASP166      0.2266
     64  O         45.6830   -0.6990   65.1040 O.2   166  ASP166     -0.2867
     65  CB        42.7610   -0.2240   64.6790 C.3   166  ASP166      0.1410
     66  CG        42.7840    0.5780   63.3750 C.2   166  ASP166      0.3668
     67  OD1       42.8150   -0.0310   62.2800 O.co2 166  ASP166     -0.2456
     68  OD2       42.7370    1.8320   63.4550 O.co2 166  ASP166     -0.2456
     69  N         45.8350    0.6660   62.0540 N.3   168  SER168     -0.1217
     70  CA        45.9340    2.0450   61.5910 C.3   168  SER168      0.1889
     71  C         46.2650    2.9670   62.7660 C.2   168  SER168      0.2288
     72  O         46.5480    4.1500   62.5810 O.2   168  SER168     -0.2866
     73  CB        44.6520    2.4920   60.8860 C.3   168  SER168      0.2089
     74  OG        44.5790    1.9930   59.5590 O.3   168  SER168     -0.2183
@<TRIPOS>BOND
     1    41    40    1
     2    36    37    1
     3    40    37    1
     4    40    42    1
     5    37    38    1
     6    49    48    1
     7    38    39    2
     8    46    45    2
     9    22    21    2
    10    48    47    1
    11    48    50    1
    12    21    20    1
    13    47    44    1
    14    45    44    1
    15    34    35    2
    16    34    33    1
    17    44    43    1
    18    24    23    1
    19    20    23    1
    20    20    19    1
    21    33    32    1
    22    25    23    1
    23    32    28   am
    24    74    73    1
    25    29    28    2
    26    28    27    1
    27    73    70    1
    28    59    60    1
    29    59    56    1
    30    70    69    1
    31    70    71    1
    32    27    26    1
    33    27    30    1
    34    31    30    1
    35    67    66   ar
    36    56    55    1
    37    56    57    1
    38     7     5    1
    39    72    71    2
    40     1     2    1
    41    55    53   am
    42    11    10    2
    43    13    14    1
    44    13    12    1
    45    10     9    1
    46    14    15    1
    47    66    68   ar
    48    66    65    1
    49    57    58    2
    50    53    52    1
    51    53    54    2
    52     6     5    1
    53     5     2    1
    54    15    16    2
    55    17    16    1
    56    52    51    1
    57     2     3    1
    58    16    18    1
    59     9    12    1
    60     9     8    1
    61    63    62    1
    62    63    64    2
    63    62    65    1
    64    62    61    1
    65     4     3    2
