@<TRIPOS>MOLECULE
tmp/4eu7B01.pdb
 83 77 0 0 0
SMALL
GASTEIGER

@<TRIPOS>ATOM
      1  N        -23.3530   23.0790   23.9430 N.3    35  THR35      -0.1218
      2  CA       -22.6200   24.0930   24.7250 C.3    35  THR35       0.1862
      3  C        -23.4630   25.3110   25.1350 C.2    35  THR35       0.2287
      4  O        -23.0360   26.4560   24.9820 O.2    35  THR35      -0.2866
      5  CB       -21.2840   24.5310   24.0450 C.3    35  THR35       0.1770
      6  OG1      -21.5370   25.1520   22.7770 O.3    35  THR35      -0.2211
      7  CG2      -20.3990   23.3420   23.8430 C.3    35  THR35       0.0375
      8  N        -24.6470   19.9530   25.7880 N.3    70  SER70      -0.1217
      9  CA       -25.2520   20.5910   26.9600 C.3    70  SER70       0.1889
     10  C        -26.3650   21.5760   26.5800 C.2    70  SER70       0.2288
     11  O        -26.4010   22.0760   25.4570 O.2    70  SER70      -0.2866
     12  CB       -24.1890   21.3090   27.7920 C.3    70  SER70       0.2089
     13  OG       -23.7530   22.4680   27.1090 O.3    70  SER70      -0.2183
     14  N        -24.6770   14.5830   27.0120 N.3    91  PHE91      -0.1241
     15  CA       -23.7550   15.5100   27.6560 C.3    91  PHE91       0.1605
     16  C        -24.5340   16.5930   28.3660 C.2    91  PHE91       0.2264
     17  O        -25.3570   17.2730   27.7630 O.2    91  PHE91      -0.2867
     18  CB       -22.8190   16.1200   26.6080 C.3    91  PHE91       0.0534
     19  CG       -21.6470   16.8730   27.1810 C.ar   91  PHE91      -0.0203
     20  CD1      -20.4720   16.2070   27.5260 C.ar   91  PHE91      -0.0042
     21  CD2      -21.6980   18.2530   27.3430 C.ar   91  PHE91      -0.0042
     22  CE1      -19.3930   16.9050   28.0290 C.ar   91  PHE91      -0.0003
     23  CE2      -20.6130   18.9550   27.8380 C.ar   91  PHE91      -0.0003
     24  CZ       -19.4570   18.2780   28.1830 C.ar   91  PHE91      -0.0000
     25  N        -24.3400   19.7930   31.5270 N.3    93  THR93      -0.1218
     26  CA       -23.5530   20.6380   32.4080 C.3    93  THR93       0.1862
     27  C        -24.4180   21.3890   33.4250 C.2    93  THR93       0.2287
     28  O        -23.9110   22.2040   34.1830 O.2    93  THR93      -0.2866
     29  CB       -22.6960   21.6590   31.6240 C.3    93  THR93       0.1770
     30  OG1      -23.5470   22.6030   30.9490 O.3    93  THR93      -0.2211
     31  CG2      -21.8060   20.9520   30.6160 C.3    93  THR93       0.0375
     32  N        -27.5600   30.4410   27.3860 N.3   227  ARG227     -0.1231
     33  CA       -26.5830   30.6690   28.4380 C.3   227  ARG227      0.1694
     34  C        -25.3740   31.3520   27.8320 C.2   227  ARG227      0.2592
     35  O        -25.1560   31.2860   26.6230 O.2   227  ARG227     -0.2718
     36  CB       -26.1380   29.3460   29.0450 C.3   227  ARG227      0.0321
     37  CG       -27.2010   28.6500   29.8450 C.3   227  ARG227      0.0489
     38  CD       -26.5880   27.5790   30.7410 C.3   227  ARG227      0.2205
     39  NE       -26.0500   26.4560   29.9760 N.pl3 227  ARG227     -0.0865
     40  CZ       -24.7630   26.1270   29.9240 C.cat 227  ARG227      0.5346
     41  NH1      -23.8610   26.8360   30.5990 N.pl3 227  ARG227      0.1354
     42  NH2      -24.3760   25.0810   29.2030 N.pl3 227  ARG227      0.1354
     43  N        -24.5880   32.0080   28.6720 N.am  228  ASN228     -0.1960
     44  CA       -23.3140   32.5640   28.2450 C.3   228  ASN228      0.1819
     45  C        -22.1660   31.9770   29.0570 C.2   228  ASN228      0.2621
     46  O        -22.3510   31.5670   30.2080 O.2   228  ASN228     -0.2715
     47  CB       -23.3080   34.0840   28.3950 C.3   228  ASN228      0.1195
     48  CG       -24.2120   34.7720   27.3930 C.2   228  ASN228      0.2630
     49  OD1      -25.2360   35.3510   27.7610 O.2   228  ASN228     -0.2716
     50  ND2      -23.8350   34.7200   26.1170 N.am  228  ASN228     -0.0877
     51  N        -20.9850   31.9430   28.4480 N.am  229  ALA229     -0.1964
     52  CA       -19.7620   31.5670   29.1530 C.3   229  ALA229      0.1713
     53  C        -19.3520   32.6810   30.1160 C.2   229  ALA229      0.2458
     54  O        -19.7790   33.8260   29.9590 O.2   229  ALA229     -0.2730
     55  CB       -18.6400   31.2950   28.1520 C.3   229  ALA229      0.0333
     56  N        -18.5150   32.3520   31.1130 N.am  230  PRO230     -0.2727
     57  CA       -17.9400   33.3700   31.9940 C.3   230  PRO230      0.1402
     58  C        -17.1010   34.3500   31.1890 C.2   230  PRO230      0.2269
     59  O        -16.5260   33.9770   30.1670 O.2   230  PRO230     -0.2865
     60  CB       -17.0100   32.5640   32.9060 C.3   230  PRO230      0.0296
     61  CG       -17.4470   31.1520   32.7790 C.3   230  PRO230      0.0237
     62  CD       -17.9840   31.0120   31.3970 C.3   230  PRO230      0.0939
     63  N        -13.3310   24.6450   26.0940 N.3   269  VAL269     -0.1245
     64  CA       -13.6780   25.9050   26.7300 C.3   269  VAL269      0.1561
     65  C        -13.1700   25.8620   28.1660 C.2   269  VAL269      0.2260
     66  O        -13.0550   24.7940   28.7670 O.2   269  VAL269     -0.2867
     67  CB       -15.2020   26.1560   26.7480 C.3   269  VAL269      0.0252
     68  CG1      -15.7500   26.2270   25.3340 C.3   269  VAL269      0.0019
     69  CG2      -15.9110   25.0780   27.5660 C.3   269  VAL269      0.0019
     70  N        -19.8980   29.0500   22.2090 N.3   317  SER317     -0.1217
     71  CA       -19.8550   29.1940   23.6630 C.3   317  SER317      0.1889
     72  C        -19.1900   30.5290   23.9620 C.2   317  SER317      0.2288
     73  O        -17.9630   30.6190   24.0690 O.2   317  SER317     -0.2866
     74  CB       -19.0790   28.0510   24.3080 C.3   317  SER317      0.2089
     75  OG       -19.0080   28.2200   25.7180 O.3   317  SER317     -0.2183
     76  N        -19.1100   16.4750   33.7940 N.3   383  ASN383     -0.1240
     77  CA       -19.8940   16.8150   32.6070 C.3   383  ASN383      0.1653
     78  C        -20.1510   15.6100   31.7050 C.2   383  ASN383      0.2266
     79  O        -21.2930   15.1650   31.5550 O.2   383  ASN383     -0.2867
     80  CB       -19.2250   17.9570   31.8340 C.3   383  ASN383      0.1155
     81  CG       -19.0350   19.1970   32.6930 C.2   383  ASN383      0.2627
     82  OD1      -19.9170   19.5590   33.4660 O.2   383  ASN383     -0.2716
     83  ND2      -17.8710   19.8350   32.5810 N.am  383  ASN383     -0.0877
@<TRIPOS>BOND
     1    70    71    1
     2     6     5    1
     3    71    72    1
     4    71    74    1
     5     7     5    1
     6     1     2    1
     7    72    73    2
     8     5     2    1
     9    74    75    1
    10     2     3    1
    11     4     3    2
    12    68    67    1
    13    11    10    2
    14     8     9    1
    15    63    64    1
    16    50    48   am
    17    10     9    1
    18    18    19    1
    19    18    15    1
    20    35    34    2
    21    64    67    1
    22    64    65    1
    23    67    69    1
    24     9    12    1
    25    14    15    1
    26    13    12    1
    27    19    21   ar
    28    19    20   ar
    29    21    23   ar
    30    32    33    1
    31    48    49    2
    32    48    47    1
    33    20    22   ar
    34    15    16    1
    35    17    16    2
    36    34    33    1
    37    34    43   am
    38    23    24   ar
    39    22    24   ar
    40    55    52    1
    41    65    66    2
    42    44    47    1
    43    44    43    1
    44    44    45    1
    45    33    36    1
    46    51    45   am
    47    51    52    1
    48    36    37    1
    49    45    46    2
    50    52    53    1
    51    42    40    1
    52    37    38    1
    53    40    39    2
    54    40    41    1
    55    54    53    2
    56    39    38    1
    57    53    56   am
    58    59    58    2
    59    31    29    1
    60    30    29    1
    61    56    62    1
    62    56    57    1
    63    58    57    1
    64    62    61    1
    65    25    26    1
    66    79    78    2
    67    29    26    1
    68    78    77    1
    69    80    77    1
    70    80    81    1
    71    57    60    1
    72    26    27    1
    73    83    81   am
    74    77    76    1
    75    81    82    2
    76    61    60    1
    77    27    28    2
