@<TRIPOS>MOLECULE
tmp/4eumB00.pdb
 144 138 0 0 0
SMALL
GASTEIGER

@<TRIPOS>ATOM
      1  N         -7.5420   66.2080   63.1240 N.3   203  SER203     -0.1202
      2  CA        -8.9690   66.0130   63.3790 C.3   203  SER203      0.2020
      3  C         -9.5990   67.3650   63.7010 C.2   203  SER203      0.2619
      4  O         -9.1670   68.0300   64.6410 O.2   203  SER203     -0.2717
      5  CB        -9.1750   65.0600   64.5590 C.3   203  SER203      0.2103
      6  OG        -8.6640   63.7700   64.2860 O.3   203  SER203     -0.2182
      7  N        -10.6160   67.7720   62.9380 N.am  204  PHE204     -0.1961
      8  CA       -11.1590   69.1200   63.0780 C.3   204  PHE204      0.1771
      9  C        -11.6190   69.4610   64.4910 C.2   204  PHE204      0.2619
     10  O        -11.3200   70.5440   64.9880 O.2   204  PHE204     -0.2715
     11  CB       -12.3220   69.3820   62.1160 C.3   204  PHE204      0.0574
     12  CG       -12.9840   70.7110   62.3370 C.ar  204  PHE204     -0.0200
     13  CD1      -12.2570   71.8950   62.2220 C.ar  204  PHE204     -0.0042
     14  CD2      -14.3290   70.7860   62.6770 C.ar  204  PHE204     -0.0042
     15  CE1      -12.8640   73.1220   62.4390 C.ar  204  PHE204     -0.0003
     16  CE2      -14.9380   72.0050   62.8900 C.ar  204  PHE204     -0.0003
     17  CZ       -14.2020   73.1810   62.7780 C.ar  204  PHE204     -0.0000
     18  N        -12.3530   68.5470   65.1200 N.am  205  GLU205     -0.1977
     19  CA       -12.8770   68.7680   66.4750 C.3   205  GLU205      0.1602
     20  C        -11.7950   69.2230   67.4680 C.2   205  GLU205      0.2287
     21  O        -12.0010   70.1810   68.2240 O.2   205  GLU205     -0.2864
     22  CB       -13.5590   67.4980   66.9930 C.3   205  GLU205      0.0415
     23  CG       -15.0280   67.6640   67.3650 C.3   205  GLU205      0.1163
     24  CD       -15.6500   66.3750   67.8920 C.2   205  GLU205      0.3649
     25  OE1      -15.0700   65.2900   67.6560 O.co2 205  GLU205     -0.2457
     26  OE2      -16.7180   66.4480   68.5400 O.co2 205  GLU205     -0.2457
     27  N         -9.7080   64.9780   59.0620 N.3   234  LYS234     -0.1231
     28  CA       -10.7350   64.0840   59.5680 C.3   234  LYS234      0.1693
     29  C        -11.7890   64.9130   60.3090 C.2   234  LYS234      0.2592
     30  O        -11.4900   65.9620   60.8830 O.2   234  LYS234     -0.2718
     31  CB       -10.1080   63.0010   60.4590 C.3   234  LYS234      0.0285
     32  CG        -9.2180   62.0370   59.6590 C.3   234  LYS234      0.0035
     33  CD        -8.3190   61.2100   60.5690 C.3   234  LYS234      0.0206
     34  CE        -7.2520   62.0720   61.1690 C.3   234  LYS234      0.1093
     35  NZ        -6.3130   61.2900   62.0130 N.3   234  LYS234     -0.1314
     36  N        -13.0320   64.4610   60.2730 N.am  235  ASN235     -0.1960
     37  CA       -14.1280   65.3530   60.6230 C.3   235  ASN235      0.1819
     38  C        -15.3090   64.5880   61.2050 C.2   235  ASN235      0.2622
     39  O        -16.4810   64.8860   60.9130 O.2   235  ASN235     -0.2715
     40  CB       -14.5220   66.1570   59.3760 C.3   235  ASN235      0.1195
     41  CG       -15.4000   67.3430   59.6920 C.2   235  ASN235      0.2630
     42  OD1      -15.4790   67.7830   60.8420 O.2   235  ASN235     -0.2716
     43  ND2      -16.0660   67.8760   58.6680 N.am  235  ASN235     -0.0877
     44  N        -15.0020   63.6010   62.0450 N.am  236  GLY236     -0.1940
     45  CA       -16.0550   62.8250   62.6880 C.3   236  GLY236      0.1998
     46  C        -16.8880   62.0940   61.6530 C.2   236  GLY236      0.2480
     47  O        -16.3380   61.4450   60.7710 O.2   236  GLY236     -0.2729
     48  N        -18.2210   62.2200   61.7410 N.am  237  PRO237     -0.2726
     49  CA       -19.1370   61.5890   60.7870 C.3   237  PRO237      0.1402
     50  C        -19.3330   62.4200   59.5240 C.2   237  PRO237      0.2269
     51  O        -20.1300   62.0360   58.6630 O.2   237  PRO237     -0.2865
     52  CB       -20.4580   61.5600   61.5570 C.3   237  PRO237      0.0296
     53  CG       -20.3990   62.7680   62.4300 C.3   237  PRO237      0.0237
     54  CD       -18.9380   62.9170   62.8250 C.3   237  PRO237      0.0939
     55  N        -14.6190   64.3320   54.8280 N.3   240  VAL240     -0.1245
     56  CA       -13.2110   64.6520   55.0370 C.3   240  VAL240      0.1561
     57  C        -12.8440   65.7600   54.0790 C.2   240  VAL240      0.2260
     58  O        -13.0810   65.6400   52.8830 O.2   240  VAL240     -0.2867
     59  CB       -12.3270   63.4320   54.7440 C.3   240  VAL240      0.0252
     60  CG1      -10.8530   63.8200   54.8200 C.3   240  VAL240      0.0019
     61  CG2      -12.6380   62.3110   55.7260 C.3   240  VAL240      0.0019
     62  N        -18.2480   60.7570   53.6620 N.3   253  VAL253     -0.1231
     63  CA       -18.0920   59.6040   54.5410 C.3   253  VAL253      0.1678
     64  C        -19.4790   59.0040   54.7560 C.2   253  VAL253      0.2434
     65  O        -20.3170   59.6090   55.4260 O.2   253  VAL253     -0.2733
     66  CB       -17.4740   59.9770   55.9080 C.3   253  VAL253      0.0265
     67  CG1      -17.2970   58.7320   56.7730 C.3   253  VAL253      0.0020
     68  CG2      -16.1300   60.6800   55.7310 C.3   253  VAL253      0.0020
     69  N        -19.7330   57.8270   54.1570 N.am  254  PRO254     -0.2718
     70  CA       -20.9930   57.0860   54.3130 C.3   254  PRO254      0.1520
     71  C        -21.3800   56.8860   55.7810 C.2   254  PRO254      0.2440
     72  O        -20.5170   56.6270   56.6260 O.2   254  PRO254     -0.2731
     73  CB       -20.6770   55.7330   53.6700 C.3   254  PRO254      0.0310
     74  CG       -19.6560   56.0550   52.6230 C.3   254  PRO254      0.0237
     75  CD       -18.8280   57.1840   53.1840 C.3   254  PRO254      0.0939
     76  N        -22.6780   57.0080   56.0860 N.am  255  PRO255     -0.2716
     77  CA       -23.1250   56.8250   57.4700 C.3   255  PRO255      0.1536
     78  C        -23.0500   55.3560   57.8910 C.2   255  PRO255      0.2598
     79  O        -23.4390   54.4780   57.1170 O.2   255  PRO255     -0.2715
     80  CB       -24.5810   57.2990   57.4260 C.3   255  PRO255      0.0310
     81  CG       -25.0170   57.0340   56.0160 C.3   255  PRO255      0.0237
     82  CD       -23.7970   57.2810   55.1650 C.3   255  PRO255      0.0939
     83  N        -22.5390   55.0940   59.0920 N.am  256  VAL256     -0.1978
     84  CA       -22.4960   53.7310   59.6210 C.3   256  VAL256      0.1596
     85  C        -23.2660   53.5970   60.9420 C.2   256  VAL256      0.2287
     86  O        -23.5010   54.5810   61.6520 O.2   256  VAL256     -0.2864
     87  CB       -21.0430   53.2180   59.8050 C.3   256  VAL256      0.0276
     88  CG1      -20.0640   54.0430   58.9810 C.3   256  VAL256      0.0022
     89  CG2      -20.6440   53.2400   61.2670 C.3   256  VAL256      0.0022
     90  N        -22.2430   52.9560   65.4850 N.3   257  VAL257     -0.1245
     91  CA       -20.9380   53.4730   65.8880 C.3   257  VAL257      0.1561
     92  C        -20.6240   53.0500   67.3270 C.2   257  VAL257      0.2260
     93  O        -20.8730   53.7900   68.2830 O.2   257  VAL257     -0.2867
     94  CB       -20.8640   55.0090   65.7320 C.3   257  VAL257      0.0252
     95  CG1      -19.4590   55.5130   66.0380 C.3   257  VAL257      0.0019
     96  CG2      -21.2780   55.4140   64.3240 C.3   257  VAL257      0.0019
     97  N        -15.4480   54.7910   68.9320 N.3   260  THR260     -0.1218
     98  CA       -14.6310   55.6950   68.1160 C.3   260  THR260      0.1862
     99  C        -13.1410   55.6840   68.4600 C.2   260  THR260      0.2287
    100  O        -12.3600   56.4310   67.8610 O.2   260  THR260     -0.2866
    101  CB       -15.1590   57.1510   68.1080 C.3   260  THR260      0.1770
    102  OG1      -15.4080   57.5910   69.4490 O.3   260  THR260     -0.2211
    103  CG2      -16.4380   57.2510   67.2900 C.3   260  THR260      0.0375
    104  N        -10.5750   54.6970   65.4900 N.3   263  ALA263     -0.1231
    105  CA       -11.0860   55.3290   64.2810 C.3   263  ALA263      0.1694
    106  C         -9.9830   56.0770   63.5510 C.2   263  ALA263      0.2592
    107  O         -9.6850   55.7880   62.3930 O.2   263  ALA263     -0.2718
    108  CB       -12.2120   56.2770   64.6210 C.3   263  ALA263      0.0304
    109  N         -9.3820   57.0500   64.2320 N.am  264  GLY264     -0.1957
    110  CA        -8.3290   57.8500   63.6370 C.3   264  GLY264      0.1869
    111  C         -7.0960   57.0430   63.2590 C.2   264  GLY264      0.2309
    112  O         -6.4900   57.2700   62.2080 O.2   264  GLY264     -0.2863
    113  N         -8.0050   54.9480   60.2490 N.3   267  PHE267     -0.1241
    114  CA        -8.1230   55.8610   59.1060 C.3   267  PHE267      0.1605
    115  C         -6.7360   56.1580   58.5450 C.2   267  PHE267      0.2264
    116  O         -6.5140   56.0990   57.3160 O.2   267  PHE267     -0.2867
    117  CB        -8.8150   57.1680   59.5130 C.3   267  PHE267      0.0534
    118  CG        -8.9480   58.1750   58.3860 C.ar  267  PHE267     -0.0203
    119  CD1       -7.8760   58.9930   58.0190 C.ar  267  PHE267     -0.0042
    120  CD2      -10.1550   58.3100   57.7010 C.ar  267  PHE267     -0.0042
    121  CE1       -8.0010   59.9130   56.9910 C.ar  267  PHE267     -0.0003
    122  CE2      -10.2880   59.2270   56.6750 C.ar  267  PHE267     -0.0003
    123  CZ        -9.2160   60.0310   56.3140 C.ar  267  PHE267     -0.0000
    124  N        -11.5380   56.2110   54.9050 N.3   289  ALA289     -0.1245
    125  CA       -12.8290   56.3380   55.5770 C.3   289  ALA289      0.1562
    126  C        -13.6040   55.0250   55.5690 C.2   289  ALA289      0.2260
    127  O        -14.3490   54.7280   56.5120 O.2   289  ALA289     -0.2867
    128  CB       -13.6590   57.4610   54.9380 C.3   289  ALA289      0.0290
    129  N        -12.0310   52.9320   58.3790 N.3   292  ALA292     -0.1231
    130  CA       -12.4010   53.4800   59.6860 C.3   292  ALA292      0.1694
    131  C        -13.8640   53.1760   60.0180 C.2   292  ALA292      0.2592
    132  O        -14.2080   52.8760   61.1730 O.2   292  ALA292     -0.2718
    133  CB       -12.1510   54.9740   59.7310 C.3   292  ALA292      0.0304
    134  N        -14.7180   53.2690   59.0030 N.am  293  GLY293     -0.1957
    135  CA       -16.1320   52.9790   59.1690 C.3   293  GLY293      0.1869
    136  C        -16.3890   51.5540   59.6210 C.2   293  GLY293      0.2309
    137  O        -17.2580   51.3030   60.4650 O.2   293  GLY293     -0.2863
    138  N        -15.0240   51.2050   63.4720 N.3   296  VAL296     -0.1245
    139  CA       -15.8780   51.7650   64.5210 C.3   296  VAL296      0.1561
    140  C        -17.1510   50.9450   64.7110 C.2   296  VAL296      0.2260
    141  O        -17.9970   51.2750   65.5460 O.2   296  VAL296     -0.2867
    142  CB       -16.2480   53.2350   64.2500 C.3   296  VAL296      0.0252
    143  CG1      -15.0200   54.1110   64.3160 C.3   296  VAL296      0.0019
    144  CG2      -16.9280   53.3790   62.8990 C.3   296  VAL296      0.0019
@<TRIPOS>BOND
     1    74    75    1
     2    74    73    1
     3    58    57    2
     4    75    69    1
     5    62    63    1
     6    73    70    1
     7    57    56    1
     8    69    70    1
     9    69    64   am
    10    70    71    1
    11    63    64    1
    12    63    66    1
    13    59    60    1
    14    59    56    1
    15    59    61    1
    16    64    65    2
    17    55    56    1
    18   124   125    1
    19   128   125    1
    20    82    81    1
    21    82    76    1
    22   126   125    1
    23   126   127    2
    24    68    66    1
    25    71    76   am
    26    71    72    2
    27    66    67    1
    28    81    80    1
    29    76    77    1
    30   123   122   ar
    31   123   121   ar
    32   122   120   ar
    33   121   119   ar
    34    79    78    2
    35   116   115    2
    36    80    77    1
    37    77    78    1
    38   120   118   ar
    39    78    83   am
    40   119   118   ar
    41   129   130    1
    42   118   117    1
    43   115   114    1
    44    51    50    2
    45    43    41   am
    46    88    87    1
    47   134   135    1
    48   134   131   am
    49    27    28    1
    50    83    84    1
    51   114   117    1
    52   114   113    1
    53   135   136    1
    54    40    41    1
    55    40    37    1
    56    50    49    1
    57    28    29    1
    58    28    31    1
    59   136   137    2
    60    84    87    1
    61    84    85    1
    62    32    31    1
    63    32    33    1
    64   130   133    1
    65   130   131    1
    66    41    42    2
    67    87    89    1
    68   131   132    2
    69    36    29   am
    70    36    37    1
    71    29    30    2
    72    33    34    1
    73    37    38    1
    74    47    46    2
    75    49    52    1
    76    49    48    1
    77    39    38    2
    78    85    86    2
    79    34    35    1
    80    38    44   am
    81    52    53    1
    82    46    48   am
    83    46    45    1
    84    48    54    1
    85    44    45    1
    86    11    12    1
    87    11     8    1
    88   112   111    2
    89    13    12   ar
    90    13    15   ar
    91    12    14   ar
    92   107   106    2
    93    53    54    1
    94    15    17   ar
    95    14    16   ar
    96    17    16   ar
    97   144   142    1
    98     7     8    1
    99     7     3   am
   100     8     9    1
   101     1     2    1
   102   111   110    1
   103     2     3    1
   104     2     5    1
   105   138   139    1
   106   106   109   am
   107   106   105    1
   108   110   109    1
   109     3     4    2
   110   142   143    1
   111   142   139    1
   112   105   108    1
   113   105   104    1
   114     6     5    1
   115    96    94    1
   116     9    10    2
   117     9    18   am
   118   139   140    1
   119   140   141    2
   120    18    19    1
   121    90    91    1
   122    94    91    1
   123    94    95    1
   124    91    92    1
   125    19    22    1
   126    19    20    1
   127    22    23    1
   128   103   101    1
   129    92    93    2
   130    23    24    1
   131    20    21    2
   132    25    24   ar
   133   100    99    2
   134    24    26   ar
   135   101    98    1
   136   101   102    1
   137    98    99    1
   138    98    97    1
