@<TRIPOS>MOLECULE
tmp/4eusD00.pdb
 153 151 0 0 0
SMALL
GASTEIGER

@<TRIPOS>ATOM
      1  N        -13.4800   10.2700  -13.9610 N.3    39  PHE39      -0.1241
      2  CA       -12.9800   11.4630  -13.2960 C.3    39  PHE39       0.1605
      3  C        -13.9970   12.0650  -12.3420 C.2    39  PHE39       0.2264
      4  O        -15.1860   12.0970  -12.6430 O.2    39  PHE39      -0.2867
      5  CB       -12.5730   12.5240  -14.3290 C.3    39  PHE39       0.0534
      6  CG       -12.2590   13.8660  -13.7120 C.ar   39  PHE39      -0.0203
      7  CD1      -11.0360   14.0950  -13.1080 C.ar   39  PHE39      -0.0042
      8  CD2      -13.2150   14.8770  -13.6880 C.ar   39  PHE39      -0.0042
      9  CE1      -10.7510   15.3220  -12.5210 C.ar   39  PHE39      -0.0003
     10  CE2      -12.9370   16.1050  -13.0990 C.ar   39  PHE39      -0.0003
     11  CZ       -11.7040   16.3240  -12.5160 C.ar   39  PHE39      -0.0000
     12  N        -16.6660    7.2000  -18.5170 N.3   105  ASP105     -0.1225
     13  CA       -15.7560    8.3520  -18.5230 C.3   105  ASP105      0.1805
     14  C        -14.3140    7.8530  -18.7230 C.2   105  ASP105      0.2597
     15  O        -14.0890    7.0000  -19.5880 O.2   105  ASP105     -0.2718
     16  CB       -15.9620    9.1660  -17.2320 C.3   105  ASP105      0.1424
     17  CG       -15.2480   10.5050  -17.2460 C.2   105  ASP105      0.3668
     18  OD1      -14.1650   10.5990  -16.6480 O.co2 105  ASP105     -0.2456
     19  OD2      -15.7780   11.4590  -17.8490 O.co2 105  ASP105     -0.2456
     20  N        -13.3420    8.3260  -17.9400 N.am  106  ILE106     -0.1980
     21  CA       -11.9460    7.9140  -18.1800 C.3   106  ILE106      0.1595
     22  C        -11.7080    6.4340  -17.8530 C.2   106  ILE106      0.2287
     23  O        -10.6500    5.8900  -18.1540 O.2   106  ILE106     -0.2864
     24  CB       -10.8820    8.8090  -17.4760 C.3   106  ILE106      0.0276
     25  CG1      -10.9710    8.6720  -15.9510 C.3   106  ILE106      0.0022
     26  CG2      -11.0170   10.2570  -17.9240 C.3   106  ILE106      0.0022
     27  CD1       -9.7960    9.3440  -15.2090 C.3   106  ILE106      0.0001
     28  N        -10.8300    5.0620  -21.0860 N.3   109  TRP109     -0.1241
     29  CA        -9.4470    5.2890  -21.4810 C.3   109  TRP109      0.1605
     30  C         -8.5280    4.2520  -20.8490 C.2   109  TRP109      0.2264
     31  O         -7.5630    3.7920  -21.4630 O.2   109  TRP109     -0.2867
     32  CB        -8.9880    6.6670  -21.0110 C.3   109  TRP109      0.0550
     33  CG        -9.7930    7.8100  -21.5160 C.ar  109  TRP109      0.0003
     34  CD1      -10.8980    7.7620  -22.3250 C.ar  109  TRP109      0.0946
     35  CD2       -9.5350    9.2020  -21.2670 C.ar  109  TRP109      0.0152
     36  NE1      -11.3510    9.0410  -22.5780 N.ar  109  TRP109     -0.2442
     37  CE2      -10.5360    9.9380  -21.9380 C.ar  109  TRP109      0.0810
     38  CE3       -8.5720    9.8920  -20.5170 C.ar  109  TRP109      0.0012
     39  CZ2      -10.5890   11.3390  -21.9040 C.ar  109  TRP109      0.0191
     40  CZ3       -8.6200   11.2890  -20.4900 C.ar  109  TRP109      0.0001
     41  CH2       -9.6270   11.9920  -21.1730 C.ar  109  TRP109      0.0015
     42  N        -20.4660    7.1650  -21.9830 N.3   129  GLU129     -0.1231
     43  CA       -20.1370    8.5670  -21.7110 C.3   129  GLU129      0.1699
     44  C        -18.6390    8.9070  -21.6450 C.2   129  GLU129      0.2592
     45  O        -18.1590    9.4030  -20.6350 O.2   129  GLU129     -0.2718
     46  CB       -20.8670    9.0540  -20.4400 C.3   129  GLU129      0.0402
     47  CG       -22.3150    9.5380  -20.6990 C.3   129  GLU129      0.1161
     48  CD       -22.3700   10.7350  -21.6430 C.2   129  GLU129      0.3649
     49  OE1      -21.4830   11.6120  -21.5340 O.co2 129  GLU129     -0.2457
     50  OE2      -23.2880   10.7890  -22.4940 O.co2 129  GLU129     -0.2457
     51  N        -17.9170    8.6080  -22.7290 N.am  130  ALA130     -0.1966
     52  CA       -16.5810    9.1610  -22.9880 C.3   130  ALA130      0.1713
     53  C        -16.0850    8.6840  -24.3300 C.2   130  ALA130      0.2458
     54  O        -16.3890    7.5670  -24.7490 O.2   130  ALA130     -0.2730
     55  CB       -15.5710    8.7420  -21.9250 C.3   130  ALA130      0.0333
     56  N        -15.2860    9.5120  -25.0040 N.am  131  PRO131     -0.2727
     57  CA       -14.6510    9.0070  -26.2180 C.3   131  PRO131      0.1402
     58  C        -13.5310    8.0450  -25.8800 C.2   131  PRO131      0.2269
     59  O        -12.8180    8.2710  -24.9090 O.2   131  PRO131     -0.2865
     60  CB       -14.0610   10.2780  -26.8490 C.3   131  PRO131      0.0296
     61  CG       -13.7690   11.1680  -25.6760 C.3   131  PRO131      0.0237
     62  CD       -14.8770   10.8920  -24.6820 C.3   131  PRO131      0.0939
     63  N        -18.0530   21.3930  -23.8060 N.3   150  LEU150     -0.1231
     64  CA       -18.0390   20.1720  -23.0060 C.3   150  LEU150      0.1693
     65  C        -16.6540   19.7270  -22.5610 C.2   150  LEU150      0.2591
     66  O        -16.5030   19.2030  -21.4570 O.2   150  LEU150     -0.2718
     67  CB       -18.6990   19.0190  -23.7730 C.3   150  LEU150      0.0284
     68  CG       -20.2200   19.0500  -23.9470 C.3   150  LEU150      0.0019
     69  CD1      -20.6550   17.9350  -24.8720 C.3   150  LEU150      0.0001
     70  CD2      -20.9150   18.9310  -22.6010 C.3   150  LEU150      0.0001
     71  N        -15.6400   19.8850  -23.4140 N.am  151  VAL151     -0.1980
     72  CA       -14.3310   19.3350  -23.0600 C.3   151  VAL151      0.1595
     73  C        -13.1550   20.3130  -23.0590 C.2   151  VAL151      0.2287
     74  O        -12.0180   19.8940  -23.2520 O.2   151  VAL151     -0.2864
     75  CB       -13.9600   18.0440  -23.8640 C.3   151  VAL151      0.0276
     76  CG1      -15.0490   16.9770  -23.7180 C.3   151  VAL151      0.0022
     77  CG2      -13.7030   18.3600  -25.3260 C.3   151  VAL151      0.0022
     78  N        -11.9420   21.3240  -20.5100 N.3   153  HIS153     -0.1226
     79  CA       -11.1430   20.8070  -19.4030 C.3   153  HIS153      0.1752
     80  C        -10.0050   19.8810  -19.8480 C.2   153  HIS153      0.2596
     81  O         -9.0350   19.7100  -19.1140 O.2   153  HIS153     -0.2718
     82  CB       -12.0220   20.1070  -18.3580 C.3   153  HIS153      0.0759
     83  CG       -12.6520   18.8470  -18.8510 C.ar  153  HIS153      0.0818
     84  ND1      -13.8100   18.8340  -19.6010 N.ar  153  HIS153     -0.2268
     85  CD2      -12.2870   17.5530  -18.6940 C.ar  153  HIS153      0.1154
     86  CE1      -14.1280   17.5850  -19.8900 C.ar  153  HIS153      0.1986
     87  NE2      -13.2180   16.7890  -19.3560 N.ar  153  HIS153     -0.2212
     88  N        -10.1000   19.2930  -21.0430 N.am  154  PHE154     -0.1976
     89  CA        -8.9800   18.4970  -21.5510 C.3   154  PHE154      0.1639
     90  C         -7.6950   19.3290  -21.5430 C.2   154  PHE154      0.2290
     91  O         -6.6640   18.8630  -21.0690 O.2   154  PHE154     -0.2864
     92  CB        -9.2300   17.9760  -22.9720 C.3   154  PHE154      0.0560
     93  CG       -10.2010   16.8130  -23.0530 C.ar  154  PHE154     -0.0200
     94  CD1      -10.9040   16.3800  -21.9400 C.ar  154  PHE154     -0.0042
     95  CD2      -10.3910   16.1520  -24.2540 C.ar  154  PHE154     -0.0042
     96  CE1      -11.7900   15.3160  -22.0360 C.ar  154  PHE154     -0.0003
     97  CE2      -11.2730   15.0820  -24.3520 C.ar  154  PHE154     -0.0003
     98  CZ       -11.9820   14.6740  -23.2450 C.ar  154  PHE154     -0.0000
     99  N        -18.0670   21.5630  -12.0830 N.3   179  PHE179     -0.1241
    100  CA       -17.7460   20.6120  -13.1360 C.3   179  PHE179      0.1605
    101  C        -18.8490   19.5710  -13.2850 C.2   179  PHE179      0.2264
    102  O        -19.2830   19.2800  -14.3940 O.2   179  PHE179     -0.2867
    103  CB       -16.4030   19.9220  -12.8620 C.3   179  PHE179      0.0534
    104  CG       -15.9760   18.9860  -13.9600 C.ar  179  PHE179     -0.0203
    105  CD1      -16.3150   17.6460  -13.9130 C.ar  179  PHE179     -0.0042
    106  CD2      -15.2370   19.4500  -15.0400 C.ar  179  PHE179     -0.0042
    107  CE1      -15.9310   16.7790  -14.9350 C.ar  179  PHE179     -0.0003
    108  CE2      -14.8560   18.5970  -16.0570 C.ar  179  PHE179     -0.0003
    109  CZ       -15.1990   17.2600  -16.0060 C.ar  179  PHE179     -0.0000
    110  N        -21.9130   19.3640  -16.4970 N.3   183  HIS183     -0.1241
    111  CA       -21.9980   18.2130  -17.3800 C.3   183  HIS183      0.1621
    112  C        -23.2400   17.3700  -17.0800 C.2   183  HIS183      0.2264
    113  O        -23.3560   16.2580  -17.5840 O.2   183  HIS183     -0.2867
    114  CB       -20.7270   17.3630  -17.2770 C.3   183  HIS183      0.0745
    115  CG       -19.5130   18.0380  -17.8330 C.ar  183  HIS183      0.0817
    116  ND1      -18.7540   18.9290  -17.1020 N.ar  183  HIS183     -0.2268
    117  CD2      -18.9490   17.9800  -19.0620 C.ar  183  HIS183      0.1154
    118  CE1      -17.7620   19.3780  -17.8550 C.ar  183  HIS183      0.1986
    119  NE2      -17.8670   18.8290  -19.0530 N.ar  183  HIS183     -0.2212
    120  N         -5.0720   13.0870  -17.8330 N.3   215  TYR215     -0.1241
    121  CA        -5.2390   13.9890  -18.9720 C.3   215  TYR215      0.1605
    122  C         -3.8910   14.3820  -19.5740 C.2   215  TYR215      0.2264
    123  O         -3.7760   14.5900  -20.7850 O.2   215  TYR215     -0.2867
    124  CB        -6.0680   15.2170  -18.5580 C.3   215  TYR215      0.0534
    125  CG        -7.4880   14.8430  -18.1920 C.ar  215  TYR215     -0.0201
    126  CD1       -8.5100   14.9540  -19.1220 C.ar  215  TYR215     -0.0009
    127  CD2       -7.7990   14.3570  -16.9210 C.ar  215  TYR215     -0.0009
    128  CE1       -9.8060   14.5860  -18.8030 C.ar  215  TYR215      0.0417
    129  CE2       -9.0860   13.9900  -16.5950 C.ar  215  TYR215      0.0417
    130  CZ       -10.0830   14.1090  -17.5320 C.ar  215  TYR215      0.1957
    131  OH       -11.3760   13.7500  -17.2040 O.3   215  TYR215     -0.2866
    132  N        -25.0390   18.0490  -21.3390 N.3   246  GLY246     -0.1225
    133  CA       -23.8860   17.4240  -20.7250 C.3   246  GLY246      0.1811
    134  C        -23.5500   16.0620  -21.2970 C.2   246  GLY246      0.2280
    135  O        -22.4560   15.5490  -21.0670 O.2   246  GLY246     -0.2866
    136  N        -23.1500   12.9290  -24.3390 N.3   248  MET248     -0.1245
    137  CA       -22.4160   12.7410  -25.5940 C.3   248  MET248      0.1570
    138  C        -23.3400   12.4160  -26.7630 C.2   248  MET248      0.2261
    139  O        -22.9230   12.5080  -27.9230 O.2   248  MET248     -0.2867
    140  CB       -21.3730   11.6170  -25.4560 C.3   248  MET248      0.0387
    141  CG       -20.2870   11.8430  -24.4060 C.3   248  MET248      0.0595
    142  SD       -18.8990   12.8600  -24.9560 S.3   248  MET248     -0.1393
    143  CE       -18.0840   11.7420  -26.0830 C.3   248  MET248      0.0692
    144  N        -24.1580   13.5660  -18.5030 N.3   273  HIS273     -0.1241
    145  CA       -22.9510   12.7450  -18.4820 C.3   273  HIS273      0.1621
    146  C        -22.9160   11.6850  -17.3770 C.2   273  HIS273      0.2264
    147  O        -22.2990   10.6290  -17.5430 O.2   273  HIS273     -0.2867
    148  CB       -21.7490   13.6790  -18.3000 C.3   273  HIS273      0.0745
    149  CG       -20.4340   12.9760  -18.2140 C.ar  273  HIS273      0.0817
    150  ND1      -19.9000   12.2650  -19.2660 N.ar  273  HIS273     -0.2268
    151  CD2      -19.5280   12.9040  -17.2110 C.ar  273  HIS273      0.1154
    152  CE1      -18.7240   11.7770  -18.9120 C.ar  273  HIS273      0.1986
    153  NE2      -18.4740   12.1500  -17.6710 N.ar  273  HIS273     -0.2212
@<TRIPOS>BOND
     1   139   138    2
     2    60    57    1
     3    60    61    1
     4   138   137    1
     5    57    58    1
     6    57    56    1
     7   143   142    1
     8    58    59    2
     9    61    62    1
    10   137   140    1
    11   137   136    1
    12   140   141    1
    13    77    75    1
    14    56    62    1
    15    56    53   am
    16   142   141    1
    17    69    68    1
    18    54    53    2
    19    97    95   ar
    20    97    98   ar
    21    53    52    1
    22    95    93   ar
    23    68    67    1
    24    68    70    1
    25    75    76    1
    26    75    72    1
    27    63    64    1
    28    67    64    1
    29    71    72    1
    30    71    65   am
    31    74    73    2
    32    98    96   ar
    33    72    73    1
    34    93    92    1
    35    93    94   ar
    36    64    65    1
    37    52    51    1
    38    52    55    1
    39    92    89    1
    40    51    44   am
    41    36    34   ar
    42    36    37   ar
    43    65    66    2
    44    50    48   ar
    45    34    33   ar
    46    96    94   ar
    47    42    43    1
    48    37    39   ar
    49    37    35   ar
    50    39    41   ar
    51    43    44    1
    52    43    46    1
    53    44    45    2
    54    48    49   ar
    55    48    47    1
    56    89    90    1
    57    89    88    1
    58    90    91    2
    59    33    35   ar
    60    33    32    1
    61    29    28    1
    62    29    32    1
    63    29    30    1
    64    31    30    2
    65   132   133    1
    66   134   135    2
    67   134   133    1
    68    35    38   ar
    69    41    40   ar
    70    88    80   am
    71   123   122    2
    72    47    46    1
    73    38    40   ar
    74    78    79    1
    75    86    84   ar
    76    86    87   ar
    77    80    79    1
    78    80    81    2
    79    84    83   ar
    80    15    14    2
    81   122   121    1
    82    79    82    1
    83    87    85   ar
    84   150   152   ar
    85   150   149   ar
    86   126   128   ar
    87   126   125   ar
    88   117   119   ar
    89   117   115   ar
    90   119   118   ar
    91   121   124    1
    92   121   120    1
    93   152   153   ar
    94    83    85   ar
    95    83    82    1
    96   128   130   ar
    97    14    13    1
    98    14    20   am
    99   124   125    1
   100    13    12    1
   101    13    16    1
   102   144   145    1
   103   145   148    1
   104   145   146    1
   105   148   149    1
   106   149   151   ar
   107   125   127   ar
   108    21    20    1
   109    21    22    1
   110    21    24    1
   111    23    22    2
   112    26    24    1
   113   118   116   ar
   114    19    17   ar
   115   115   114    1
   116   115   116   ar
   117   153   151   ar
   118   113   112    2
   119   147   146    2
   120   130   131    1
   121   130   129   ar
   122    24    25    1
   123   111   114    1
   124   111   112    1
   125   111   110    1
   126    17    16    1
   127    17    18   ar
   128   127   129   ar
   129   108   109   ar
   130   108   106   ar
   131   109   107   ar
   132    25    27    1
   133   106   104   ar
   134   107   105   ar
   135   102   101    2
   136     5     6    1
   137     5     2    1
   138     1     2    1
   139   104   105   ar
   140   104   103    1
   141     6     8   ar
   142     6     7   ar
   143     8    10   ar
   144     2     3    1
   145   101   100    1
   146   100   103    1
   147   100    99    1
   148     7     9   ar
   149    10    11   ar
   150     4     3    2
   151     9    11   ar
