@<TRIPOS>MOLECULE
tmp/4euzA00.pdb
 135 126 0 0 0
SMALL
GASTEIGER

@<TRIPOS>ATOM
      1  N        -16.8780   -2.0440   16.4890 N.3    47  CYS47      -0.1221
      2  CA       -17.0430   -2.0220   17.9480 C.3    47  CYS47       0.1808
      3  C        -15.7500   -2.5660   18.5650 C.2    47  CYS47       0.2601
      4  O        -14.6590   -2.3840   18.0070 O.2    47  CYS47      -0.2717
      5  CB       -18.3490   -2.7440   18.3830 C.3    47  CYS47       0.0970
      6  SG       -19.7720   -2.4400   17.3770 S.3    47  CYS47      -0.0800
      7  N        -15.8560   -3.3140   19.6490 N.am   48  ALA48      -0.1979
      8  CA       -14.6670   -3.8460   20.3210 C.3    48  ALA48       0.1597
      9  C        -13.9200   -4.9220   19.5180 C.2    48  ALA48       0.2287
     10  O        -12.8570   -5.3600   19.9630 O.2    48  ALA48      -0.2864
     11  CB       -15.0160   -4.4620   21.6410 C.3    48  ALA48       0.0319
     12  N        -10.1000   -5.3100   18.9760 N.3    51  LYS51      -0.1245
     13  CA        -9.1360   -5.5700   20.0360 C.3    51  LYS51       0.1561
     14  C         -8.4100   -6.8890   19.8570 C.2    51  LYS51       0.2260
     15  O         -7.2870   -7.0450   20.3470 O.2    51  LYS51      -0.2867
     16  CB        -9.8130   -5.4890   21.3980 C.3    51  LYS51       0.0271
     17  CG       -10.3080   -4.1050   21.7910 C.3    51  LYS51       0.0035
     18  CD       -11.3270   -4.1160   22.9090 C.3    51  LYS51       0.0206
     19  CE       -11.7550   -2.7270   23.3220 C.3    51  LYS51       0.1093
     20  NZ       -13.1540   -2.6430   23.8630 N.3    51  LYS51      -0.1314
     21  N        -15.8030    0.5560   31.1150 N.3    82  HIS82      -0.1241
     22  CA       -15.5520   -0.8450   30.7890 C.3    82  HIS82       0.1621
     23  C        -14.0400   -1.0980   30.7350 C.2    82  HIS82       0.2264
     24  O        -13.4590   -1.4610   29.7030 O.2    82  HIS82      -0.2867
     25  CB       -16.2720   -1.3140   29.5040 C.3    82  HIS82       0.0745
     26  CG       -16.2280   -2.8220   29.5390 C.ar   82  HIS82       0.0817
     27  ND1      -16.9860   -3.5400   30.4590 N.ar   82  HIS82      -0.2268
     28  CD2      -15.4660   -3.6760   28.8440 C.ar   82  HIS82       0.1154
     29  CE1      -16.6980   -4.8220   30.2700 C.ar   82  HIS82       0.1986
     30  NE2      -15.7830   -4.9320   29.3150 N.ar   82  HIS82      -0.2212
     31  N        -12.5060   -7.2730   26.7920 N.3   107  SER107     -0.1217
     32  CA       -12.8660   -6.0900   26.0200 C.3   107  SER107      0.1889
     33  C        -12.4500   -4.8020   26.7450 C.2   107  SER107      0.2288
     34  O        -13.0310   -3.7410   26.5470 O.2   107  SER107     -0.2866
     35  CB       -14.3460   -6.0670   25.6660 C.3   107  SER107      0.2089
     36  OG       -14.4600   -5.4530   24.4150 O.3   107  SER107     -0.2183
     37  N        -11.2680   -1.4320   27.8430 N.3   109  ASN109     -0.1240
     38  CA       -11.0020   -0.1890   27.1010 C.3   109  ASN109      0.1653
     39  C         -9.7820    0.5430   27.5830 C.2   109  ASN109      0.2266
     40  O         -9.0710    1.1100   26.7550 O.2   109  ASN109     -0.2867
     41  CB       -12.2480    0.6970   27.1400 C.3   109  ASN109      0.1155
     42  CG       -13.3210    0.1630   26.2280 C.2   109  ASN109      0.2627
     43  OD1      -12.9800   -0.3190   25.1230 O.2   109  ASN109     -0.2716
     44  ND2      -14.5610    0.2420   26.6020 N.am  109  ASN109     -0.0877
     45  N        -11.0450    4.4360   21.8470 N.3   144  GLU144     -0.1231
     46  CA       -12.1650    4.0500   22.7060 C.3   144  GLU144      0.1699
     47  C        -12.5940    5.2670   23.5090 C.2   144  GLU144      0.2592
     48  O        -11.7180    6.0080   23.9990 O.2   144  GLU144     -0.2718
     49  CB       -11.8040    2.8940   23.6340 C.3   144  GLU144      0.0402
     50  CG       -11.6590    1.5770   22.9170 C.3   144  GLU144      0.1161
     51  CD       -12.9860    0.9990   22.4810 C.2   144  GLU144      0.3649
     52  OE1      -14.0610    1.6700   22.6320 O.co2 144  GLU144     -0.2457
     53  OE2      -12.9950   -0.1440   21.9360 O.co2 144  GLU144     -0.2457
     54  N        -13.8990    5.5290   23.7260 N.am  145  LEU145     -0.1980
     55  CA       -15.0530    4.7780   23.2680 C.3   145  LEU145      0.1596
     56  C        -15.6980    5.4030   22.0470 C.2   145  LEU145      0.2287
     57  O        -16.7540    4.9050   21.5860 O.2   145  LEU145     -0.2864
     58  CB       -16.0840    4.6500   24.3850 C.3   145  LEU145      0.0297
     59  CG       -15.7920    3.5730   25.4690 C.3   145  LEU145      0.0022
     60  CD1      -14.6280    3.9160   26.3430 C.3   145  LEU145      0.0001
     61  CD2      -17.0500    3.4020   26.3420 C.3   145  LEU145      0.0001
     62  N        -17.2440    3.5250   18.9240 N.3   148  ASN148     -0.1240
     63  CA       -18.4270    2.6860   19.0060 C.3   148  ASN148      0.1653
     64  C        -19.7210    3.3630   18.5340 C.2   148  ASN148      0.2266
     65  O        -20.7890    2.7970   18.7180 O.2   148  ASN148     -0.2867
     66  CB       -18.6570    2.1510   20.4270 C.3   148  ASN148      0.1155
     67  CG       -17.4810    1.2860   20.8980 C.2   148  ASN148      0.2627
     68  OD1      -17.3290    0.1470   20.4610 O.2   148  ASN148     -0.2716
     69  ND2      -16.6650    1.8440   21.7610 N.am  148  ASN148     -0.0877
     70  N        -13.8450  -14.2230   27.3610 N.3   193  THR193     -0.1203
     71  CA       -14.9100  -14.4090   28.3230 C.3   193  THR193      0.1994
     72  C        -16.2390  -13.7910   27.9370 C.2   193  THR193      0.2618
     73  O        -17.2330  -13.9830   28.6540 O.2   193  THR193     -0.2717
     74  CB       -14.5280  -13.8440   29.7180 C.3   193  THR193      0.1784
     75  OG1      -14.5660  -12.4130   29.6810 O.3   193  THR193     -0.2211
     76  CG2      -13.1710  -14.3590   30.1400 C.3   193  THR193      0.0376
     77  N        -16.3150  -13.0710   26.8150 N.am  194  THR194     -0.1952
     78  CA       -17.4970  -12.2840   26.4830 C.3   194  THR194      0.1897
     79  C        -18.3840  -12.9000   25.4010 C.2   194  THR194      0.2313
     80  O        -19.3710  -12.2870   24.9780 O.2   194  THR194     -0.2863
     81  CB       -17.0840  -10.8820   25.9920 C.3   194  THR194      0.1794
     82  OG1      -16.3480  -11.0610   24.7760 O.3   194  THR194     -0.2208
     83  CG2      -16.2250  -10.1160   26.9910 C.3   194  THR194      0.0378
     84  N        -19.9060  -16.1530   25.1800 N.3   196  GLY196     -0.1225
     85  CA       -20.6580  -17.3760   25.4210 C.3   196  GLY196      0.1811
     86  C        -21.9900  -17.4560   24.7460 C.2   196  GLY196      0.2280
     87  O        -22.4910  -18.5750   24.5130 O.2   196  GLY196     -0.2866
     88  N        -22.7760  -16.1520   21.7100 N.3   198  ARG198     -0.1245
     89  CA       -22.6320  -15.8210   20.2750 C.3   198  ARG198      0.1563
     90  C        -22.1430  -17.0230   19.5200 C.2   198  ARG198      0.2260
     91  O        -22.8110  -18.0760   19.5340 O.2   198  ARG198     -0.2867
     92  CB       -21.8810  -14.5050   20.1090 C.3   198  ARG198      0.0307
     93  CG       -22.6750  -13.3540   20.6620 C.3   198  ARG198      0.0489
     94  CD       -22.0140  -12.0100   20.4350 C.3   198  ARG198      0.2205
     95  NE       -22.7640  -10.9740   21.1220 N.pl3 198  ARG198     -0.0865
     96  CZ       -22.3630   -9.7250   21.2630 C.cat 198  ARG198      0.5346
     97  NH1      -21.2990   -9.2610   20.6360 N.pl3 198  ARG198      0.1354
     98  NH2      -23.0740   -8.9260   22.0340 N.pl3 198  ARG198      0.1354
     99  N        -13.5580  -13.1350   19.4400 N.3   212  LYS212     -0.1231
    100  CA       -13.6340  -11.7940   19.9780 C.3   212  LYS212      0.1693
    101  C        -14.9730  -11.1680   19.5410 C.2   212  LYS212      0.2593
    102  O        -15.2960  -11.1760   18.3610 O.2   212  LYS212     -0.2718
    103  CB       -12.4890  -10.9020   19.5110 C.3   212  LYS212      0.0285
    104  CG       -12.6070   -9.4500   20.0250 C.3   212  LYS212      0.0035
    105  CD       -12.2050   -9.3010   21.4860 C.3   212  LYS212      0.0206
    106  CE       -12.6070   -7.9790   22.1250 C.3   212  LYS212      0.1093
    107  NZ       -14.0000   -7.9030   22.5760 N.3   212  LYS212     -0.1314
    108  N        -15.6660  -10.6150   20.5080 N.am  213  THR213     -0.1939
    109  CA       -16.9440   -9.9350   20.3000 C.3   213  THR213      0.2028
    110  C        -16.7780   -8.4470   20.1040 C.2   213  THR213      0.2643
    111  O        -15.7370   -7.8360   20.4060 O.2   213  THR213     -0.2714
    112  CB       -17.8460  -10.1870   21.5110 C.3   213  THR213      0.1808
    113  OG1      -17.1620   -9.6970   22.6750 O.3   213  THR213     -0.2208
    114  CG2      -18.1810  -11.6220   21.7130 C.3   213  THR213      0.0379
    115  N        -17.8930   -7.8420   19.6720 N.am  214  GLY214     -0.1939
    116  CA       -18.0410   -6.3800   19.6710 C.3   214  GLY214      0.2014
    117  C        -19.5200   -6.0740   19.9610 C.2   214  GLY214      0.2640
    118  O        -20.4090   -6.7330   19.4370 O.2   214  GLY214     -0.2714
    119  N        -19.7510   -5.0530   20.7900 N.am  215  THR215     -0.1936
    120  CA       -21.1180   -4.6820   21.1810 C.3   215  THR215      0.2028
    121  C        -21.1760   -3.1650   21.3100 C.2   215  THR215      0.2642
    122  O        -20.9060   -2.6300   22.3930 O.2   215  THR215     -0.2714
    123  CB       -21.5230   -5.3740   22.4960 C.3   215  THR215      0.1808
    124  OG1      -21.2330   -6.7740   22.4000 O.3   215  THR215     -0.2208
    125  CG2      -23.0010   -5.1680   22.7810 C.3   215  THR215      0.0379
    126  N        -21.4910   -2.4630   20.2470 N.am  216  CYS216     -0.1953
    127  CA       -21.4520   -0.9980   20.2500 C.3   216  CYS216      0.1843
    128  C        -22.4190   -0.3220   21.2110 C.2   216  CYS216      0.2626
    129  O        -22.1920    0.7930   21.6740 O.2   216  CYS216     -0.2714
    130  CB       -21.6380   -0.4390   18.8320 C.3   216  CYS216      0.0997
    131  SG       -20.2150   -0.4290   17.7320 S.3   216  CYS216     -0.0797
    132  N        -23.5250   -0.9340   21.5130 N.am  217  GLY217     -0.1954
    133  CA       -24.5090   -0.4160   22.4510 C.3   217  GLY217      0.1869
    134  C        -25.5380    0.4880   21.8670 C.2   217  GLY217      0.2309
    135  O        -26.3440    1.0910   22.6130 O.2   217  GLY217     -0.2863
@<TRIPOS>BOND
     1     1     2    1
     2     6   131    1
     3     6     5    1
     4   131   130    1
     5     2     5    1
     6     2     3    1
     7     4     3    2
     8   102   101    2
     9    64    65    2
    10    64    63    1
    11     3     7   am
    12   130   127    1
    13    62    63    1
    14    12    13    1
    15    63    66    1
    16   118   117    2
    17    99   100    1
    18   103   100    1
    19   103   104    1
    20     9    10    2
    21     9     8    1
    22    90    91    2
    23    90    89    1
    24   101   100    1
    25   101   108   am
    26     7     8    1
    27   116   115    1
    28   116   117    1
    29   115   110   am
    30    14    13    1
    31    14    15    2
    32   117   119   am
    33   104   105    1
    34    13    16    1
    35   110   109    1
    36   110   111    2
    37    92    89    1
    38    92    93    1
    39   126   127    1
    40   126   121   am
    41   127   128    1
    42    89    88    1
    43   109   108    1
    44   109   112    1
    45     8    11    1
    46    66    67    1
    47    94    93    1
    48    94    95    1
    49    68    67    2
    50    97    96    1
    51   119   120    1
    52    67    69   am
    53    95    96    2
    54   120   121    1
    55   120   123    1
    56   128   132   am
    57   128   129    2
    58    96    98    1
    59   121   122    2
    60    16    17    1
    61   105   106    1
    62   112   114    1
    63   112   113    1
    64   132   133    1
    65    57    56    2
    66    17    18    1
    67    45    46    1
    68   134   133    1
    69   134   135    2
    70    53    51   ar
    71    56    55    1
    72   106   107    1
    73   124   123    1
    74    51    52   ar
    75    51    50    1
    76   123   125    1
    77    46    47    1
    78    46    49    1
    79    18    19    1
    80    50    49    1
    81    55    54    1
    82    55    58    1
    83    19    20    1
    84    47    54   am
    85    47    48    2
    86    58    59    1
    87    36    35    1
    88    87    86    2
    89    86    85    1
    90    82    81    1
    91    80    79    2
    92    43    42    2
    93    84    85    1
    94    79    78    1
    95    59    61    1
    96    59    60    1
    97    35    32    1
    98    81    78    1
    99    81    83    1
   100    32    33    1
   101    32    31    1
   102    42    44   am
   103    42    41    1
   104    78    77    1
   105    34    33    2
   106    40    39    2
   107    77    72   am
   108    38    41    1
   109    38    39    1
   110    38    37    1
   111    70    71    1
   112    72    71    1
   113    72    73    2
   114    71    74    1
   115    28    30   ar
   116    28    26   ar
   117    30    29   ar
   118    25    26    1
   119    25    22    1
   120    26    27   ar
   121    75    74    1
   122    24    23    2
   123    74    76    1
   124    29    27   ar
   125    23    22    1
   126    22    21    1
