@<TRIPOS>MOLECULE
tmp/4ev0B00.pdb
 137 131 0 0 0
SMALL
GASTEIGER

@<TRIPOS>ATOM
      1  N         34.0080   64.4220   69.4870 N.3    32  PHE32      -0.1241
      2  CA        32.6880   64.3990   68.8460 C.3    32  PHE32       0.1605
      3  C         31.9440   63.1170   69.2290 C.2    32  PHE32       0.2264
      4  O         32.5210   62.2050   69.8360 O.2    32  PHE32      -0.2867
      5  CB        32.7750   64.5520   67.3210 C.3    32  PHE32       0.0534
      6  CG        33.6490   63.5200   66.6480 C.ar   32  PHE32      -0.0203
      7  CD1       33.2200   62.2050   66.5020 C.ar   32  PHE32      -0.0042
      8  CD2       34.8950   63.8680   66.1470 C.ar   32  PHE32      -0.0042
      9  CE1       34.0190   61.2630   65.8910 C.ar   32  PHE32      -0.0003
     10  CE2       35.7070   62.9120   65.5240 C.ar   32  PHE32      -0.0003
     11  CZ        35.2660   61.6210   65.3960 C.ar   32  PHE32      -0.0000
     12  N         38.0550   55.8080   70.7640 N.3    51  LEU51      -0.1245
     13  CA        36.8880   55.6750   69.9010 C.3    51  LEU51       0.1561
     14  C         35.9810   54.5420   70.3790 C.2    51  LEU51       0.2260
     15  O         36.4600   53.4830   70.7890 O.2    51  LEU51      -0.2867
     16  CB        37.3290   55.3490   68.4790 C.3    51  LEU51       0.0270
     17  CG        38.3440   56.2900   67.8420 C.3    51  LEU51       0.0019
     18  CD1       38.8920   55.6820   66.5600 C.3    51  LEU51       0.0001
     19  CD2       37.7130   57.6510   67.5700 C.3    51  LEU51       0.0001
     20  N         31.5920   52.9100   69.9080 N.3    53  ARG53      -0.1245
     21  CA        30.2370   52.9650   69.3960 C.3    53  ARG53       0.1563
     22  C         29.2990   52.6460   70.5410 C.2    53  ARG53       0.2260
     23  O         29.6830   51.9700   71.5020 O.2    53  ARG53      -0.2867
     24  CB        30.0400   51.9390   68.2630 C.3    53  ARG53       0.0307
     25  CG        30.4920   52.4430   66.8690 C.3    53  ARG53       0.0489
     26  CD        30.3920   51.3740   65.7660 C.3    53  ARG53       0.2205
     27  NE        29.0230   51.0080   65.4180 N.pl3  53  ARG53      -0.0865
     28  CZ        28.3060   51.5770   64.4500 C.cat  53  ARG53       0.5346
     29  NH1       28.8170   52.5730   63.7270 N.pl3  53  ARG53       0.1354
     30  NH2       27.0680   51.1560   64.2010 N.pl3  53  ARG53       0.1354
     31  N         36.4710   50.7770   70.1560 N.3    63  LEU63      -0.1231
     32  CA        37.0410   50.3400   68.8840 C.3    63  LEU63       0.1693
     33  C         38.5430   50.6010   68.7810 C.2    63  LEU63       0.2591
     34  O         39.2440   49.8740   68.0820 O.2    63  LEU63      -0.2718
     35  CB        36.3730   51.0270   67.7040 C.3    63  LEU63       0.0284
     36  CG        34.8780   51.3060   67.5590 C.3    63  LEU63       0.0019
     37  CD1       34.6650   52.0350   66.2000 C.3    63  LEU63       0.0001
     38  CD2       34.0410   50.0380   67.6560 C.3    63  LEU63       0.0001
     39  N         39.0370   51.6430   69.4510 N.am   64  ALA64      -0.1980
     40  CA        40.4540   51.9860   69.3460 C.3    64  ALA64       0.1597
     41  C         40.9330   52.9400   70.4190 C.2    64  ALA64       0.2287
     42  O         40.1920   53.8030   70.8680 O.2    64  ALA64      -0.2864
     43  CB        40.7650   52.5850   67.9550 C.3    64  ALA64       0.0319
     44  N         41.9500   59.6710   62.9330 N.3    72  PHE72      -0.1227
     45  CA        40.5280   59.3170   63.0590 C.3    72  PHE72       0.1736
     46  C         39.5880   60.3800   62.4850 C.2    72  PHE72       0.2596
     47  O         39.9800   61.5320   62.3120 O.2    72  PHE72      -0.2718
     48  CB        40.1490   59.0240   64.5120 C.3    72  PHE72       0.0547
     49  CG        40.3080   60.2040   65.4410 C.ar   72  PHE72      -0.0202
     50  CD1       41.5600   60.5490   65.9450 C.ar   72  PHE72      -0.0042
     51  CD2       39.2040   60.9670   65.8150 C.ar   72  PHE72      -0.0042
     52  CE1       41.7100   61.6330   66.8120 C.ar   72  PHE72      -0.0003
     53  CE2       39.3440   62.0510   66.6750 C.ar   72  PHE72      -0.0003
     54  CZ        40.5990   62.3780   67.1800 C.ar   72  PHE72      -0.0000
     55  N         38.3470   59.9800   62.2100 N.am   73  GLY73      -0.1942
     56  CA        37.3190   60.8850   61.7290 C.3    73  GLY73       0.2014
     57  C         37.3430   61.1070   60.2240 C.2    73  GLY73       0.2639
     58  O         36.8150   62.1070   59.7100 O.2    73  GLY73      -0.2714
     59  N         37.9490   60.1680   59.5050 N.am   74  GLU74      -0.1963
     60  CA        38.1190   60.3140   58.0600 C.3    74  GLU74       0.1733
     61  C         36.8590   59.9430   57.2660 C.2    74  GLU74       0.2616
     62  O         36.7080   60.3290   56.1150 O.2    74  GLU74      -0.2715
     63  CB        39.3390   59.5180   57.5780 C.3    74  GLU74       0.0429
     64  CG        39.1510   57.9980   57.5430 C.3    74  GLU74       0.1163
     65  CD        39.0360   57.3390   58.9300 C.2    74  GLU74       0.3649
     66  OE1       39.5340   57.8980   59.9400 O.co2  74  GLU74      -0.2457
     67  OE2       38.4420   56.2390   59.0070 O.co2  74  GLU74      -0.2457
     68  N         35.9420   59.2140   57.8840 N.am   75  MET75      -0.1963
     69  CA        34.7630   58.7500   57.1640 C.3    75  MET75       0.1736
     70  C         33.7680   59.8830   56.8810 C.2    75  MET75       0.2617
     71  O         33.3320   60.0510   55.7450 O.2    75  MET75      -0.2715
     72  CB        34.1240   57.5540   57.8780 C.3    75  MET75       0.0427
     73  CG        35.0470   56.3250   57.8960 C.3    75  MET75       0.0599
     74  SD        34.7530   55.0410   59.1710 S.3    75  MET75      -0.1393
     75  CE        33.0600   54.5710   58.8740 C.3    75  MET75       0.0692
     76  N         33.4290   60.6690   57.9010 N.am   76  SER76      -0.1950
     77  CA        32.5360   61.8060   57.7060 C.3    76  SER76       0.1924
     78  C         33.1940   62.8310   56.7890 C.2    76  SER76       0.2314
     79  O         32.5260   63.4720   55.9790 O.2    76  SER76      -0.2863
     80  CB        32.1530   62.4370   59.0410 C.3    76  SER76       0.2116
     81  OG        31.4390   61.5090   59.8460 O.3    76  SER76      -0.2180
     82  N         27.1230   60.8550   58.9460 N.3    82  GLU82      -0.1231
     83  CA        27.3430   61.1020   60.3660 C.3    82  GLU82       0.1699
     84  C         28.5720   60.3490   60.8550 C.2    82  GLU82       0.2592
     85  O         29.0370   59.4010   60.2040 O.2    82  GLU82      -0.2718
     86  CB        26.1170   60.7150   61.1820 C.3    82  GLU82       0.0402
     87  CG        24.8790   61.4890   60.8120 C.3    82  GLU82       0.1161
     88  CD        23.6460   60.9720   61.5160 C.2    82  GLU82       0.3649
     89  OE1       23.6280   59.7730   61.8820 O.co2  82  GLU82      -0.2457
     90  OE2       22.6980   61.7710   61.7060 O.co2  82  GLU82      -0.2457
     91  N         29.1080   60.7890   61.9880 N.am   83  ARG83      -0.1966
     92  CA        30.2100   60.0930   62.6220 C.3    83  ARG83       0.1729
     93  C         29.7730   58.6600   62.9120 C.2    83  ARG83       0.2617
     94  O         28.7050   58.4330   63.4840 O.2    83  ARG83      -0.2715
     95  CB        30.5830   60.7820   63.9260 C.3    83  ARG83       0.0348
     96  CG        31.0800   62.1910   63.7570 C.3    83  ARG83       0.0492
     97  CD        32.3580   62.1930   62.9600 C.3    83  ARG83       0.2205
     98  NE        32.9860   63.5100   62.9870 N.pl3  83  ARG83      -0.0865
     99  CZ        34.0560   63.8300   62.2650 C.cat  83  ARG83       0.5346
    100  NH1       34.6020   62.9070   61.4630 N.pl3  83  ARG83       0.1354
    101  NH2       34.5790   65.0570   62.3480 N.pl3  83  ARG83       0.1354
    102  N         30.5910   57.7010   62.5120 N.am   84  SER84      -0.1936
    103  CA        30.2780   56.3060   62.7740 C.3    84  SER84       0.2055
    104  C         30.6540   55.8750   64.2000 C.2    84  SER84       0.2642
    105  O         30.3300   54.7700   64.6130 O.2    84  SER84      -0.2714
    106  CB        30.9760   55.4160   61.7500 C.3    84  SER84       0.2130
    107  OG        32.3770   55.6100   61.7990 O.3    84  SER84      -0.2179
    108  N         31.3370   56.7470   64.9390 N.am   85  ALA85      -0.1977
    109  CA        31.7350   56.4520   66.3160 C.3    85  ALA85       0.1597
    110  C         31.9320   57.7370   67.1290 C.2    85  ALA85       0.2287
    111  O         32.1150   58.8250   66.5610 O.2    85  ALA85      -0.2864
    112  CB        33.0050   55.6170   66.3280 C.3    85  ALA85       0.0319
    113  N         41.9030   48.5960   58.0570 N.3   124  ARG124     -0.1245
    114  CA        40.8670   48.4940   59.0800 C.3   124  ARG124      0.1563
    115  C         39.8020   47.4690   58.7220 C.2   124  ARG124      0.2260
    116  O         39.2690   46.7880   59.5920 O.2   124  ARG124     -0.2867
    117  CB        40.2170   49.8590   59.3260 C.3   124  ARG124      0.0307
    118  CG        40.9410   50.7160   60.3590 C.3   124  ARG124      0.0489
    119  CD        40.6070   52.1980   60.1830 C.3   124  ARG124      0.2205
    120  NE        41.3890   53.0500   61.0810 N.pl3 124  ARG124     -0.0865
    121  CZ        41.2700   54.3710   61.1540 C.cat 124  ARG124      0.5346
    122  NH1       40.3960   54.9940   60.3760 N.pl3 124  ARG124      0.1354
    123  NH2       42.0190   55.0690   62.0040 N.pl3 124  ARG124      0.1354
    124  N         41.1990   44.0270   59.5550 N.3   127  GLU127     -0.1231
    125  CA        41.0800   43.8020   60.9910 C.3   127  GLU127      0.1699
    126  C         39.6390   43.4570   61.3760 C.2   127  GLU127      0.2592
    127  O         39.3930   42.6390   62.2650 O.2   127  GLU127     -0.2718
    128  CB        41.5940   45.0290   61.7490 C.3   127  GLU127      0.0402
    129  CG        43.0890   45.2350   61.5540 C.3   127  GLU127      0.1161
    130  CD        43.5790   46.6160   61.9630 C.2   127  GLU127      0.3649
    131  OE1       42.7470   47.4750   62.3400 O.co2 127  GLU127     -0.2457
    132  OE2       44.8090   46.8460   61.8920 O.co2 127  GLU127     -0.2457
    133  N         38.6930   44.0710   60.6770 N.am  128  ALA128     -0.1980
    134  CA        37.2780   43.7680   60.8730 C.3   128  ALA128      0.1597
    135  C         36.8630   42.3660   60.4020 C.2   128  ALA128      0.2287
    136  O         36.0420   41.7320   61.0520 O.2   128  ALA128     -0.2864
    137  CB        36.4100   44.8280   60.2230 C.3   128  ALA128      0.0319
@<TRIPOS>BOND
     1    71    70    2
     2    79    78    2
     3    62    61    2
     4    78    77    1
     5    70    69    1
     6    70    76   am
     7    69    72    1
     8    69    68    1
     9    61    68   am
    10    61    60    1
    11    64    63    1
    12    64    65    1
    13    63    60    1
    14    77    76    1
    15    77    80    1
    16    72    73    1
    17    73    74    1
    18   113   114    1
    19    60    59    1
    20   115   114    1
    21   115   116    2
    22    75    74    1
    23    65    67   ar
    24    65    66   ar
    25    82    83    1
    26    80    81    1
    27   114   117    1
    28   117   118    1
    29    59    57   am
    30   124   125    1
    31    58    57    2
    32   119   118    1
    33   119   120    1
    34    85    84    2
    35   137   134    1
    36    57    56    1
    37    83    84    1
    38    83    86    1
    39   122   121    1
    40   135   134    1
    41   135   136    2
    42   133   134    1
    43   133   126   am
    44    87    86    1
    45    87    88    1
    46    84    91   am
    47   125   126    1
    48   125   128    1
    49   120   121    2
    50   121   123    1
    51   126   127    2
    52   100    99    1
    53    88    90   ar
    54    88    89   ar
    55   129   128    1
    56   129   130    1
    57    56    55    1
    58   106   107    1
    59   106   103    1
    60   132   130   ar
    61   130   131   ar
    62    91    92    1
    63    55    46   am
    64    99   101    1
    65    99    98    2
    66    47    46    2
    67    46    45    1
    68   102   103    1
    69   102    93   am
    70    92    93    1
    71    92    95    1
    72   103   104    1
    73    93    94    2
    74    44    45    1
    75    97    98    1
    76    97    96    1
    77    45    48    1
    78    29    28    1
    79    96    95    1
    80   104   105    2
    81   104   108   am
    82    30    28    1
    83    28    27    2
    84    48    49    1
    85   108   109    1
    86    11    10   ar
    87    11     9   ar
    88    27    26    1
    89    49    51   ar
    90    49    50   ar
    91    10     8   ar
    92    26    25    1
    93    51    53   ar
    94     9     7   ar
    95    50    52   ar
    96     8     6   ar
    97    37    36    1
    98   109   112    1
    99   109   110    1
   100     7     6   ar
   101    18    17    1
   102   111   110    2
   103     6     5    1
   104    53    54   ar
   105    52    54   ar
   106    25    24    1
   107     5     2    1
   108    36    38    1
   109    36    35    1
   110    19    17    1
   111    35    32    1
   112    17    16    1
   113    43    40    1
   114    34    33    2
   115    24    21    1
   116    16    13    1
   117    33    32    1
   118    33    39   am
   119     2     3    1
   120     2     1    1
   121    32    31    1
   122     3     4    2
   123    40    39    1
   124    40    41    1
   125    21    20    1
   126    21    22    1
   127    13    14    1
   128    13    12    1
   129    14    15    2
   130    41    42    2
   131    22    23    2
