@<TRIPOS>MOLECULE
tmp/4ev1A01.pdb
 100 95 0 0 0
SMALL
GASTEIGER

@<TRIPOS>ATOM
      1  N         12.9270   45.0750    6.3110 N.3    11  LEU11      -0.1245
      2  CA        13.0790   46.5210    6.1070 C.3    11  LEU11       0.1561
      3  C         13.8520   47.2130    7.2360 C.2    11  LEU11       0.2260
      4  O         14.5720   48.2020    6.9980 O.2    11  LEU11      -0.2867
      5  CB        11.7030   47.1820    5.9510 C.3    11  LEU11       0.0270
      6  CG        10.8920   46.7970    4.7340 C.3    11  LEU11       0.0019
      7  CD1        9.4580   47.4160    4.7540 C.3    11  LEU11       0.0001
      8  CD2       11.6400   47.1310    3.4380 C.3    11  LEU11       0.0001
      9  N         13.7040   51.4090    8.7580 N.3    85  LEU85      -0.1245
     10  CA        12.7450   51.5700    7.6610 C.3    85  LEU85       0.1561
     11  C         11.4420   50.8320    7.8770 C.2    85  LEU85       0.2260
     12  O         10.3900   51.3550    7.5130 O.2    85  LEU85      -0.2867
     13  CB        13.3680   51.1670    6.3380 C.3    85  LEU85       0.0270
     14  CG        12.4980   51.1660    5.0850 C.3    85  LEU85       0.0019
     15  CD1       11.9390   52.5710    4.7630 C.3    85  LEU85       0.0001
     16  CD2       13.3910   50.6830    3.9600 C.3    85  LEU85       0.0001
     17  N          7.5470   52.0240    7.4160 N.3    89  TYR89      -0.1241
     18  CA         6.6430   51.1850    6.6220 C.3    89  TYR89       0.1605
     19  C          5.3690   50.8380    7.4440 C.2    89  TYR89       0.2264
     20  O          4.2370   51.1150    7.0320 O.2    89  TYR89      -0.2867
     21  CB         7.3560   49.8800    6.2340 C.3    89  TYR89       0.0534
     22  CG         6.4560   48.8510    5.5490 C.ar   89  TYR89      -0.0201
     23  CD1        5.9600   49.0780    4.2810 C.ar   89  TYR89      -0.0009
     24  CD2        6.1020   47.6680    6.1980 C.ar   89  TYR89      -0.0009
     25  CE1        5.1210   48.1320    3.6500 C.ar   89  TYR89       0.0417
     26  CE2        5.2820   46.7320    5.6030 C.ar   89  TYR89       0.0417
     27  CZ         4.8060   46.9500    4.3180 C.ar   89  TYR89       0.1957
     28  OH         3.9910   46.0000    3.7350 O.3    89  TYR89      -0.2866
     29  N          3.1000   53.7700    8.1440 N.3    92  LEU92      -0.1245
     30  CA         2.3190   54.1490    6.9530 C.3    92  LEU92       0.1561
     31  C          1.1600   53.1650    6.7300 C.2    92  LEU92       0.2260
     32  O          0.0610   53.5930    6.3780 O.2    92  LEU92      -0.2867
     33  CB         3.1950   54.2820    5.7060 C.3    92  LEU92       0.0270
     34  CG         4.1410   55.4820    5.6790 C.3    92  LEU92       0.0019
     35  CD1        5.2000   55.3060    4.5630 C.3    92  LEU92       0.0001
     36  CD2        3.3270   56.7840    5.5010 C.3    92  LEU92       0.0001
     37  N          5.8800   60.5790    4.1570 N.3   104  PHE104     -0.1227
     38  CA         7.3280   60.6840    4.0550 C.3   104  PHE104      0.1736
     39  C          7.7640   60.7160    2.5870 C.2   104  PHE104      0.2595
     40  O          7.3140   59.8850    1.7600 O.2   104  PHE104     -0.2718
     41  CB         7.9980   59.4670    4.6990 C.3   104  PHE104      0.0547
     42  CG         7.6920   59.2740    6.1330 C.ar  104  PHE104     -0.0202
     43  CD1        6.4790   58.7350    6.5370 C.ar  104  PHE104     -0.0042
     44  CD2        8.6480   59.5960    7.1080 C.ar  104  PHE104     -0.0042
     45  CE1        6.2080   58.5400    7.9080 C.ar  104  PHE104     -0.0003
     46  CE2        8.3810   59.4130    8.4410 C.ar  104  PHE104     -0.0003
     47  CZ         7.1600   58.8910    8.8490 C.ar  104  PHE104     -0.0000
     48  N          8.6530   61.6500    2.2570 N.am  105  ALA105     -0.1966
     49  CA         9.3210   61.6900    0.9640 C.3   105  ALA105      0.1728
     50  C         10.7310   61.1850    1.1750 C.2   105  ALA105      0.2616
     51  O         11.3500   61.6000    2.1630 O.2   105  ALA105     -0.2715
     52  CB         9.3470   63.1070    0.4460 C.3   105  ALA105      0.0334
     53  N         11.2060   60.2370    0.3630 N.am  106  PHE106     -0.1974
     54  CA        12.5360   59.6250    0.5490 C.3   106  PHE106      0.1639
     55  C         13.5980   60.1560   -0.4390 C.2   106  PHE106      0.2290
     56  O         13.4020   60.0940   -1.6450 O.2   106  PHE106     -0.2864
     57  CB        12.4770   58.0990    0.4560 C.3   106  PHE106      0.0560
     58  CG        11.7330   57.4440    1.5830 C.ar  106  PHE106     -0.0200
     59  CD1       10.3550   57.4560    1.6020 C.ar  106  PHE106     -0.0042
     60  CD2       12.4040   56.8060    2.6160 C.ar  106  PHE106     -0.0042
     61  CE1        9.6550   56.8450    2.6340 C.ar  106  PHE106     -0.0003
     62  CE2       11.6940   56.2050    3.6340 C.ar  106  PHE106     -0.0003
     63  CZ        10.3200   56.2430    3.6300 C.ar  106  PHE106     -0.0000
     64  N         12.5180   56.7960   -7.0700 N.3   132  SER132     -0.1202
     65  CA        12.5800   55.9630   -5.8680 C.3   132  SER132      0.2020
     66  C         14.0360   55.7010   -5.4720 C.2   132  SER132      0.2618
     67  O         14.9850   56.2380   -6.0750 O.2   132  SER132     -0.2717
     68  CB        11.7930   54.6390   -6.0660 C.3   132  SER132      0.2103
     69  OG        11.5630   53.9730   -4.8240 O.3   132  SER132     -0.2182
     70  N         14.1920   54.8650   -4.4540 N.am  133  VAL133     -0.1979
     71  CA        15.5070   54.5420   -3.8900 C.3   133  VAL133      0.1595
     72  C         16.0100   53.3110   -4.6180 C.2   133  VAL133      0.2287
     73  O         15.3500   52.2940   -4.5970 O.2   133  VAL133     -0.2864
     74  CB        15.4040   54.1880   -2.4090 C.3   133  VAL133      0.0276
     75  CG1       16.7800   53.8730   -1.8110 C.3   133  VAL133      0.0022
     76  CG2       14.7480   55.3630   -1.6100 C.3   133  VAL133      0.0022
     77  N         13.2540   50.0870   -4.2210 N.3   189  ILE189     -0.1231
     78  CA        12.6500   49.6120   -2.9810 C.3   189  ILE189      0.1692
     79  C         11.1430   49.3910   -3.0640 C.2   189  ILE189      0.2592
     80  O         10.6170   48.4640   -2.4530 O.2   189  ILE189     -0.2718
     81  CB        12.9750   50.5570   -1.8060 C.3   189  ILE189      0.0266
     82  CG1       12.5920   49.9110   -0.4820 C.3   189  ILE189      0.0019
     83  CG2       12.2430   51.8710   -1.9420 C.3   189  ILE189      0.0020
     84  CD1       13.5220   48.7840   -0.1380 C.3   189  ILE189      0.0001
     85  N         10.4400   50.2310   -3.8020 N.am  190  ASP190     -0.1974
     86  CA         8.9890   50.0220   -3.9870 C.3   190  ASP190      0.1709
     87  C          8.6790   48.7080   -4.7420 C.2   190  ASP190      0.2293
     88  O          7.8020   47.9700   -4.3750 O.2   190  ASP190     -0.2864
     89  CB         8.3830   51.2110   -4.7220 C.3   190  ASP190      0.1436
     90  CG         8.4150   52.4870   -3.8770 C.2   190  ASP190      0.3671
     91  OD1        7.6420   52.5380   -2.9080 O.co2 190  ASP190     -0.2456
     92  OD2        9.2350   53.4040   -4.1630 O.co2 190  ASP190     -0.2456
     93  N          9.5430   45.7090   -2.4840 N.3   193  LEU193     -0.1245
     94  CA         8.5150   45.5810   -1.4350 C.3   193  LEU193      0.1561
     95  C          7.1950   44.9440   -1.9750 C.2   193  LEU193      0.2260
     96  O          6.6110   44.0510   -1.3420 O.2   193  LEU193     -0.2867
     97  CB         8.2860   46.9510   -0.7650 C.3   193  LEU193      0.0270
     98  CG         7.2680   46.9670    0.3740 C.3   193  LEU193      0.0019
     99  CD1        7.7990   46.2020    1.5970 C.3   193  LEU193      0.0001
    100  CD2        6.9320   48.4050    0.7250 C.3   193  LEU193      0.0001
@<TRIPOS>BOND
     1    64    65    1
     2    67    66    2
     3    68    65    1
     4    68    69    1
     5    65    66    1
     6    66    70   am
     7    87    88    2
     8    87    86    1
     9    89    86    1
    10    89    90    1
    11    72    73    2
    12    72    71    1
    13    70    71    1
    14    77    78    1
    15    92    90   ar
    16    86    85    1
    17    71    74    1
    18    90    91   ar
    19    85    79   am
    20    79    78    1
    21    79    80    2
    22    78    81    1
    23    93    94    1
    24    74    75    1
    25    74    76    1
    26    95    94    1
    27    95    96    2
    28    83    81    1
    29    81    82    1
    30    56    55    2
    31    94    97    1
    32    97    98    1
    33    82    84    1
    34    55    54    1
    35    53    54    1
    36    53    50   am
    37    98   100    1
    38    98    99    1
    39    52    49    1
    40    57    54    1
    41    57    58    1
    42    49    50    1
    43    49    48    1
    44    50    51    2
    45    58    59   ar
    46    58    60   ar
    47    59    61   ar
    48    40    39    2
    49    48    39   am
    50    39    38    1
    51    60    62   ar
    52    61    63   ar
    53     8     6    1
    54    63    62   ar
    55    25    23   ar
    56    25    27   ar
    57    28    27    1
    58    16    14    1
    59    38    37    1
    60    38    41    1
    61    23    22   ar
    62    27    26   ar
    63    35    34    1
    64    41    42    1
    65     6     7    1
    66     6     5    1
    67    15    14    1
    68    14    13    1
    69    36    34    1
    70    22    24   ar
    71    22    21    1
    72    26    24   ar
    73    34    33    1
    74    33    30    1
    75     5     2    1
    76     2     1    1
    77     2     3    1
    78    42    43   ar
    79    42    44   ar
    80    21    18    1
    81    13    10    1
    82    32    31    2
    83    43    45   ar
    84    18    17    1
    85    18    19    1
    86    31    30    1
    87    30    29    1
    88     4     3    2
    89    20    19    2
    90    44    46   ar
    91    12    11    2
    92    10    11    1
    93    10     9    1
    94    45    47   ar
    95    46    47   ar
