@<TRIPOS>MOLECULE
tmp/4ev1A00.pdb
 116 110 0 0 0
SMALL
GASTEIGER

@<TRIPOS>ATOM
      1  N         19.6910   35.1560   -8.8890 N.3   146  TYR146     -0.1241
      2  CA        20.4090   36.0320   -7.9740 C.3   146  TYR146      0.1605
      3  C         21.4390   35.2060   -7.2230 C.2   146  TYR146      0.2264
      4  O         21.1240   34.1100   -6.7600 O.2   146  TYR146     -0.2867
      5  CB        19.4370   36.7020   -6.9970 C.3   146  TYR146      0.0534
      6  CG        18.4820   37.5120   -7.7650 C.ar  146  TYR146     -0.0201
      7  CD1       18.8610   38.7340   -8.2600 C.ar  146  TYR146     -0.0009
      8  CD2       17.2260   37.0230   -8.0940 C.ar  146  TYR146     -0.0009
      9  CE1       18.0120   39.4800   -9.0290 C.ar  146  TYR146      0.0417
     10  CE2       16.3680   37.7620   -8.8820 C.ar  146  TYR146      0.0417
     11  CZ        16.7700   38.9840   -9.3510 C.ar  146  TYR146      0.1957
     12  OH        15.9420   39.7420  -10.1270 O.3   146  TYR146     -0.2866
     13  N         20.1400   36.1800   -0.0270 N.3   159  VAL159     -0.1245
     14  CA        20.2510   36.8970   -1.2850 C.3   159  VAL159      0.1561
     15  C         20.2530   38.4100   -0.9580 C.2   159  VAL159      0.2260
     16  O         19.2040   38.9750   -0.6220 O.2   159  VAL159     -0.2867
     17  CB        19.1030   36.5890   -2.2400 C.3   159  VAL159      0.0252
     18  CG1       19.2190   37.4660   -3.4610 C.3   159  VAL159      0.0019
     19  CG2       19.0950   35.0580   -2.6620 C.3   159  VAL159      0.0019
     20  N         20.2070   42.3830   -1.2150 N.3   161  LEU161     -0.1245
     21  CA        19.8890   43.5460   -2.0190 C.3   161  LEU161      0.1561
     22  C         20.5780   44.8150   -1.4270 C.2   161  LEU161      0.2260
     23  O         20.2840   45.2740   -0.3130 O.2   161  LEU161     -0.2867
     24  CB        18.3910   43.7220   -2.1340 C.3   161  LEU161      0.0270
     25  CG        17.5590   42.4780   -2.4620 C.3   161  LEU161      0.0019
     26  CD1       16.0550   42.7920   -2.4380 C.3   161  LEU161      0.0001
     27  CD2       17.9740   41.9220   -3.7890 C.3   161  LEU161      0.0001
     28  N         21.8220   43.9120  -11.3930 N.3   185  GLN185     -0.1245
     29  CA        20.4940   44.4250  -11.7370 C.3   185  GLN185      0.1566
     30  C         20.0970   45.6330  -10.8800 C.2   185  GLN185      0.2260
     31  O         20.2390   45.6270   -9.6480 O.2   185  GLN185     -0.2867
     32  CB        19.4240   43.3570  -11.5420 C.3   185  GLN185      0.0367
     33  CG        18.0960   43.6770  -12.2000 C.3   185  GLN185      0.0905
     34  CD        17.0060   42.6790  -11.8700 C.2   185  GLN185      0.2608
     35  OE1       17.1440   41.8640  -10.9670 O.2   185  GLN185     -0.2717
     36  NE2       15.9070   42.7350  -12.6140 N.am  185  GLN185     -0.0878
     37  N         17.2750   47.6210   -9.1830 N.3   187  LEU187     -0.1231
     38  CA        15.9390   47.4640   -8.6310 C.3   187  LEU187      0.1693
     39  C         15.5870   48.7720   -7.9160 C.2   187  LEU187      0.2592
     40  O         16.3890   49.6880   -7.8550 O.2   187  LEU187     -0.2718
     41  CB        15.9010   46.3100   -7.6250 C.3   187  LEU187      0.0284
     42  CG        16.2830   44.9210   -8.1660 C.3   187  LEU187      0.0019
     43  CD1       16.6450   43.9710   -7.0400 C.3   187  LEU187      0.0001
     44  CD2       15.1490   44.3550   -9.0440 C.3   187  LEU187      0.0001
     45  N         14.3790   48.8550   -7.4090 N.am  188  ASP188     -0.1974
     46  CA        14.0380   49.9120   -6.4730 C.3   188  ASP188      0.1709
     47  C         13.2030   49.3770   -5.3400 C.2   188  ASP188      0.2293
     48  O         12.5710   48.3320   -5.4640 O.2   188  ASP188     -0.2864
     49  CB        13.3680   51.1050   -7.1540 C.3   188  ASP188      0.1436
     50  CG        12.0560   50.7730   -7.7320 C.2   188  ASP188      0.3671
     51  OD1       11.1990   50.2930   -6.9910 O.co2 188  ASP188     -0.2456
     52  OD2       11.8490   51.0300   -8.9400 O.co2 188  ASP188     -0.2456
     53  N          9.4550   48.4140   -5.7730 N.3   191  GLY191     -0.1210
     54  CA         9.2580   47.1890   -6.5570 C.3   191  GLY191      0.1956
     55  C          9.5580   45.9080   -5.7860 C.2   191  GLY191      0.2611
     56  O          8.7920   44.9430   -5.8590 O.2   191  GLY191     -0.2717
     57  N         10.6800   45.8950   -5.0740 N.am  192  VAL192     -0.1979
     58  CA        11.0460   44.7980   -4.1840 C.3   192  VAL192      0.1595
     59  C          9.9430   44.6270   -3.1380 C.2   192  VAL192      0.2287
     60  O          9.4260   43.5290   -2.9440 O.2   192  VAL192     -0.2864
     61  CB        12.3860   45.0540   -3.5060 C.3   192  VAL192      0.0276
     62  CG1       12.6430   44.0670   -2.3410 C.3   192  VAL192      0.0022
     63  CG2       13.5210   45.0020   -4.5190 C.3   192  VAL192      0.0022
     64  N          6.7600   45.3670   -3.1590 N.3   194  GLN194     -0.1231
     65  CA         5.5260   44.8300   -3.7390 C.3   194  GLN194      0.1698
     66  C          5.6870   43.3360   -4.0700 C.2   194  GLN194      0.2593
     67  O          4.7510   42.5340   -3.8800 O.2   194  GLN194     -0.2718
     68  CB         5.0010   45.6920   -4.9100 C.3   194  GLN194      0.0381
     69  CG         5.6680   45.4780   -6.2510 C.3   194  GLN194      0.0905
     70  CD         4.9960   46.2300   -7.4080 C.2   194  GLN194      0.2608
     71  OE1        3.7540   46.2870   -7.5050 O.2   194  GLN194     -0.2717
     72  NE2        5.8210   46.8050   -8.2990 N.am  194  GLN194     -0.0878
     73  N          6.8860   42.9410   -4.4990 N.am  195  THR195     -0.1939
     74  CA         7.1890   41.4970   -4.6350 C.3   195  THR195      0.2028
     75  C          7.0730   40.7520   -3.3060 C.2   195  THR195      0.2642
     76  O          6.4470   39.6690   -3.2370 O.2   195  THR195     -0.2714
     77  CB         8.5980   41.2250   -5.2120 C.3   195  THR195      0.1808
     78  OG1        8.7250   41.8520   -6.4920 O.3   195  THR195     -0.2208
     79  CG2        8.8410   39.6940   -5.3120 C.3   195  THR195      0.0379
     80  N          7.6700   41.2970   -2.2490 N.am  196  LEU196     -0.1977
     81  CA         7.6030   40.6370   -0.9270 C.3   196  LEU196      0.1596
     82  C          6.1440   40.5910   -0.3950 C.2   196  LEU196      0.2287
     83  O          5.7790   39.6790    0.3400 O.2   196  LEU196     -0.2864
     84  CB         8.4960   41.3300    0.0970 C.3   196  LEU196      0.0297
     85  CG         9.9920   41.4630   -0.2140 C.3   196  LEU196      0.0022
     86  CD1       10.6500   42.3420    0.8190 C.3   196  LEU196      0.0001
     87  CD2       10.6380   40.1240   -0.2550 C.3   196  LEU196      0.0001
     88  N         11.6220   31.0630   -1.2250 N.3   203  TRP203     -0.1227
     89  CA        13.0070   31.5160   -1.2110 C.3   203  TRP203      0.1737
     90  C         13.1400   32.9920   -0.8130 C.2   203  TRP203      0.2595
     91  O         14.2020   33.3890   -0.4080 O.2   203  TRP203     -0.2718
     92  CB        13.7190   31.2670   -2.5430 C.3   203  TRP203      0.0564
     93  CG        13.3090   32.1940   -3.6400 C.ar  203  TRP203      0.0003
     94  CD1       12.1900   32.1010   -4.4020 C.ar  203  TRP203      0.0946
     95  CD2       14.0030   33.3740   -4.0820 C.ar  203  TRP203      0.0152
     96  NE1       12.1520   33.1290   -5.3140 N.ar  203  TRP203     -0.2442
     97  CE2       13.2460   33.9300   -5.1300 C.ar  203  TRP203      0.0810
     98  CE3       15.2030   33.9960   -3.7100 C.ar  203  TRP203      0.0012
     99  CZ2       13.6320   35.0830   -5.8030 C.ar  203  TRP203      0.0191
    100  CZ3       15.5860   35.1630   -4.3730 C.ar  203  TRP203      0.0001
    101  CH2       14.8010   35.6910   -5.4070 C.ar  203  TRP203      0.0015
    102  N         12.0600   33.7780   -0.9170 N.am  204  LEU204     -0.1980
    103  CA        12.1030   35.2230   -0.5500 C.3   204  LEU204      0.1596
    104  C         12.4060   35.4780    0.9240 C.2   204  LEU204      0.2287
    105  O         12.8500   36.5820    1.2930 O.2   204  LEU204     -0.2864
    106  CB        10.8130   35.9250   -0.9640 C.3   204  LEU204      0.0297
    107  CG        10.5330   35.8960   -2.4660 C.3   204  LEU204      0.0022
    108  CD1        9.1310   36.4050   -2.7740 C.3   204  LEU204      0.0001
    109  CD2       11.5760   36.7100   -3.2250 C.3   204  LEU204      0.0001
    110  N         16.0580   36.8430    1.3060 N.3   207  VAL207     -0.1245
    111  CA        16.3000   38.2100    0.8900 C.3   207  VAL207      0.1561
    112  C         16.5770   39.0520    2.1180 C.2   207  VAL207      0.2260
    113  O         15.8630   38.9600    3.1260 O.2   207  VAL207     -0.2867
    114  CB        15.1100   38.8000    0.1120 C.3   207  VAL207      0.0252
    115  CG1       15.3520   40.2690   -0.1990 C.3   207  VAL207      0.0019
    116  CG2       14.8640   38.0110   -1.1650 C.3   207  VAL207      0.0019
@<TRIPOS>BOND
     1    36    34   am
     2    33    34    1
     3    33    32    1
     4    34    35    2
     5    29    32    1
     6    29    28    1
     7    29    30    1
     8    30    31    2
     9    12    11    1
    10    11     9   ar
    11    11    10   ar
    12    37    38    1
    13    44    42    1
    14     9     7   ar
    15    52    50   ar
    16     1     2    1
    17    10     8   ar
    18    38    39    1
    19    38    41    1
    20    72    70   am
    21     7     6   ar
    22    42    41    1
    23    42    43    1
    24     8     6   ar
    25     2     3    1
    26     2     5    1
    27    39    40    2
    28    39    45   am
    29     6     5    1
    30    50    49    1
    31    50    51   ar
    32    71    70    2
    33    45    46    1
    34    70    69    1
    35     3     4    2
    36    49    46    1
    37    54    55    1
    38    54    53    1
    39    78    77    1
    40    46    47    1
    41    69    68    1
    42    56    55    2
    43    99   101   ar
    44    99    97   ar
    45    55    57   am
    46    48    47    2
    47   101   100   ar
    48    96    97   ar
    49    96    94   ar
    50    79    77    1
    51    77    74    1
    52    97    95   ar
    53    57    58    1
    54    68    65    1
    55    74    73    1
    56    74    75    1
    57    63    61    1
    58    73    66   am
    59    94    93   ar
    60   100    98   ar
    61    58    61    1
    62    58    59    1
    63    95    98   ar
    64    95    93   ar
    65    66    67    2
    66    66    65    1
    67    27    25    1
    68    65    64    1
    69    93    92    1
    70    61    62    1
    71    18    17    1
    72    75    76    2
    73    75    80   am
    74   109   107    1
    75    59    60    2
    76   108   107    1
    77    19    17    1
    78    92    89    1
    79   107   106    1
    80    25    26    1
    81    25    24    1
    82    80    81    1
    83    17    14    1
    84    24    21    1
    85    21    22    1
    86    21    20    1
    87    22    23    2
    88    14    15    1
    89    14    13    1
    90    88    89    1
    91    89    90    1
    92   116   114    1
    93   106   103    1
    94    15    16    2
    95    81    82    1
    96    81    84    1
    97   102    90   am
    98   102   103    1
    99    90    91    2
   100   103   104    1
   101    82    83    2
   102    87    85    1
   103    85    84    1
   104    85    86    1
   105   115   114    1
   106   114   111    1
   107   111   110    1
   108   111   112    1
   109   104   105    2
   110   112   113    2
