@<TRIPOS>MOLECULE
tmp/4ev4A00.pdb
 121 111 0 0 0
SMALL
GASTEIGER

@<TRIPOS>ATOM
      1  N        -16.9220   -1.9470   16.4160 N.3    47  CYS47      -0.1221
      2  CA       -17.1010   -1.8730   17.8640 C.3    47  CYS47       0.1808
      3  C        -15.8010   -2.3410   18.5240 C.2    47  CYS47       0.2601
      4  O        -14.7170   -2.1760   17.9710 O.2    47  CYS47      -0.2717
      5  CB       -18.3570   -2.5920   18.3320 C.3    47  CYS47       0.0970
      6  SG       -19.8480   -2.3620   17.3310 S.3    47  CYS47      -0.0800
      7  N        -15.9070   -2.9790   19.6910 N.am   48  SER48      -0.1952
      8  CA       -14.7460   -3.4570   20.4280 C.3    48  SER48       0.1924
      9  C        -14.0230   -4.5980   19.7210 C.2    48  SER48       0.2314
     10  O        -12.9800   -5.0420   20.2070 O.2    48  SER48      -0.2863
     11  CB       -15.1330   -4.0090   21.8010 C.3    48  SER48       0.2116
     12  OG       -15.6840   -3.0340   22.7170 O.3    48  SER48      -0.2180
     13  N        -10.1200   -5.2300   19.0420 N.3    51  LYS51      -0.1245
     14  CA        -9.1130   -5.5470   20.0670 C.3    51  LYS51       0.1561
     15  C         -8.4060   -6.8620   19.8280 C.2    51  LYS51       0.2260
     16  O         -7.2810   -7.0490   20.2850 O.2    51  LYS51      -0.2867
     17  CB        -9.7610   -5.5030   21.4610 C.3    51  LYS51       0.0271
     18  CG       -10.2870   -4.1490   21.8870 C.3    51  LYS51       0.0035
     19  CD       -11.2010   -4.2230   23.0890 C.3    51  LYS51       0.0206
     20  CE       -11.9310   -2.9490   23.3530 C.3    51  LYS51       0.1093
     21  NZ       -12.9110   -3.0970   24.4690 N.3    51  LYS51      -0.1314
     22  N        -15.8280    0.4090   31.2640 N.3    82  HIS82      -0.1241
     23  CA       -15.6290   -1.0020   30.8550 C.3    82  HIS82       0.1621
     24  C        -14.1360   -1.3660   30.7710 C.2    82  HIS82       0.2264
     25  O        -13.6070   -1.8270   29.7390 O.2    82  HIS82      -0.2867
     26  CB       -16.3480   -1.3490   29.5300 C.3    82  HIS82       0.0745
     27  CG       -16.6110   -2.8460   29.4800 C.ar   82  HIS82       0.0817
     28  ND1      -15.7120   -3.7520   28.9540 N.ar   82  HIS82      -0.2268
     29  CD2      -17.6850   -3.5700   29.9020 C.ar   82  HIS82       0.1154
     30  CE1      -16.2350   -4.9890   29.0760 C.ar   82  HIS82       0.1986
     31  NE2      -17.4510   -4.9080   29.6720 N.ar   82  HIS82      -0.2212
     32  N        -12.4660   -7.4190   27.0280 N.3   107  SER107     -0.1217
     33  CA       -12.8330   -6.1870   26.3160 C.3   107  SER107      0.1889
     34  C        -12.5760   -4.9580   27.1800 C.2   107  SER107      0.2288
     35  O        -13.3770   -4.0340   27.2870 O.2   107  SER107     -0.2866
     36  CB       -14.2500   -6.1960   25.7410 C.3   107  SER107      0.2089
     37  OG       -14.2730   -5.5320   24.4780 O.3   107  SER107     -0.2183
     38  N        -11.3940   -1.5420   27.8250 N.3   109  ASN109     -0.1240
     39  CA       -11.1230   -0.3560   27.0140 C.3   109  ASN109      0.1653
     40  C         -9.8610    0.3780   27.4530 C.2   109  ASN109      0.2266
     41  O         -9.1290    0.9190   26.6310 O.2   109  ASN109     -0.2867
     42  CB       -12.3130    0.6200   27.0730 C.3   109  ASN109      0.1155
     43  CG       -13.4980    0.1630   26.2350 C.2   109  ASN109      0.2627
     44  OD1      -13.3200   -0.2620   25.0910 O.2   109  ASN109     -0.2716
     45  ND2      -14.6890    0.2700   26.8150 N.am  109  ASN109     -0.0877
     46  N        -10.7920    4.1350   21.7410 N.3   144  ALA144     -0.1231
     47  CA       -11.6400    3.0030   22.1470 C.3   144  ALA144      0.1694
     48  C        -13.0770    3.3400   22.4190 C.2   144  ALA144      0.2591
     49  O        -13.9850    2.5690   22.0300 O.2   144  ALA144     -0.2718
     50  CB       -11.0710    2.2990   23.3610 C.3   144  ALA144      0.0304
     51  N        -13.3250    4.4390   23.1200 N.am  145  LEU145     -0.1980
     52  CA       -14.7450    4.7350   23.4010 C.3   145  LEU145      0.1596
     53  C        -15.4660    5.3040   22.2170 C.2   145  LEU145      0.2287
     54  O        -16.5990    4.9270   21.8900 O.2   145  LEU145     -0.2864
     55  CB       -14.7540    5.7180   24.5430 C.3   145  LEU145      0.0297
     56  CG       -14.2400    5.2270   25.8800 C.3   145  LEU145      0.0022
     57  CD1      -14.5420    6.3800   26.8410 C.3   145  LEU145      0.0001
     58  CD2      -14.8500    3.9000   26.2270 C.3   145  LEU145      0.0001
     59  N        -17.4620    3.6870   18.7550 N.3   148  ASN148     -0.1240
     60  CA       -18.6620    2.8720   18.8560 C.3   148  ASN148      0.1653
     61  C        -19.9600    3.5460   18.4570 C.2   148  ASN148      0.2266
     62  O        -21.0470    3.0310   18.7090 O.2   148  ASN148     -0.2867
     63  CB       -18.8080    2.3300   20.3100 C.3   148  ASN148      0.1155
     64  CG       -17.6880    1.3620   20.6070 C.2   148  ASN148      0.2627
     65  OD1      -17.7600    0.1990   20.1910 O.2   148  ASN148     -0.2716
     66  ND2      -16.6200    1.8000   21.2810 N.am  148  ASN148     -0.0877
     67  N        -16.3460  -13.0940   26.8720 N.3   194  THR194     -0.1218
     68  CA       -17.5090  -12.2880   26.5360 C.3   194  THR194      0.1862
     69  C        -18.3600  -12.8930   25.4210 C.2   194  THR194      0.2287
     70  O        -19.3490  -12.2410   25.0360 O.2   194  THR194     -0.2866
     71  CB       -17.0910  -10.8930   26.0840 C.3   194  THR194      0.1770
     72  OG1      -16.2390  -11.0800   24.9080 O.3   194  THR194     -0.2211
     73  CG2      -16.2910  -10.1500   27.1350 C.3   194  THR194      0.0375
     74  N        -22.8440  -16.0500   21.7550 N.3   198  ARG198     -0.1245
     75  CA       -22.7160  -15.7580   20.3290 C.3   198  ARG198      0.1563
     76  C        -22.1970  -16.9730   19.5920 C.2   198  ARG198      0.2260
     77  O        -22.8640  -18.0280   19.6170 O.2   198  ARG198     -0.2867
     78  CB       -21.9250  -14.4470   20.1410 C.3   198  ARG198      0.0307
     79  CG       -22.7180  -13.2810   20.7070 C.3   198  ARG198      0.0489
     80  CD       -22.0480  -11.9180   20.4580 C.3   198  ARG198      0.2205
     81  NE       -22.7930  -10.8820   21.1280 N.pl3 198  ARG198     -0.0865
     82  CZ       -22.3950   -9.6170   21.3020 C.cat 198  ARG198      0.5346
     83  NH1      -21.3020   -9.1690   20.6920 N.pl3 198  ARG198      0.1354
     84  NH2      -23.1270   -8.7980   22.0360 N.pl3 198  ARG198      0.1354
     85  N        -13.5440  -13.0420   19.4370 N.3   212  LYS212     -0.1231
     86  CA       -13.6360  -11.7040   19.9940 C.3   212  LYS212      0.1693
     87  C        -14.9750  -11.0840   19.5300 C.2   212  LYS212      0.2592
     88  O        -15.2940  -11.0900   18.3610 O.2   212  LYS212     -0.2718
     89  CB       -12.5380  -10.7860   19.5610 C.3   212  LYS212      0.0285
     90  CG       -12.6300   -9.3500   20.1140 C.3   212  LYS212      0.0035
     91  CD       -12.2750   -9.2560   21.5950 C.3   212  LYS212      0.0206
     92  CE       -12.6390   -7.9360   22.2310 C.3   212  LYS212      0.1093
     93  NZ       -14.0210   -7.8290   22.7110 N.3   212  LYS212     -0.1314
     94  N        -15.6770  -10.5280   20.5120 N.am  213  THR213     -0.1953
     95  CA       -16.9590   -9.8710   20.3560 C.3   213  THR213      0.1897
     96  C        -16.8400   -8.3430   20.2170 C.2   213  THR213      0.2313
     97  O        -15.8250   -7.7290   20.5710 O.2   213  THR213     -0.2863
     98  CB       -17.8180  -10.1310   21.6100 C.3   213  THR213      0.1794
     99  OG1      -17.0200   -9.8590   22.7530 O.3   213  THR213     -0.2208
    100  CG2      -18.2820  -11.5680   21.6950 C.3   213  THR213      0.0378
    101  N        -19.8250   -4.9700   20.8710 N.3   215  THR215     -0.1203
    102  CA       -21.1790   -4.5380   21.2330 C.3   215  THR215      0.1994
    103  C        -21.1460   -3.0080   21.3340 C.2   215  THR215      0.2618
    104  O        -20.7520   -2.4500   22.3540 O.2   215  THR215     -0.2717
    105  CB       -21.6550   -5.1700   22.5390 C.3   215  THR215      0.1784
    106  OG1      -21.4510   -6.5910   22.4880 O.3   215  THR215     -0.2211
    107  CG2      -23.1390   -4.9220   22.7560 C.3   215  THR215      0.0376
    108  N        -21.5400   -2.2900   20.2790 N.am  216  CYS216     -0.1969
    109  CA       -21.4290   -0.8350   20.2340 C.3   216  CYS216      0.1712
    110  C        -22.3240   -0.1510   21.2440 C.2   216  CYS216      0.2296
    111  O        -22.0080    0.9390   21.6830 O.2   216  CYS216     -0.2864
    112  CB       -21.7100   -0.3070   18.8320 C.3   216  CYS216      0.0983
    113  SG       -20.3480   -0.3370   17.5990 S.3   216  CYS216     -0.0798
    114  N        -27.9020  -11.1380   20.7900 N.3   253  ASP253     -0.1239
    115  CA       -26.9540  -12.2430   20.8950 C.3   253  ASP253      0.1674
    116  C        -27.4980  -13.4760   20.1550 C.2   253  ASP253      0.2266
    117  O        -26.7520  -14.1570   19.4490 O.2   253  ASP253     -0.2867
    118  CB       -26.6740  -12.6300   22.3250 C.3   253  ASP253      0.1410
    119  CG       -25.9290  -11.5870   23.1370 C.2   253  ASP253      0.3668
    120  OD1      -25.2140  -10.7080   22.5560 O.co2 253  ASP253     -0.2456
    121  OD2      -26.0380  -11.6230   24.3830 O.co2 253  ASP253     -0.2456
@<TRIPOS>BOND
     1     1     2    1
     2     6   113    1
     3     6     5    1
     4   113   112    1
     5     2     5    1
     6     2     3    1
     7     4     3    2
     8    88    87    2
     9    61    62    2
    10    61    60    1
    11     3     7   am
    12    59    60    1
    13   112   109    1
    14    60    63    1
    15    13    14    1
    16    85    86    1
    17   117   116    2
    18    87    86    1
    19    87    94   am
    20    89    86    1
    21    89    90    1
    22    76    77    2
    23    76    75    1
    24     7     8    1
    25     9    10    2
    26     9     8    1
    27    15    14    1
    28    15    16    2
    29    14    17    1
    30    90    91    1
    31    78    75    1
    32    78    79    1
    33   116   115    1
    34    65    64    2
    35    96    95    1
    36    96    97    2
    37   109   108    1
    38   109   110    1
    39   108   103   am
    40    63    64    1
    41    75    74    1
    42    95    94    1
    43    95    98    1
    44     8    11    1
    45    80    79    1
    46    80    81    1
    47    64    66   am
    48    83    82    1
    49   114   115    1
    50   101   102    1
    51   115   118    1
    52    81    82    2
    53   102   103    1
    54   102   105    1
    55   110   111    2
    56    82    84    1
    57   103   104    2
    58    17    18    1
    59    91    92    1
    60    98   100    1
    61    98    99    1
    62    46    47    1
    63    11    12    1
    64    18    19    1
    65    54    53    2
    66    49    48    2
    67    47    48    1
    68    47    50    1
    69    53    52    1
    70    92    93    1
    71   118   119    1
    72    48    51   am
    73   106   105    1
    74   105   107    1
    75   120   119   ar
    76    19    20    1
    77    51    52    1
    78   119   121   ar
    79    20    21    1
    80    52    55    1
    81    37    36    1
    82    55    56    1
    83    72    71    1
    84    70    69    2
    85    44    43    2
    86    69    68    1
    87    36    33    1
    88    56    58    1
    89    56    57    1
    90    71    68    1
    91    71    73    1
    92    43    45   am
    93    43    42    1
    94    33    32    1
    95    33    34    1
    96    68    67    1
    97    41    40    2
    98    39    42    1
    99    39    40    1
   100    39    38    1
   101    34    35    2
   102    28    30   ar
   103    28    27   ar
   104    30    31   ar
   105    27    26    1
   106    27    29   ar
   107    26    23    1
   108    31    29   ar
   109    25    24    2
   110    24    23    1
   111    23    22    1
