@<TRIPOS>MOLECULE
tmp/4ev5F00.pdb
 94 90 0 0 0
SMALL
GASTEIGER

@<TRIPOS>ATOM
      1  N         78.2620  -65.1600  -25.5640 N.3   104  LEU104     -0.1245
      2  CA        77.7340  -64.7360  -26.8450 C.3   104  LEU104      0.1561
      3  C         77.2900  -65.8800  -27.7400 C.2   104  LEU104      0.2260
      4  O         76.3070  -65.7410  -28.4600 O.2   104  LEU104     -0.2867
      5  CB        78.7460  -63.8560  -27.5950 C.3   104  LEU104      0.0270
      6  CG        79.4020  -62.6570  -26.8440 C.3   104  LEU104      0.0019
      7  CD1       80.3650  -61.9100  -27.7580 C.3   104  LEU104      0.0001
      8  CD2       78.4420  -61.6630  -26.2030 C.3   104  LEU104      0.0001
      9  N         74.6070  -60.8370  -30.2820 N.3   138  PRO138     -0.2102
     10  CA        74.1640  -60.7710  -28.9110 C.3   138  PRO138      0.1504
     11  C         74.9170  -59.6820  -28.0250 C.2   138  PRO138      0.2575
     12  O         75.8310  -60.0070  -27.2680 O.2   138  PRO138     -0.2718
     13  CB        74.4220  -62.2040  -28.4250 C.3   138  PRO138      0.0282
     14  CG        75.6840  -62.5960  -29.1370 C.3   138  PRO138      0.0208
     15  CD        75.6410  -61.8650  -30.4810 C.3   138  PRO138      0.0893
     16  N         74.5260  -58.4230  -28.1330 N.am  139  TRP139     -0.1977
     17  CA        75.1670  -57.3950  -27.3880 C.3   139  TRP139      0.1640
     18  C         74.7760  -57.5440  -25.9300 C.2   139  TRP139      0.2290
     19  O         73.7200  -58.0550  -25.6620 O.2   139  TRP139     -0.2864
     20  CB        74.6560  -56.0570  -27.8460 C.3   139  TRP139      0.0576
     21  CG        75.0750  -55.5860  -29.1960 C.ar  139  TRP139      0.0006
     22  CD1       75.0950  -56.2960  -30.3720 C.ar  139  TRP139      0.0946
     23  CD2       75.4640  -54.2470  -29.5230 C.ar  139  TRP139      0.0152
     24  NE1       75.4830  -55.4930  -31.3910 N.ar  139  TRP139     -0.2442
     25  CE2       75.7090  -54.2210  -30.9080 C.ar  139  TRP139      0.0810
     26  CE3       75.6560  -53.0700  -28.7580 C.ar  139  TRP139      0.0012
     27  CZ2       76.1470  -53.0620  -31.5730 C.ar  139  TRP139      0.0191
     28  CZ3       76.0440  -51.9130  -29.4110 C.ar  139  TRP139      0.0001
     29  CH2       76.3220  -51.9330  -30.8230 C.ar  139  TRP139      0.0015
     30  N         81.4250  -46.7170  -27.9910 N.3   286  VAL286     -0.1245
     31  CA        80.9410  -46.4790  -29.3680 C.3   286  VAL286      0.1561
     32  C         79.4630  -45.9900  -29.3380 C.2   286  VAL286      0.2260
     33  O         78.5080  -46.7720  -29.5420 O.2   286  VAL286     -0.2867
     34  CB        81.1970  -47.7070  -30.2690 C.3   286  VAL286      0.0252
     35  CG1       80.7910  -47.4080  -31.6920 C.3   286  VAL286      0.0019
     36  CG2       82.6500  -48.0910  -30.1890 C.3   286  VAL286      0.0019
     37  N         78.3860  -49.2340  -27.1240 N.3   300  ALA300     -0.1245
     38  CA        79.3060  -50.3540  -26.7340 C.3   300  ALA300      0.1562
     39  C         80.6110  -49.8710  -26.1180 C.2   300  ALA300      0.2260
     40  O         81.3610  -49.1170  -26.7920 O.2   300  ALA300     -0.2867
     41  CB        79.6030  -51.3270  -27.9290 C.3   300  ALA300      0.0290
     42  N         83.5180  -51.5370  -25.6760 N.3   302  ASP302     -0.1239
     43  CA        83.9380  -52.8630  -26.1570 C.3   302  ASP302      0.1674
     44  C         85.0320  -53.5510  -25.3540 C.2   302  ASP302      0.2266
     45  O         85.0860  -54.7760  -25.2850 O.2   302  ASP302     -0.2867
     46  CB        84.4670  -52.7220  -27.5390 C.3   302  ASP302      0.1410
     47  CG        83.3770  -52.7410  -28.5480 C.2   302  ASP302      0.3668
     48  OD1       82.4480  -53.5350  -28.3510 O.co2 302  ASP302     -0.2456
     49  OD2       83.4800  -52.0340  -29.5440 O.co2 302  ASP302     -0.2456
     50  N         83.4240  -56.7540  -23.4200 N.3   306  TYR306     -0.1241
     51  CA        83.6550  -58.0430  -24.1510 C.3   306  TYR306      0.1605
     52  C         85.1240  -58.4370  -24.1500 C.2   306  TYR306      0.2264
     53  O         85.4990  -59.6000  -24.1200 O.2   306  TYR306     -0.2867
     54  CB        83.1700  -57.9210  -25.6030 C.3   306  TYR306      0.0534
     55  CG        81.7840  -57.3690  -25.7680 C.ar  306  TYR306     -0.0201
     56  CD1       80.6460  -58.2320  -25.8470 C.ar  306  TYR306     -0.0009
     57  CD2       81.5830  -55.9930  -25.9160 C.ar  306  TYR306     -0.0009
     58  CE1       79.3280  -57.6950  -26.0520 C.ar  306  TYR306      0.0417
     59  CE2       80.2830  -55.4530  -26.1630 C.ar  306  TYR306      0.0417
     60  CZ        79.1720  -56.3120  -26.2180 C.ar  306  TYR306      0.1957
     61  OH        77.9330  -55.7760  -26.3640 O.3   306  TYR306     -0.2866
     62  N         88.2510  -61.0350  -27.7610 N.3   311  MET311     -0.1245
     63  CA        87.7100  -60.7820  -29.1200 C.3   311  MET311      0.1570
     64  C         88.7250  -60.9700  -30.2530 C.2   311  MET311      0.2261
     65  O         88.3870  -60.8560  -31.4530 O.2   311  MET311     -0.2867
     66  CB        87.1120  -59.3750  -29.2310 C.3   311  MET311      0.0387
     67  CG        85.7830  -59.1830  -28.5110 C.3   311  MET311      0.0595
     68  SD        85.0420  -57.6100  -28.9150 S.3   311  MET311     -0.1393
     69  CE        85.9210  -56.4500  -27.9820 C.3   311  MET311      0.0692
     70  N         87.6220  -58.7080  -33.2490 N.3   384  THR384     -0.1203
     71  CA        86.3670  -58.6750  -33.9510 C.3   384  THR384      0.1994
     72  C         85.2880  -58.5380  -32.8840 C.2   384  THR384      0.2618
     73  O         85.2150  -59.3280  -31.9170 O.2   384  THR384     -0.2717
     74  CB        86.1470  -59.9360  -34.7860 C.3   384  THR384      0.1784
     75  OG1       87.0970  -59.9900  -35.8640 O.3   384  THR384     -0.2211
     76  CG2       84.7430  -59.9610  -35.3610 C.3   384  THR384      0.0376
     77  N         84.4740  -57.5000  -33.0510 N.am  385  ALA385     -0.1965
     78  CA        83.4070  -57.2370  -32.1180 C.3   385  ALA385      0.1728
     79  C         82.0940  -57.3460  -32.8870 C.2   385  ALA385      0.2616
     80  O         81.6150  -56.3750  -33.4260 O.2   385  ALA385     -0.2715
     81  CB        83.5540  -55.8420  -31.5060 C.3   385  ALA385      0.0334
     82  N         81.5430  -58.5500  -32.9580 N.am  386  ALA386     -0.1963
     83  CA        80.4130  -58.8450  -33.8550 C.3   386  ALA386      0.1728
     84  C         80.6660  -58.3410  -35.2430 C.2   386  ALA386      0.2616
     85  O         81.3520  -58.9790  -35.9850 O.2   386  ALA386     -0.2715
     86  CB        79.1240  -58.3180  -33.3270 C.3   386  ALA386      0.0334
     87  N         80.1180  -57.1870  -35.5760 N.am  387  ASN387     -0.1972
     88  CA        80.2350  -56.6350  -36.9420 C.3   387  ASN387      0.1688
     89  C         81.5610  -55.8910  -37.1920 C.2   387  ASN387      0.2292
     90  O         82.0260  -55.8180  -38.3450 O.2   387  ASN387     -0.2864
     91  CB        79.0210  -55.7000  -37.2640 C.3   387  ASN387      0.1181
     92  CG        78.8280  -54.6000  -36.2130 C.2   387  ASN387      0.2629
     93  OD1       78.4540  -54.8740  -35.0390 O.2   387  ASN387     -0.2716
     94  ND2       79.1550  -53.3530  -36.5970 N.am  387  ASN387     -0.0877
@<TRIPOS>BOND
     1    90    89    2
     2    91    88    1
     3    91    92    1
     4    89    88    1
     5    88    87    1
     6    94    92   am
     7    92    93    2
     8    85    84    2
     9    75    74    1
    10    87    84   am
    11    76    74    1
    12    84    83    1
    13    74    71    1
    14    71    70    1
    15    71    72    1
    16    83    86    1
    17    83    82    1
    18    80    79    2
    19    77    72   am
    20    77    78    1
    21    82    79   am
    22    79    78    1
    23    72    73    2
    24    78    81    1
    25    35    34    1
    26    27    25   ar
    27    27    29   ar
    28    65    64    2
    29    24    25   ar
    30    24    22   ar
    31    25    23   ar
    32    29    28   ar
    33    15     9    1
    34    15    14    1
    35    22    21   ar
    36     9    10    1
    37    34    36    1
    38    34    31    1
    39    64    63    1
    40    49    47   ar
    41    33    32    2
    42    23    21   ar
    43    23    26   ar
    44    28    26   ar
    45    31    32    1
    46    31    30    1
    47    66    63    1
    48    66    67    1
    49    21    20    1
    50    14    13    1
    51    63    62    1
    52    68    67    1
    53    68    69    1
    54    10    13    1
    55    10    11    1
    56    47    48   ar
    57    47    46    1
    58     4     3    2
    59    16    11   am
    60    16    17    1
    61    11    12    2
    62    41    38    1
    63    20    17    1
    64     7     6    1
    65     3     2    1
    66     5     2    1
    67     5     6    1
    68    46    43    1
    69    17    18    1
    70    37    38    1
    71     2     1    1
    72     6     8    1
    73    40    39    2
    74    38    39    1
    75    61    60    1
    76    60    59   ar
    77    60    58   ar
    78    59    57   ar
    79    43    42    1
    80    43    44    1
    81    58    56   ar
    82    18    19    2
    83    57    55   ar
    84    56    55   ar
    85    55    54    1
    86    54    51    1
    87    44    45    2
    88    51    52    1
    89    51    50    1
    90    52    53    2
