@<TRIPOS>MOLECULE
tmp/4ev6E00.pdb
 118 111 0 0 0
SMALL
GASTEIGER

@<TRIPOS>ATOM
      1  N         -9.0140  -48.7280  -16.2700 N.3     9  LYS9       -0.1231
      2  CA       -10.2790  -48.5600  -17.0510 C.3     9  LYS9        0.1693
      3  C        -10.3760  -48.6500  -18.6420 C.2     9  LYS9        0.2592
      4  O         -9.4110  -48.9730  -19.3270 O.2     9  LYS9       -0.2718
      5  CB       -10.9600  -47.3020  -16.5570 C.3     9  LYS9        0.0285
      6  CG       -11.5730  -47.5090  -15.2190 C.3     9  LYS9        0.0035
      7  CD       -12.5210  -48.6890  -15.2530 C.3     9  LYS9        0.0206
      8  CE       -12.9120  -49.0950  -13.8530 C.3     9  LYS9        0.1093
      9  NZ       -11.6860  -49.3980  -13.0750 N.3     9  LYS9       -0.1314
     10  N        -11.5300  -48.2390  -19.1930 N.am   10  ASP10      -0.1974
     11  CA       -12.1170  -48.6090  -20.5210 C.3    10  ASP10       0.1709
     12  C        -11.3310  -48.3810  -21.8350 C.2    10  ASP10       0.2293
     13  O        -10.4530  -47.5250  -21.9100 O.2    10  ASP10      -0.2864
     14  CB       -13.5390  -47.9810  -20.6430 C.3    10  ASP10       0.1436
     15  CG       -13.8430  -47.3360  -22.0330 C.2    10  ASP10       0.3671
     16  OD1      -13.3290  -47.7960  -23.0850 O.co2  10  ASP10      -0.2456
     17  OD2      -14.6560  -46.3700  -22.0570 O.co2  10  ASP10      -0.2456
     18  N        -15.2930  -51.7850  -21.3380 N.3    15  GLU15      -0.1245
     19  CA       -14.3010  -51.6560  -20.2570 C.3    15  GLU15       0.1567
     20  C        -13.9770  -52.9390  -19.4930 C.2    15  GLU15       0.2260
     21  O        -14.8420  -53.5240  -18.8420 O.2    15  GLU15      -0.2867
     22  CB       -14.6890  -50.5750  -19.2380 C.3    15  GLU15       0.0388
     23  CG       -16.0540  -49.9480  -19.4280 C.3    15  GLU15       0.1160
     24  CD       -17.1820  -50.7610  -18.8370 C.2    15  GLU15       0.3649
     25  OE1      -17.1980  -51.9940  -19.0390 O.co2  15  GLU15      -0.2457
     26  OE2      -18.0590  -50.1590  -18.1740 O.co2  15  GLU15      -0.2457
     27  N        -10.3350  -44.4230  -23.3960 N.3    28  LEU28      -0.1245
     28  CA        -9.8440  -43.5670  -22.3140 C.3    28  LEU28       0.1561
     29  C         -9.6950  -44.3970  -21.0370 C.2    28  LEU28       0.2260
     30  O        -10.5760  -45.1980  -20.7240 O.2    28  LEU28      -0.2867
     31  CB       -10.7940  -42.3870  -22.0660 C.3    28  LEU28       0.0270
     32  CG       -11.9800  -42.6170  -21.1180 C.3    28  LEU28       0.0019
     33  CD1      -12.4240  -41.3230  -20.4830 C.3    28  LEU28       0.0001
     34  CD2      -13.1440  -43.2870  -21.8120 C.3    28  LEU28       0.0001
     35  N         -9.1250  -44.6420  -16.7200 N.3    30  TRP30      -0.1241
     36  CA        -9.1670  -43.9900  -15.4080 C.3    30  TRP30       0.1605
     37  C         -8.2910  -44.7310  -14.3920 C.2    30  TRP30       0.2264
     38  O         -8.6470  -45.8030  -13.9170 O.2    30  TRP30      -0.2867
     39  CB       -10.6140  -43.9130  -14.9030 C.3    30  TRP30       0.0550
     40  CG       -10.7660  -43.5080  -13.4720 C.ar   30  TRP30       0.0003
     41  CD1       -9.9010  -42.7680  -12.7470 C.ar   30  TRP30       0.0946
     42  CD2      -11.8500  -43.8290  -12.5960 C.ar   30  TRP30       0.0152
     43  NE1      -10.3710  -42.6010  -11.4740 N.ar   30  TRP30      -0.2442
     44  CE2      -11.5730  -43.2490  -11.3560 C.ar   30  TRP30       0.0810
     45  CE3      -13.0350  -44.5450  -12.7410 C.ar   30  TRP30       0.0012
     46  CZ2      -12.4270  -43.3560  -10.2680 C.ar   30  TRP30       0.0191
     47  CZ3      -13.8870  -44.6560  -11.6540 C.ar   30  TRP30       0.0001
     48  CH2      -13.5780  -44.0650  -10.4380 C.ar   30  TRP30       0.0015
     49  N        -18.1180  -45.1860   -7.0680 N.3   115  LEU115     -0.1245
     50  CA       -17.9930  -45.3490   -8.5130 C.3   115  LEU115      0.1561
     51  C        -17.3280  -46.6820   -8.8050 C.2   115  LEU115      0.2260
     52  O        -17.8160  -47.4910   -9.6190 O.2   115  LEU115     -0.2867
     53  CB       -17.1420  -44.2150   -9.0840 C.3   115  LEU115      0.0270
     54  CG       -17.7050  -43.2060  -10.0910 C.3   115  LEU115      0.0019
     55  CD1      -19.2210  -43.2750  -10.2340 C.3   115  LEU115      0.0001
     56  CD2      -17.2340  -41.8100   -9.7150 C.3   115  LEU115      0.0001
     57  N        -19.7060  -49.5110   -8.0760 N.3   118  LEU118     -0.1231
     58  CA       -20.8200  -49.4640   -9.0090 C.3   118  LEU118      0.1693
     59  C        -20.3910  -50.1510  -10.2760 C.2   118  LEU118      0.2591
     60  O        -21.1740  -50.8500  -10.9050 O.2   118  LEU118     -0.2718
     61  CB       -21.2260  -48.0260   -9.3470 C.3   118  LEU118      0.0284
     62  CG       -22.4210  -47.9960  -10.3090 C.3   118  LEU118      0.0019
     63  CD1      -23.7050  -48.3870   -9.5660 C.3   118  LEU118      0.0001
     64  CD2      -22.5760  -46.6540  -11.0390 C.3   118  LEU118      0.0001
     65  N        -19.1330  -49.9650  -10.6510 N.am  119  ILE119     -0.1980
     66  CA       -18.6730  -50.5780  -11.8900 C.3   119  ILE119      0.1595
     67  C        -18.7030  -52.1290  -11.8300 C.2   119  ILE119      0.2287
     68  O        -18.4210  -52.7900  -12.8280 O.2   119  ILE119     -0.2864
     69  CB       -17.3480  -49.9540  -12.3980 C.3   119  ILE119      0.0276
     70  CG1      -17.5210  -48.4410  -12.5470 C.3   119  ILE119      0.0022
     71  CG2      -16.9680  -50.5110  -13.7410 C.3   119  ILE119      0.0022
     72  CD1      -16.3030  -47.7150  -13.0880 C.3   119  ILE119      0.0001
     73  N        -23.7250  -51.6300  -18.7940 N.3   126  ILE126     -0.1245
     74  CA       -23.7080  -50.1710  -18.8130 C.3   126  ILE126      0.1561
     75  C        -22.8160  -49.7380  -19.9680 C.2   126  ILE126      0.2260
     76  O        -21.9410  -50.4870  -20.4020 O.2   126  ILE126     -0.2867
     77  CB       -23.1390  -49.5830  -17.4950 C.3   126  ILE126      0.0252
     78  CG1      -23.6630  -48.1600  -17.2630 C.3   126  ILE126      0.0019
     79  CG2      -21.6040  -49.6330  -17.4830 C.3   126  ILE126      0.0019
     80  CD1      -23.2500  -47.5690  -15.9280 C.3   126  ILE126      0.0001
     81  N        -20.5770  -46.3300  -21.7480 N.3   128  PHE128     -0.1241
     82  CA       -20.0240  -44.9930  -21.6910 C.3   128  PHE128      0.1605
     83  C        -19.5600  -44.5750  -23.0820 C.2   128  PHE128      0.2264
     84  O        -18.5070  -45.0010  -23.5520 O.2   128  PHE128     -0.2867
     85  CB       -18.8160  -45.0450  -20.7590 C.3   128  PHE128      0.0534
     86  CG       -18.5500  -43.7750  -20.0380 C.ar  128  PHE128     -0.0203
     87  CD1      -19.4580  -43.2830  -19.1300 C.ar  128  PHE128     -0.0042
     88  CD2      -17.3740  -43.0820  -20.2520 C.ar  128  PHE128     -0.0042
     89  CE1      -19.2070  -42.1170  -18.4610 C.ar  128  PHE128     -0.0003
     90  CE2      -17.1170  -41.9190  -19.5860 C.ar  128  PHE128     -0.0003
     91  CZ       -18.0330  -41.4340  -18.6880 C.ar  128  PHE128     -0.0000
     92  N        -16.4290  -38.3240  -17.5860 N.3   135  LEU135     -0.1245
     93  CA       -15.8890  -39.0620  -16.4350 C.3   135  LEU135      0.1561
     94  C        -15.6240  -38.0640  -15.3130 C.2   135  LEU135      0.2260
     95  O        -16.1190  -38.2100  -14.1790 O.2   135  LEU135     -0.2867
     96  CB       -14.5880  -39.7930  -16.8120 C.3   135  LEU135      0.0270
     97  CG       -13.9570  -40.8340  -15.8590 C.3   135  LEU135      0.0019
     98  CD1      -14.9250  -41.9970  -15.5960 C.3   135  LEU135      0.0001
     99  CD2      -12.5790  -41.3630  -16.3500 C.3   135  LEU135      0.0001
    100  N        -18.5140  -37.2200  -13.6150 N.3   138  HIS138     -0.1241
    101  CA       -19.0860  -38.2380  -12.7360 C.3   138  HIS138      0.1621
    102  C        -18.3960  -38.3450  -11.3860 C.2   138  HIS138      0.2264
    103  O        -19.0500  -38.4760  -10.3490 O.2   138  HIS138     -0.2867
    104  CB       -19.1130  -39.5900  -13.4260 C.3   138  HIS138      0.0745
    105  CG       -20.4330  -39.9180  -14.0460 C.ar  138  HIS138      0.0817
    106  ND1      -21.5940  -40.0290  -13.3080 N.ar  138  HIS138     -0.2268
    107  CD2      -20.7770  -40.1660  -15.3330 C.ar  138  HIS138      0.1154
    108  CE1      -22.5940  -40.3260  -14.1140 C.ar  138  HIS138      0.1986
    109  NE2      -22.1260  -40.4160  -15.3490 N.ar  138  HIS138     -0.2212
    110  N        -20.2300  -37.3420   -7.9480 N.3   142  GLU142     -0.1245
    111  CA       -20.2400  -38.3040   -6.8340 C.3   142  GLU142      0.1567
    112  C        -19.7680  -37.6930   -5.5110 C.2   142  GLU142      0.2260
    113  O        -20.4080  -37.8560   -4.4610 O.2   142  GLU142     -0.2867
    114  CB       -19.4410  -39.5570   -7.1840 C.3   142  GLU142      0.0388
    115  CG       -20.1070  -40.4560   -8.2160 C.3   142  GLU142      0.1160
    116  CD       -21.5100  -40.8590   -7.8130 C.2   142  GLU142      0.3649
    117  OE1      -21.8330  -40.7520   -6.6090 O.co2 142  GLU142     -0.2457
    118  OE2      -22.2960  -41.2730   -8.6950 O.co2 142  GLU142     -0.2457
@<TRIPOS>BOND
     1    84    83    2
     2    27    28    1
     3    16    15   ar
     4    83    82    1
     5    28    31    1
     6    28    29    1
     7    31    32    1
     8    17    15   ar
     9    15    14    1
    10    13    12    2
    11    12    11    1
    12    34    32    1
    13    81    82    1
    14    82    85    1
    15    18    19    1
    16    32    33    1
    17    29    30    2
    18    85    86    1
    19    14    11    1
    20    11    10    1
    21    76    75    2
    22    19    20    1
    23    19    22    1
    24    88    86   ar
    25    88    90   ar
    26    86    87   ar
    27    75    74    1
    28    90    91   ar
    29    20    21    2
    30    23    22    1
    31    23    24    1
    32     4     3    2
    33    10     3   am
    34    87    89   ar
    35    25    24   ar
    36    24    26   ar
    37    74    73    1
    38    74    77    1
    39    91    89   ar
    40     3     2    1
    41    92    93    1
    42    77    79    1
    43    77    78    1
    44    78    80    1
    45     2     5    1
    46     2     1    1
    47    96    93    1
    48    96    97    1
    49    35    36    1
    50     5     6    1
    51    93    94    1
    52    99    97    1
    53    97    98    1
    54    36    39    1
    55    36    37    1
    56   109   107   ar
    57   109   108   ar
    58   107   105   ar
    59    94    95    2
    60     7     6    1
    61     7     8    1
    62    39    40    1
    63    37    38    2
    64   108   106   ar
    65   105   104    1
    66   105   106   ar
    67     8     9    1
    68    71    69    1
    69   100   101    1
    70    40    41   ar
    71    40    42   ar
    72   104   101    1
    73    72    70    1
    74    68    67    2
    75    41    43   ar
    76    45    42   ar
    77    45    47   ar
    78   101   102    1
    79    42    44   ar
    80    70    69    1
    81    69    66    1
    82    66    67    1
    83    66    65    1
    84    47    48   ar
    85    43    44   ar
    86   102   103    2
    87    44    46   ar
    88    64    62    1
    89    60    59    2
    90    65    59   am
    91    48    46   ar
    92    62    63    1
    93    62    61    1
    94    59    58    1
    95    55    54    1
    96    54    56    1
    97    54    53    1
    98    52    51    2
    99    61    58    1
   100    53    50    1
   101    58    57    1
   102    51    50    1
   103   118   116   ar
   104    50    49    1
   105   115   116    1
   106   115   114    1
   107   110   111    1
   108   116   117   ar
   109   114   111    1
   110   111   112    1
   111   112   113    2
