@<TRIPOS>MOLECULE
tmp/4ev6A00.pdb
 151 139 0 0 0
SMALL
GASTEIGER

@<TRIPOS>ATOM
      1  N          6.1210  -12.6580   13.0680 N.3    83  GLU83      -0.1231
      2  CA         5.6730  -12.8850   14.4540 C.3    83  GLU83       0.1699
      3  C          4.4000  -12.1240   14.8590 C.2    83  GLU83       0.2592
      4  O          4.4570  -11.1720   15.6370 O.2    83  GLU83      -0.2718
      5  CB         6.8100  -12.5960   15.4500 C.3    83  GLU83       0.0402
      6  CG         7.0490  -13.6910   16.4950 C.3    83  GLU83       0.1161
      7  CD         6.2220  -13.5130   17.7600 C.2    83  GLU83       0.3649
      8  OE1        5.7300  -12.3930   18.0110 O.co2  83  GLU83      -0.2457
      9  OE2        6.0690  -14.5010   18.5070 O.co2  83  GLU83      -0.2457
     10  N          3.2620  -12.5480   14.3180 N.am   84  ASP84      -0.1974
     11  CA         1.9580  -11.9460   14.6190 C.3    84  ASP84       0.1709
     12  C          1.8930  -10.4620   14.2600 C.2    84  ASP84       0.2293
     13  O          1.0120   -9.7360   14.7240 O.2    84  ASP84      -0.2864
     14  CB         1.5850  -12.1510   16.0960 C.3    84  ASP84       0.1436
     15  CG         0.1460  -11.7350   16.4080 C.2    84  ASP84       0.3671
     16  OD1       -0.7040  -11.7680   15.4890 O.co2  84  ASP84      -0.2456
     17  OD2       -0.1330  -11.3780   17.5750 O.co2  84  ASP84      -0.2456
     18  N          1.1490   -9.0050   10.8600 N.3    86  THR86      -0.1218
     19  CA         0.8050   -9.5300    9.5530 C.3    86  THR86       0.1862
     20  C          0.1020   -8.4470    8.7360 C.2    86  THR86       0.2287
     21  O         -0.9990   -8.0140    9.0690 O.2    86  THR86      -0.2866
     22  CB        -0.0460  -10.8060    9.7050 C.3    86  THR86       0.1770
     23  OG1        0.3090  -11.4640   10.9290 O.3    86  THR86      -0.2211
     24  CG2        0.1870  -11.7600    8.5440 C.3    86  THR86       0.0375
     25  N         -2.1850  -15.2240    0.4080 N.3   145  TYR145     -0.1241
     26  CA        -3.3050  -14.9820    1.3020 C.3   145  TYR145      0.1605
     27  C         -3.9660  -16.3050    1.7000 C.2   145  TYR145      0.2264
     28  O         -4.3900  -16.4840    2.8410 O.2   145  TYR145     -0.2867
     29  CB        -4.3140  -14.0180    0.6990 C.3   145  TYR145      0.0534
     30  CG        -3.8770  -12.5680    0.7350 C.ar  145  TYR145     -0.0201
     31  CD1       -3.1330  -12.0290   -0.3000 C.ar  145  TYR145     -0.0009
     32  CD2       -4.2280  -11.7370    1.7940 C.ar  145  TYR145     -0.0009
     33  CE1       -2.7550  -10.7140   -0.2870 C.ar  145  TYR145      0.0417
     34  CE2       -3.8560  -10.4200    1.8190 C.ar  145  TYR145      0.0417
     35  CZ        -3.1140   -9.9120    0.7770 C.ar  145  TYR145      0.1957
     36  OH        -2.7230   -8.5930    0.7720 O.3   145  TYR145     -0.2866
     37  N         -1.7300  -18.0690    4.5240 N.3   148  ILE148     -0.1231
     38  CA        -1.9910  -17.3470    5.7610 C.3   148  ILE148      0.1692
     39  C         -3.3430  -17.7010    6.3640 C.2   148  ILE148      0.2591
     40  O         -3.4480  -17.9820    7.5520 O.2   148  ILE148     -0.2718
     41  CB        -2.0130  -15.8670    5.5410 C.3   148  ILE148      0.0266
     42  CG1       -0.6070  -15.3760    5.3140 C.3   148  ILE148      0.0019
     43  CG2       -2.5720  -15.1780    6.7440 C.3   148  ILE148      0.0020
     44  CD1       -0.5140  -13.9070    5.4170 C.3   148  ILE148      0.0001
     45  N         -4.3860  -17.6660    5.5520 N.am  149  LEU149     -0.1980
     46  CA        -5.7110  -17.9680    6.0500 C.3   149  LEU149      0.1596
     47  C         -5.7220  -19.3370    6.7300 C.2   149  LEU149      0.2287
     48  O         -6.3320  -19.4960    7.7960 O.2   149  LEU149     -0.2864
     49  CB        -6.7230  -17.9030    4.9030 C.3   149  LEU149      0.0297
     50  CG        -8.2350  -17.7200    5.1220 C.3   149  LEU149      0.0022
     51  CD1       -9.0070  -18.8590    4.4460 C.3   149  LEU149      0.0001
     52  CD2       -8.6420  -17.5460    6.5900 C.3   149  LEU149      0.0001
     53  N         -3.2330  -20.7820    8.2840 N.3   151  ASN151     -0.1225
     54  CA        -2.6630  -20.4800    9.5860 C.3   151  ASN151      0.1785
     55  C         -3.7170  -19.9820   10.5590 C.2   151  ASN151      0.2597
     56  O         -3.8480  -20.4860   11.6710 O.2   151  ASN151     -0.2718
     57  CB        -1.6000  -19.4090    9.4460 C.3   151  ASN151      0.1169
     58  CG        -0.3950  -19.8940    8.6970 C.2   151  ASN151      0.2627
     59  OD1       -0.0780  -21.0850    8.7270 O.2   151  ASN151     -0.2716
     60  ND2        0.2940  -18.9790    8.0170 N.am  151  ASN151     -0.0877
     61  N         -4.4790  -18.9810   10.1560 N.am  152  LEU152     -0.1980
     62  CA        -5.5060  -18.4980   11.0550 C.3   152  LEU152      0.1596
     63  C         -6.3650  -19.6700   11.4860 C.2   152  LEU152      0.2287
     64  O         -6.7260  -19.7850   12.6570 O.2   152  LEU152     -0.2864
     65  CB        -6.3730  -17.4270   10.4010 C.3   152  LEU152      0.0297
     66  CG        -7.3350  -16.6780   11.3430 C.3   152  LEU152      0.0022
     67  CD1       -8.0770  -15.5780   10.6110 C.3   152  LEU152      0.0001
     68  CD2       -8.3410  -17.5860   12.0530 C.3   152  LEU152      0.0001
     69  N         -4.9470  -21.4450   14.2260 N.3   155  GLU155     -0.1245
     70  CA        -5.0870  -20.6320   15.4230 C.3   155  GLU155      0.1567
     71  C         -6.4430  -20.8920   16.0590 C.2   155  GLU155      0.2260
     72  O         -6.5460  -21.2270   17.2420 O.2   155  GLU155     -0.2867
     73  CB        -4.9750  -19.1640   15.0600 C.3   155  GLU155      0.0388
     74  CG        -4.1720  -18.3800   16.0480 C.3   155  GLU155      0.1160
     75  CD        -2.7320  -18.8170   16.0560 C.2   155  GLU155      0.3649
     76  OE1       -2.0880  -18.7320   17.1220 O.co2 155  GLU155     -0.2457
     77  OE2       -2.2490  -19.2450   14.9870 O.co2 155  GLU155     -0.2457
     78  N         -6.5360  -24.2270   17.8920 N.3   158  GLU158     -0.1245
     79  CA        -6.0670  -24.1600   19.2750 C.3   158  GLU158      0.1567
     80  C         -7.1680  -23.5820   20.1500 C.2   158  GLU158      0.2260
     81  O         -7.7440  -24.3020   20.9640 O.2   158  GLU158     -0.2867
     82  CB        -4.7790  -23.3430   19.3950 C.3   158  GLU158      0.0388
     83  CG        -3.6070  -23.9440   18.6130 C.3   158  GLU158      0.1160
     84  CD        -2.4320  -22.9790   18.4460 C.2   158  GLU158      0.3649
     85  OE1       -2.1910  -22.1580   19.3630 O.co2 158  GLU158     -0.2457
     86  OE2       -1.7500  -23.0420   17.3940 O.co2 158  GLU158     -0.2457
     87  N         -5.9870  -13.2050   22.8770 N.3   174  LYS174     -0.1245
     88  CA        -5.6400  -13.8950   21.6260 C.3   174  LYS174      0.1561
     89  C         -6.7760  -13.8230   20.5870 C.2   174  LYS174      0.2260
     90  O         -6.5480  -13.5140   19.4140 O.2   174  LYS174     -0.2867
     91  CB        -5.2360  -15.3520   21.8890 C.3   174  LYS174      0.0271
     92  CG        -4.7280  -16.0680   20.6530 C.3   174  LYS174      0.0035
     93  CD        -3.6670  -15.2130   19.9550 C.3   174  LYS174      0.0206
     94  CE        -3.3870  -15.6840   18.5270 C.3   174  LYS174      0.1093
     95  NZ        -2.6590  -14.6460   17.7350 N.3   174  LYS174     -0.1314
     96  N         -6.6710  -11.9030   16.9250 N.3   178  LEU178     -0.1245
     97  CA        -7.1740  -12.5170   15.7090 C.3   178  LEU178      0.1561
     98  C         -8.2030  -11.6360   15.0000 C.2   178  LEU178      0.2260
     99  O         -8.0220  -11.3160   13.8350 O.2   178  LEU178     -0.2867
    100  CB        -7.7410  -13.8980   16.0010 C.3   178  LEU178      0.0270
    101  CG        -6.6300  -14.9330   16.1410 C.3   178  LEU178      0.0019
    102  CD1       -7.2000  -16.3200   16.3510 C.3   178  LEU178      0.0001
    103  CD2       -5.7520  -14.9040   14.9130 C.3   178  LEU178      0.0001
    104  N         -6.2940   -8.6060   13.2760 N.3   181  THR181     -0.1203
    105  CA        -5.5480   -8.9830   12.0800 C.3   181  THR181      0.1994
    106  C         -6.5470   -9.2810   10.9600 C.2   181  THR181      0.2617
    107  O         -6.4520   -8.7350    9.8520 O.2   181  THR181     -0.2717
    108  CB        -4.5920  -10.1640   12.3440 C.3   181  THR181      0.1784
    109  OG1       -5.2040  -11.0690   13.2670 O.3   181  THR181     -0.2211
    110  CG2       -3.2730   -9.6640   12.9470 C.3   181  THR181      0.0376
    111  N         -7.5390  -10.0980   11.2940 N.am  182  LEU182     -0.1979
    112  CA        -8.5740  -10.4910   10.3640 C.3   182  LEU182      0.1596
    113  C         -9.1020   -9.2880    9.6230 C.2   182  LEU182      0.2287
    114  O         -9.2140   -9.3320    8.4030 O.2   182  LEU182     -0.2864
    115  CB        -9.7170  -11.1920   11.0970 C.3   182  LEU182      0.0297
    116  CG       -10.3660  -12.3590   10.3420 C.3   182  LEU182      0.0022
    117  CD1       -9.3090  -13.1540    9.5990 C.3   182  LEU182      0.0001
    118  CD2      -11.1780  -13.2680   11.2520 C.3   182  LEU182      0.0001
    119  N         -6.5990   -7.7070    7.1220 N.3   185  PHE185     -0.1241
    120  CA        -6.5440   -8.5210    5.9350 C.3   185  PHE185      0.1605
    121  C         -7.7800   -8.3250    5.0950 C.2   185  PHE185      0.2264
    122  O         -7.6910   -8.2500    3.8860 O.2   185  PHE185     -0.2867
    123  CB        -6.2940   -9.9820    6.2890 C.3   185  PHE185      0.0534
    124  CG        -4.8510  -10.2870    6.4720 C.ar  185  PHE185     -0.0203
    125  CD1       -4.2110   -9.9610    7.6480 C.ar  185  PHE185     -0.0042
    126  CD2       -4.1170  -10.8410    5.4460 C.ar  185  PHE185     -0.0042
    127  CE1       -2.8720  -10.2140    7.8060 C.ar  185  PHE185     -0.0003
    128  CE2       -2.7810  -11.0940    5.5970 C.ar  185  PHE185     -0.0003
    129  CZ        -2.1520  -10.7780    6.7740 C.ar  185  PHE185     -0.0000
    130  N         -7.9310   -7.2430    1.2400 N.3   189  LEU189     -0.1245
    131  CA        -8.5610   -8.1050    0.2490 C.3   189  LEU189      0.1561
    132  C         -9.4950   -7.2890   -0.5970 C.2   189  LEU189      0.2260
    133  O         -9.4090   -7.3310   -1.8060 O.2   189  LEU189     -0.2867
    134  CB        -9.3080   -9.2660    0.8920 C.3   189  LEU189      0.0270
    135  CG        -8.4060  -10.2850    1.5940 C.3   189  LEU189      0.0019
    136  CD1       -9.2680  -11.2880    2.3250 C.3   189  LEU189      0.0001
    137  CD2       -7.4250  -10.9610    0.6210 C.3   189  LEU189      0.0001
    138  N        -11.4810  -15.6140   -0.6810 N.3   225  LEU225     -0.1245
    139  CA       -10.6660  -15.0780    0.4100 C.3   225  LEU225      0.1561
    140  C        -11.4190  -14.0840    1.2840 C.2   225  LEU225      0.2260
    141  O        -11.4050  -14.1640    2.5130 O.2   225  LEU225     -0.2867
    142  CB        -9.4450  -14.4070   -0.1720 C.3   225  LEU225      0.0270
    143  CG        -8.3800  -15.4440   -0.4770 C.3   225  LEU225      0.0019
    144  CD1       -7.1650  -14.7590   -1.0430 C.3   225  LEU225      0.0001
    145  CD2       -8.0250  -16.2390    0.7920 C.3   225  LEU225      0.0001
    146  N        -12.4860  -14.8090    5.2190 N.3   229  SER229     -0.1217
    147  CA       -12.0840  -13.8340    6.2330 C.3   229  SER229      0.1889
    148  C        -13.2980  -13.3250    7.0280 C.2   229  SER229      0.2288
    149  O        -13.2850  -13.3210    8.2540 O.2   229  SER229     -0.2866
    150  CB       -11.3680  -12.6550    5.6040 C.3   229  SER229      0.2089
    151  OG       -12.0840  -11.4670    5.8940 O.3   229  SER229     -0.2183
@<TRIPOS>BOND
     1   133   132    2
     2   144   143    1
     3   138   139    1
     4   132   131    1
     5   143   142    1
     6   143   145    1
     7    31    33   ar
     8    31    30   ar
     9    33    35   ar
    10   142   139    1
    11   131   134    1
    12   131   130    1
    13    25    26    1
    14   139   140    1
    15   137   135    1
    16    29    30    1
    17    29    26    1
    18    30    32   ar
    19    36    35    1
    20    35    34   ar
    21   134   135    1
    22   140   141    2
    23    26    27    1
    24   135   136    1
    25    27    28    2
    26    32    34   ar
    27   122   121    2
    28    51    50    1
    29    37    38    1
    30    49    50    1
    31    49    46    1
    32   121   120    1
    33    50    52    1
    34   146   147    1
    35    42    44    1
    36    42    41    1
    37   126   128   ar
    38   126   124   ar
    39    41    38    1
    40    41    43    1
    41    45    46    1
    42    45    39   am
    43   128   129   ar
    44   150   151    1
    45   150   147    1
    46    38    39    1
    47   120   123    1
    48   120   119    1
    49    46    47    1
    50   147   148    1
    51   123   124    1
    52    39    40    2
    53   124   125   ar
    54    47    48    2
    55   129   127   ar
    56   148   149    2
    57   125   127   ar
    58    60    58   am
    59    53    54    1
    60   114   113    2
    61    24    22    1
    62    58    59    2
    63    58    57    1
    64    20    21    2
    65    20    19    1
    66    57    54    1
    67    19    22    1
    68    19    18    1
    69    54    55    1
    70   117   116    1
    71   113   112    1
    72    22    23    1
    73   107   106    2
    74    61    55   am
    75    61    62    1
    76   116   115    1
    77   116   118    1
    78   112   115    1
    79   112   111    1
    80    65    62    1
    81    65    66    1
    82    55    56    2
    83    67    66    1
    84   106   111   am
    85   106   105    1
    86    62    63    1
    87    66    68    1
    88    63    64    2
    89   105   108    1
    90   105   104    1
    91   108   110    1
    92   108   109    1
    93     1     2    1
    94    99    98    2
    95    69    70    1
    96    12    11    1
    97    12    13    2
    98    10    11    1
    99    10     3   am
   100     2     3    1
   101     2     5    1
   102    11    14    1
   103     3     4    2
   104   103   101    1
   105    77    75   ar
   106    98    97    1
   107    73    70    1
   108    73    74    1
   109    70    71    1
   110     5     6    1
   111    16    15   ar
   112    97   100    1
   113    97    96    1
   114   100   101    1
   115    74    75    1
   116    75    76   ar
   117    71    72    2
   118    14    15    1
   119   101   102    1
   120    15    17   ar
   121     6     7    1
   122    86    84   ar
   123    95    94    1
   124     7     8   ar
   125     7     9   ar
   126    78    79    1
   127    84    83    1
   128    84    85   ar
   129    94    93    1
   130    83    82    1
   131    79    82    1
   132    79    80    1
   133    90    89    2
   134    93    92    1
   135    80    81    2
   136    89    88    1
   137    92    91    1
   138    88    91    1
   139    88    87    1
