@<TRIPOS>MOLECULE
tmp/4eviA00.pdb
 202 199 0 0 0
SMALL
GASTEIGER

@<TRIPOS>ATOM
      1  N        -20.3440  -10.7970   47.1160 N.3   154  TYR154     -0.1241
      2  CA       -21.2700  -11.6040   47.9120 C.3   154  TYR154      0.1605
      3  C        -22.5640  -10.8480   48.1360 C.2   154  TYR154      0.2264
      4  O        -23.5850  -11.4380   48.4830 O.2   154  TYR154     -0.2867
      5  CB       -20.6490  -12.0680   49.2380 C.3   154  TYR154      0.0534
      6  CG       -19.5630  -13.1030   49.0350 C.ar  154  TYR154     -0.0201
      7  CD1      -19.8550  -14.3260   48.4400 C.ar  154  TYR154     -0.0009
      8  CD2      -18.2480  -12.8490   49.4110 C.ar  154  TYR154     -0.0009
      9  CE1      -18.8730  -15.2730   48.2300 C.ar  154  TYR154      0.0417
     10  CE2      -17.2510  -13.7960   49.2080 C.ar  154  TYR154      0.0417
     11  CZ       -17.5770  -15.0090   48.6180 C.ar  154  TYR154      0.1957
     12  OH       -16.6050  -15.9620   48.4020 O.3   154  TYR154     -0.2866
     13  N        -21.6190  -19.4730   40.7630 N.3   167  PHE167     -0.1227
     14  CA       -20.5140  -19.4260   41.7190 C.3   167  PHE167      0.1736
     15  C        -20.5890  -20.5580   42.7570 C.2   167  PHE167      0.2596
     16  O        -19.5940  -21.2280   43.0170 O.2   167  PHE167     -0.2718
     17  CB       -20.4590  -18.0440   42.3930 C.3   167  PHE167      0.0547
     18  CG       -19.1810  -17.7730   43.1470 C.ar  167  PHE167     -0.0202
     19  CD1      -18.0710  -18.5840   42.9880 C.ar  167  PHE167     -0.0042
     20  CD2      -19.0990  -16.7010   44.0250 C.ar  167  PHE167     -0.0042
     21  CE1      -16.9020  -18.3260   43.6840 C.ar  167  PHE167     -0.0003
     22  CE2      -17.9420  -16.4440   44.7240 C.ar  167  PHE167     -0.0003
     23  CZ       -16.8390  -17.2580   44.5530 C.ar  167  PHE167     -0.0000
     24  N        -21.7630  -20.7900   43.3410 N.am  168  SER168     -0.1952
     25  CA       -21.8910  -21.8610   44.3350 C.3   168  SER168      0.1924
     26  C        -21.8010  -23.2470   43.6950 C.2   168  SER168      0.2314
     27  O        -21.2100  -24.1530   44.2730 O.2   168  SER168     -0.2863
     28  CB       -23.1770  -21.7240   45.1690 C.3   168  SER168      0.2116
     29  OG       -24.3030  -21.5260   44.3400 O.3   168  SER168     -0.2180
     30  N        -18.1020  -23.7980   43.1220 N.3   171  MET171     -0.1230
     31  CA       -17.4510  -24.2150   44.3580 C.3   171  MET171      0.1702
     32  C        -17.7950  -25.6760   44.7080 C.2   171  MET171      0.2592
     33  O        -16.9320  -26.4440   45.1570 O.2   171  MET171     -0.2718
     34  CB       -17.8240  -23.2700   45.5170 C.3   171  MET171      0.0401
     35  CG       -17.3590  -21.8030   45.3380 C.3   171  MET171      0.0596
     36  SD       -15.5630  -21.6620   45.2500 S.3   171  MET171     -0.1393
     37  CE       -15.2850  -21.5600   43.4700 C.3   171  MET171      0.0692
     38  N        -19.0530  -26.0570   44.5020 N.am  172  ALA172     -0.1980
     39  CA       -19.5030  -27.4150   44.8090 C.3   172  ALA172      0.1597
     40  C        -18.7630  -28.4560   43.9730 C.2   172  ALA172      0.2287
     41  O        -18.4060  -29.5330   44.4550 O.2   172  ALA172     -0.2864
     42  CB       -21.0260  -27.5340   44.5720 C.3   172  ALA172      0.0319
     43  N        -15.3620  -28.8550   45.3990 N.3   175  SER175     -0.1217
     44  CA       -15.4410  -29.5030   46.7080 C.3   175  SER175      0.1889
     45  C        -15.6590  -31.0080   46.5830 C.2   175  SER175      0.2288
     46  O        -15.1500  -31.7840   47.3840 O.2   175  SER175     -0.2866
     47  CB       -16.5380  -28.8620   47.5520 C.3   175  SER175      0.2089
     48  OG       -16.0670  -27.6560   48.1110 O.3   175  SER175     -0.2183
     49  N        -17.7600  -26.3610   59.3410 N.3   198  ASP198     -0.1239
     50  CA       -17.2280  -26.0600   58.0170 C.3   198  ASP198      0.1674
     51  C        -17.6960  -24.6460   57.7120 C.2   198  ASP198      0.2266
     52  O        -18.8270  -24.4440   57.2610 O.2   198  ASP198     -0.2867
     53  CB       -17.8560  -27.0450   57.0340 C.3   198  ASP198      0.1410
     54  CG       -17.2080  -27.0360   55.6680 C.2   198  ASP198      0.3668
     55  OD1      -16.4580  -26.0890   55.3410 O.co2 198  ASP198     -0.2456
     56  OD2      -17.4830  -27.9930   54.9050 O.co2 198  ASP198     -0.2456
     57  N        -18.2810  -21.2910   55.9690 N.3   200  GLY200     -0.1210
     58  CA       -18.3760  -20.9800   54.5460 C.3   200  GLY200      0.1956
     59  C        -18.4170  -22.2560   53.7240 C.2   200  GLY200      0.2612
     60  O        -17.9370  -22.3100   52.5900 O.2   200  GLY200     -0.2717
     61  N        -18.9960  -23.3030   54.3000 N.am  201  GLY201     -0.1942
     62  CA       -18.9560  -24.6270   53.6980 C.3   201  GLY201      0.2014
     63  C        -19.8890  -24.8330   52.5130 C.2   201  GLY201      0.2639
     64  O        -19.9690  -25.9360   51.9720 O.2   201  GLY201     -0.2714
     65  N        -20.6050  -23.7840   52.1120 N.am  202  GLY202     -0.1954
     66  CA       -21.3980  -23.8460   50.8910 C.3   202  GLY202      0.1869
     67  C        -22.5060  -24.8810   50.9350 C.2   202  GLY202      0.2309
     68  O        -23.1810  -25.0210   51.9500 O.2   202  GLY202     -0.2863
     69  N        -18.0710  -30.7270   50.8420 N.3   206  THR206     -0.1218
     70  CA       -16.9010  -31.0210   51.6770 C.3   206  THR206      0.1862
     71  C        -17.3020  -31.8110   52.9290 C.2   206  THR206      0.2287
     72  O        -16.7920  -32.9090   53.1860 O.2   206  THR206     -0.2866
     73  CB       -16.1870  -29.7380   52.1140 C.3   206  THR206      0.1770
     74  OG1      -15.8900  -28.9470   50.9560 O.3   206  THR206     -0.2211
     75  CG2      -14.8760  -30.0760   52.8550 C.3   206  THR206      0.0375
     76  N        -21.6570  -23.8230   58.1320 N.3   222  PHE222     -0.1227
     77  CA       -22.0910  -22.4900   58.5230 C.3   222  PHE222      0.1736
     78  C        -21.8980  -21.6020   57.3160 C.2   222  PHE222      0.2595
     79  O        -20.7660  -21.4380   56.8430 O.2   222  PHE222     -0.2718
     80  CB       -21.2300  -21.9880   59.6920 C.3   222  PHE222      0.0547
     81  CG       -21.7130  -20.7080   60.3000 C.ar  222  PHE222     -0.0202
     82  CD1      -22.7880  -20.7040   61.1750 C.ar  222  PHE222     -0.0042
     83  CD2      -21.0960  -19.5050   59.9970 C.ar  222  PHE222     -0.0042
     84  CE1      -23.2350  -19.5270   61.7470 C.ar  222  PHE222     -0.0003
     85  CE2      -21.5410  -18.3170   60.5660 C.ar  222  PHE222     -0.0003
     86  CZ       -22.6140  -18.3330   61.4410 C.ar  222  PHE222     -0.0000
     87  N        -22.9880  -21.0440   56.7910 N.am  223  ASP223     -0.1960
     88  CA       -22.8850  -20.1730   55.6240 C.3   223  ASP223      0.1840
     89  C        -24.0500  -19.1720   55.6310 C.2   223  ASP223      0.2621
     90  O        -24.8660  -19.1640   56.5400 O.2   223  ASP223     -0.2715
     91  CB       -22.8750  -21.0180   54.3270 C.3   223  ASP223      0.1450
     92  CG       -22.0000  -20.4220   53.2190 C.2   223  ASP223      0.3671
     93  OD1      -22.2810  -19.2970   52.7750 O.co2 223  ASP223     -0.2456
     94  OD2      -21.0570  -21.1030   52.7450 O.co2 223  ASP223     -0.2456
     95  N        -24.1110  -18.3260   54.6120 N.am  224  LEU224     -0.1977
     96  CA       -25.1410  -17.3030   54.5190 C.3   224  LEU224      0.1596
     97  C        -26.4780  -17.9360   54.1630 C.2   224  LEU224      0.2287
     98  O        -26.5180  -18.9320   53.4470 O.2   224  LEU224     -0.2864
     99  CB       -24.7550  -16.2860   53.4380 C.3   224  LEU224      0.0297
    100  CG       -23.4520  -15.5260   53.6940 C.3   224  LEU224      0.0022
    101  CD1      -22.9080  -14.8870   52.4080 C.3   224  LEU224      0.0001
    102  CD2      -23.6630  -14.4890   54.7850 C.3   224  LEU224      0.0001
    103  N        -28.7990  -17.2910   51.9950 N.3   226  HIS226     -0.1226
    104  CA       -29.1200  -17.5070   50.5820 C.3   226  HIS226      0.1752
    105  C        -28.3430  -18.6760   49.9680 C.2   226  HIS226      0.2595
    106  O        -28.5970  -19.0680   48.8320 O.2   226  HIS226     -0.2718
    107  CB       -28.9120  -16.2320   49.7550 C.3   226  HIS226      0.0759
    108  CG       -27.4870  -15.9740   49.3760 C.ar  226  HIS226      0.0818
    109  ND1      -26.6770  -15.1020   50.0720 N.ar  226  HIS226     -0.2268
    110  CD2      -26.7320  -16.4580   48.3600 C.ar  226  HIS226      0.1154
    111  CE1      -25.4830  -15.0660   49.5070 C.ar  226  HIS226      0.1986
    112  NE2      -25.4880  -15.8830   48.4690 N.ar  226  HIS226     -0.2212
    113  N        -27.4010  -19.2310   50.7220 N.am  227  VAL227     -0.1980
    114  CA       -26.5900  -20.3360   50.2350 C.3   227  VAL227      0.1595
    115  C        -27.1180  -21.6850   50.7200 C.2   227  VAL227      0.2287
    116  O        -26.9880  -22.6890   50.0200 O.2   227  VAL227     -0.2864
    117  CB       -25.1020  -20.1620   50.6510 C.3   227  VAL227      0.0276
    118  CG1      -24.2980  -21.4270   50.3840 C.3   227  VAL227      0.0022
    119  CG2      -24.4950  -18.9660   49.9290 C.3   227  VAL227      0.0022
    120  N        -25.6760  -17.7780   58.8890 N.3   243  GLY243     -0.1210
    121  CA       -25.2770  -16.5710   59.5750 C.3   243  GLY243      0.1956
    122  C        -24.1080  -15.9300   58.8670 C.2   243  GLY243      0.2612
    123  O        -23.7300  -16.3250   57.7560 O.2   243  GLY243     -0.2717
    124  N        -23.5280  -14.9450   59.5330 N.am  244  ASN244     -0.1960
    125  CA       -22.4060  -14.1900   58.9970 C.3   244  ASN244      0.1819
    126  C        -21.2190  -14.4220   59.9240 C.2   244  ASN244      0.2621
    127  O        -21.2540  -14.0430   61.0970 O.2   244  ASN244     -0.2715
    128  CB       -22.7910  -12.7070   58.9300 C.3   244  ASN244      0.1195
    129  CG       -21.6900  -11.8280   58.3410 C.2   244  ASN244      0.2630
    130  OD1      -20.5000  -12.1300   58.4430 O.2   244  ASN244     -0.2716
    131  ND2      -22.0940  -10.7130   57.7420 N.am  244  ASN244     -0.0877
    132  N        -20.1810  -15.0670   59.4050 N.am  245  MET245     -0.1963
    133  CA       -19.0270  -15.4620   60.2120 C.3   245  MET245      0.1736
    134  C        -18.2850  -14.2990   60.8680 C.2   245  MET245      0.2616
    135  O        -17.5100  -14.5050   61.7980 O.2   245  MET245     -0.2715
    136  CB       -18.0460  -16.2780   59.3750 C.3   245  MET245      0.0427
    137  CG       -17.3310  -15.4950   58.2850 C.3   245  MET245      0.0599
    138  SD       -16.3610  -16.6050   57.2120 S.3   245  MET245     -0.1393
    139  CE       -16.0530  -15.5540   55.7960 C.3   245  MET245      0.0692
    140  N        -18.5070  -13.0850   60.3800 N.am  246  PHE246     -0.1974
    141  CA       -17.8060  -11.9240   60.9120 C.3   246  PHE246      0.1639
    142  C        -18.6060  -11.2990   62.0480 C.2   246  PHE246      0.2290
    143  O        -18.0380  -10.6720   62.9340 O.2   246  PHE246     -0.2864
    144  CB       -17.5340  -10.8740   59.8210 C.3   246  PHE246      0.0560
    145  CG       -16.6230  -11.3540   58.7080 C.ar  246  PHE246     -0.0200
    146  CD1      -15.3130  -11.7300   58.9690 C.ar  246  PHE246     -0.0042
    147  CD2      -17.0750  -11.4040   57.3980 C.ar  246  PHE246     -0.0042
    148  CE1      -14.4740  -12.1620   57.9450 C.ar  246  PHE246     -0.0003
    149  CE2      -16.2380  -11.8280   56.3720 C.ar  246  PHE246     -0.0003
    150  CZ       -14.9400  -12.2120   56.6490 C.ar  246  PHE246     -0.0000
    151  N        -12.4120  -23.8650   54.0690 N.3   259  LYS259     -0.1231
    152  CA       -11.9510  -24.3120   52.7580 C.3   259  LYS259      0.1693
    153  C        -12.2110  -23.2400   51.6940 C.2   259  LYS259      0.2592
    154  O        -13.3590  -22.9280   51.3970 O.2   259  LYS259     -0.2718
    155  CB       -12.6170  -25.6310   52.3400 C.3   259  LYS259      0.0285
    156  CG       -12.0540  -26.1200   50.9810 C.3   259  LYS259      0.0035
    157  CD       -12.9140  -27.1430   50.2840 C.3   259  LYS259      0.0206
    158  CE       -12.4580  -27.3030   48.8180 C.3   259  LYS259      0.1093
    159  NZ       -13.1720  -26.3080   47.9390 N.3   259  LYS259     -0.1314
    160  N        -11.1450  -22.6750   51.1300 N.am  260  TRP260     -0.1962
    161  CA       -11.2930  -21.6130   50.1450 C.3   260  TRP260      0.1771
    162  C        -12.1210  -20.4530   50.6990 C.2   260  TRP260      0.2619
    163  O        -12.9140  -19.8740   49.9790 O.2   260  TRP260     -0.2715
    164  CB       -11.9450  -22.1460   48.8620 C.3   260  TRP260      0.0590
    165  CG       -11.0200  -22.2180   47.6800 C.ar  260  TRP260      0.0006
    166  CD1       -9.7180  -21.7960   47.6220 C.ar  260  TRP260      0.0946
    167  CD2      -11.3310  -22.7420   46.3760 C.ar  260  TRP260      0.0152
    168  NE1       -9.2010  -22.0320   46.3590 N.ar  260  TRP260     -0.2442
    169  CE2      -10.1700  -22.6160   45.5820 C.ar  260  TRP260      0.0810
    170  CE3      -12.4760  -23.3210   45.8110 C.ar  260  TRP260      0.0012
    171  CZ2      -10.1220  -23.0440   44.2520 C.ar  260  TRP260      0.0191
    172  CZ3      -12.4340  -23.7290   44.4830 C.ar  260  TRP260      0.0001
    173  CH2      -11.2590  -23.5910   43.7190 C.ar  260  TRP260      0.0015
    174  N        -11.9350  -20.1190   51.9720 N.am  261  VAL261     -0.1977
    175  CA       -12.6880  -19.0320   52.5900 C.3   261  VAL261      0.1596
    176  C        -11.7880  -17.8900   53.0900 C.2   261  VAL261      0.2287
    177  O        -12.0450  -16.7140   52.8190 O.2   261  VAL261     -0.2864
    178  CB       -13.5780  -19.5470   53.7550 C.3   261  VAL261      0.0276
    179  CG1      -14.0870  -18.3840   54.5940 C.3   261  VAL261      0.0022
    180  CG2      -14.7510  -20.3510   53.1980 C.3   261  VAL261      0.0022
    181  N        -10.5560  -15.2400   50.7050 N.3   264  ASP264     -0.1225
    182  CA       -11.4730  -14.2190   50.1890 C.3   264  ASP264      0.1805
    183  C        -11.3230  -12.8770   50.8930 C.2   264  ASP264      0.2597
    184  O        -11.8640  -11.8700   50.4330 O.2   264  ASP264     -0.2718
    185  CB       -12.9370  -14.6440   50.3750 C.3   264  ASP264      0.1424
    186  CG       -13.3170  -15.8240   49.5280 C.2   264  ASP264      0.3668
    187  OD1      -12.4770  -16.2980   48.7320 O.co2 264  ASP264     -0.2456
    188  OD2      -14.4770  -16.2710   49.6590 O.co2 264  ASP264     -0.2456
    189  N        -10.6040  -12.8740   52.0140 N.am  265  TRP265     -0.1976
    190  CA       -10.6420  -11.7680   52.9620 C.3   265  TRP265      0.1640
    191  C         -9.2480  -11.2650   53.3480 C.2   265  TRP265      0.2290
    192  O         -8.2750  -12.0110   53.2780 O.2   265  TRP265     -0.2864
    193  CB       -11.4300  -12.2080   54.2070 C.3   265  TRP265      0.0576
    194  CG       -12.8210  -12.6600   53.8300 C.ar  265  TRP265      0.0006
    195  CD1      -13.2970  -13.9400   53.8160 C.ar  265  TRP265      0.0946
    196  CD2      -13.8880  -11.8310   53.3530 C.ar  265  TRP265      0.0152
    197  NE1      -14.5980  -13.9580   53.3760 N.ar  265  TRP265     -0.2442
    198  CE2      -14.9850  -12.6750   53.0860 C.ar  265  TRP265      0.0810
    199  CE3      -14.0240  -10.4550   53.1370 C.ar  265  TRP265      0.0012
    200  CZ2      -16.2080  -12.1880   52.6140 C.ar  265  TRP265      0.0191
    201  CZ3      -15.2430   -9.9700   52.6660 C.ar  265  TRP265      0.0001
    202  CH2      -16.3160  -10.8360   52.4110 C.ar  265  TRP265      0.0015
@<TRIPOS>BOND
     1    13    14    1
     2    14    17    1
     3    14    15    1
     4    17    18    1
     5    15    16    2
     6    15    24   am
     7    19    18   ar
     8    19    21   ar
     9    30    31    1
    10    18    20   ar
    11    24    25    1
    12    37    36    1
    13    21    23   ar
    14    26    27    2
    15    26    25    1
    16   173   171   ar
    17   173   172   ar
    18    40    41    2
    19    40    39    1
    20    20    22   ar
    21   171   169   ar
    22    25    28    1
    23    29    28    1
    24    31    32    1
    25    31    34    1
    26   172   170   ar
    27    38    32   am
    28    38    39    1
    29    23    22   ar
    30    42    39    1
    31    32    33    2
    32    36    35    1
    33    35    34    1
    34    43    44    1
    35   169   168   ar
    36   169   167   ar
    37   170   167   ar
    38   168   166   ar
    39   167   165   ar
    40    45    44    1
    41    45    46    2
    42    44    47    1
    43     1     2    1
    44    47    48    1
    45   166   165   ar
    46   165   164    1
    47     2     3    1
    48     2     5    1
    49   159   158    1
    50     3     4    2
    51     9     7   ar
    52     9    11   ar
    53   110   112   ar
    54   110   108   ar
    55    12    11    1
    56     7     6   ar
    57   112   111   ar
    58    11    10   ar
    59   187   186   ar
    60   158   157    1
    61   106   105    2
    62   164   161    1
    63     6     5    1
    64     6     8   ar
    65    10     8   ar
    66   108   107    1
    67   108   109   ar
    68   111   109   ar
    69   186   188   ar
    70   186   185    1
    71   107   104    1
    72   119   117    1
    73   105   104    1
    74   105   113   am
    75   163   162    2
    76   116   115    2
    77   161   162    1
    78   161   160    1
    79   182   185    1
    80   182   181    1
    81   182   183    1
    82   114   117    1
    83   114   115    1
    84   114   113    1
    85   157   156    1
    86   118   117    1
    87   184   183    2
    88   104   103    1
    89   162   174   am
    90    69    70    1
    91    66    67    1
    92    66    65    1
    93   183   189   am
    94    67    68    2
    95    74    73    1
    96   156   155    1
    97   160   153   am
    98   154   153    2
    99    70    73    1
   100    70    71    1
   101   153   152    1
   102   174   175    1
   103    64    63    2
   104   189   190    1
   105    65    63   am
   106    73    75    1
   107   155   152    1
   108   101   100    1
   109   202   200   ar
   110   202   201   ar
   111    63    62    1
   112    60    59    2
   113   175   176    1
   114   175   178    1
   115   200   198   ar
   116   201   199   ar
   117    94    92   ar
   118   152   151    1
   119    93    92   ar
   120   177   176    2
   121    71    72    2
   122   190   191    1
   123   190   193    1
   124   198   196   ar
   125   198   197   ar
   126   199   196   ar
   127   180   178    1
   128    92    91    1
   129   192   191    2
   130   196   194   ar
   131   197   195   ar
   132    99   100    1
   133    99    96    1
   134    98    97    2
   135   100   102    1
   136    62    61    1
   137    59    61   am
   138    59    58    1
   139   178   179    1
   140   195   194   ar
   141   194   193    1
   142    97    96    1
   143    91    88    1
   144    96    95    1
   145    58    57    1
   146    95    89   am
   147    56    54   ar
   148    55    54   ar
   149    88    89    1
   150    88    87    1
   151    89    90    2
   152    54    53    1
   153   139   138    1
   154   149   150   ar
   155   149   147   ar
   156   150   148   ar
   157    87    78   am
   158    79    78    2
   159    53    50    1
   160   138   137    1
   161    52    51    2
   162    78    77    1
   163   147   145   ar
   164    51    50    1
   165   131   129   am
   166   123   122    2
   167   148   146   ar
   168    50    49    1
   169    76    77    1
   170   137   136    1
   171   129   130    2
   172   129   128    1
   173    77    80    1
   174   145   146   ar
   175   145   144    1
   176   122   124   am
   177   122   121    1
   178   120   121    1
   179   128   125    1
   180   125   124    1
   181   125   126    1
   182   136   133    1
   183   132   126   am
   184   132   133    1
   185    80    81    1
   186   144   141    1
   187   126   127    2
   188    83    81   ar
   189    83    85   ar
   190   133   134    1
   191    81    82   ar
   192   140   134   am
   193   140   141    1
   194    85    86   ar
   195   134   135    2
   196   141   142    1
   197    82    84   ar
   198    86    84   ar
   199   142   143    2
