@<TRIPOS>MOLECULE
tmp/4eviA01.pdb
 140 135 0 0 0
SMALL
GASTEIGER

@<TRIPOS>ATOM
      1  N        -18.3720  -23.0980   37.0040 N.3   110  LEU110     -0.1245
      2  CA       -17.2330  -22.2630   37.3650 C.3   110  LEU110      0.1561
      3  C        -16.7050  -21.5230   36.1330 C.2   110  LEU110      0.2260
      4  O        -16.3300  -20.3550   36.2180 O.2   110  LEU110     -0.2867
      5  CB       -16.1110  -23.1020   37.9840 C.3   110  LEU110      0.0270
      6  CG       -14.9980  -22.2580   38.5950 C.3   110  LEU110      0.0019
      7  CD1      -15.5650  -21.3530   39.6820 C.3   110  LEU110      0.0001
      8  CD2      -13.9030  -23.1470   39.1460 C.3   110  LEU110      0.0001
      9  N        -19.1670  -18.7350   35.2690 N.3   113  CYS113     -0.1221
     10  CA       -19.0150  -17.7110   36.3000 C.3   113  CYS113      0.1808
     11  C        -17.7830  -16.8760   36.0060 C.2   113  CYS113      0.2601
     12  O        -17.8420  -15.6520   35.9730 O.2   113  CYS113     -0.2717
     13  CB       -18.8890  -18.3550   37.6910 C.3   113  CYS113      0.0970
     14  SG       -18.7150  -17.1870   39.0470 S.3   113  CYS113     -0.0800
     15  N        -16.6680  -17.5580   35.7650 N.am  114  SER114     -0.1952
     16  CA       -15.3700  -16.9060   35.6280 C.3   114  SER114      0.1924
     17  C        -15.2130  -15.9700   34.4180 C.2   114  SER114      0.2314
     18  O        -14.4780  -14.9790   34.4940 O.2   114  SER114     -0.2863
     19  CB       -14.2590  -17.9660   35.5990 C.3   114  SER114      0.2116
     20  OG       -14.2240  -18.7110   36.8140 O.3   114  SER114     -0.2180
     21  N        -17.2360  -10.4730   36.0230 N.3   119  LEU119     -0.1245
     22  CA       -15.8390  -10.6460   36.4440 C.3   119  LEU119      0.1561
     23  C        -14.7890  -10.1150   35.4510 C.2   119  LEU119      0.2260
     24  O        -13.6800   -9.7430   35.8450 O.2   119  LEU119     -0.2867
     25  CB       -15.5610  -12.1110   36.7950 C.3   119  LEU119      0.0270
     26  CG       -16.3110  -12.6670   38.0140 C.3   119  LEU119      0.0019
     27  CD1      -15.7670  -14.0250   38.4350 C.3   119  LEU119      0.0001
     28  CD2      -16.2290  -11.6890   39.1770 C.3   119  LEU119      0.0001
     29  N        -20.3440  -10.7970   47.1160 N.3   154  TYR154     -0.1241
     30  CA       -21.2700  -11.6040   47.9120 C.3   154  TYR154      0.1605
     31  C        -22.5640  -10.8480   48.1360 C.2   154  TYR154      0.2264
     32  O        -23.5850  -11.4380   48.4830 O.2   154  TYR154     -0.2867
     33  CB       -20.6490  -12.0680   49.2380 C.3   154  TYR154      0.0534
     34  CG       -19.5630  -13.1030   49.0350 C.ar  154  TYR154     -0.0201
     35  CD1      -19.8550  -14.3260   48.4400 C.ar  154  TYR154     -0.0009
     36  CD2      -18.2480  -12.8490   49.4110 C.ar  154  TYR154     -0.0009
     37  CE1      -18.8730  -15.2730   48.2300 C.ar  154  TYR154      0.0417
     38  CE2      -17.2510  -13.7960   49.2080 C.ar  154  TYR154      0.0417
     39  CZ       -17.5770  -15.0090   48.6180 C.ar  154  TYR154      0.1957
     40  OH       -16.6050  -15.9620   48.4020 O.3   154  TYR154     -0.2866
     41  N        -21.6190  -19.4730   40.7630 N.3   167  PHE167     -0.1241
     42  CA       -20.5140  -19.4260   41.7190 C.3   167  PHE167      0.1605
     43  C        -20.5890  -20.5580   42.7570 C.2   167  PHE167      0.2264
     44  O        -19.5940  -21.2280   43.0170 O.2   167  PHE167     -0.2867
     45  CB       -20.4590  -18.0440   42.3930 C.3   167  PHE167      0.0534
     46  CG       -19.1810  -17.7730   43.1470 C.ar  167  PHE167     -0.0203
     47  CD1      -18.0710  -18.5840   42.9880 C.ar  167  PHE167     -0.0042
     48  CD2      -19.0990  -16.7010   44.0250 C.ar  167  PHE167     -0.0042
     49  CE1      -16.9020  -18.3260   43.6840 C.ar  167  PHE167     -0.0003
     50  CE2      -17.9420  -16.4440   44.7240 C.ar  167  PHE167     -0.0003
     51  CZ       -16.8390  -17.2580   44.5530 C.ar  167  PHE167     -0.0000
     52  N        -18.1020  -23.7980   43.1220 N.3   171  MET171     -0.1245
     53  CA       -17.4510  -24.2150   44.3580 C.3   171  MET171      0.1570
     54  C        -17.7950  -25.6760   44.7080 C.2   171  MET171      0.2261
     55  O        -16.9320  -26.4440   45.1570 O.2   171  MET171     -0.2867
     56  CB       -17.8240  -23.2700   45.5170 C.3   171  MET171      0.0387
     57  CG       -17.3590  -21.8030   45.3380 C.3   171  MET171      0.0595
     58  SD       -15.5630  -21.6620   45.2500 S.3   171  MET171     -0.1393
     59  CE       -15.2850  -21.5600   43.4700 C.3   171  MET171      0.0692
     60  N        -11.1450  -22.6750   51.1300 N.3   260  TRP260     -0.1227
     61  CA       -11.2930  -21.6130   50.1450 C.3   260  TRP260      0.1737
     62  C        -12.1210  -20.4530   50.6990 C.2   260  TRP260      0.2595
     63  O        -12.9140  -19.8740   49.9790 O.2   260  TRP260     -0.2718
     64  CB       -11.9450  -22.1460   48.8620 C.3   260  TRP260      0.0564
     65  CG       -11.0200  -22.2180   47.6800 C.ar  260  TRP260      0.0003
     66  CD1       -9.7180  -21.7960   47.6220 C.ar  260  TRP260      0.0946
     67  CD2      -11.3310  -22.7420   46.3760 C.ar  260  TRP260      0.0152
     68  NE1       -9.2010  -22.0320   46.3590 N.ar  260  TRP260     -0.2442
     69  CE2      -10.1700  -22.6160   45.5820 C.ar  260  TRP260      0.0810
     70  CE3      -12.4760  -23.3210   45.8110 C.ar  260  TRP260      0.0012
     71  CZ2      -10.1220  -23.0440   44.2520 C.ar  260  TRP260      0.0191
     72  CZ3      -12.4340  -23.7290   44.4830 C.ar  260  TRP260      0.0001
     73  CH2      -11.2590  -23.5910   43.7190 C.ar  260  TRP260      0.0015
     74  N        -11.9350  -20.1190   51.9720 N.am  261  VAL261     -0.1980
     75  CA       -12.6880  -19.0320   52.5900 C.3   261  VAL261      0.1595
     76  C        -11.7880  -17.8900   53.0900 C.2   261  VAL261      0.2287
     77  O        -12.0450  -16.7140   52.8190 O.2   261  VAL261     -0.2864
     78  CB       -13.5780  -19.5470   53.7550 C.3   261  VAL261      0.0276
     79  CG1      -14.0870  -18.3840   54.5940 C.3   261  VAL261      0.0022
     80  CG2      -14.7510  -20.3510   53.1980 C.3   261  VAL261      0.0022
     81  N         -8.9880  -17.0680   52.0540 N.3   263  CYS263     -0.1221
     82  CA        -8.4110  -16.4300   50.8700 C.3   263  CYS263      0.1808
     83  C         -9.2900  -15.3140   50.2870 C.2   263  CYS263      0.2601
     84  O         -8.8220  -14.5250   49.4750 O.2   263  CYS263     -0.2717
     85  CB        -8.1080  -17.4800   49.7860 C.3   263  CYS263      0.0970
     86  SG        -9.5690  -18.4490   49.2570 S.3   263  CYS263     -0.0800
     87  N        -10.5560  -15.2400   50.7050 N.am  264  ASP264     -0.1973
     88  CA       -11.4730  -14.2190   50.1890 C.3   264  ASP264      0.1709
     89  C        -11.3230  -12.8770   50.8930 C.2   264  ASP264      0.2293
     90  O        -11.8640  -11.8700   50.4330 O.2   264  ASP264     -0.2864
     91  CB       -12.9370  -14.6440   50.3750 C.3   264  ASP264      0.1436
     92  CG       -13.3170  -15.8240   49.5280 C.2   264  ASP264      0.3671
     93  OD1      -12.4770  -16.2980   48.7320 O.co2 264  ASP264     -0.2456
     94  OD2      -14.4770  -16.2710   49.6590 O.co2 264  ASP264     -0.2456
     95  N         -4.9560  -16.7860   39.6930 N.3   314  LEU314     -0.1245
     96  CA        -5.9740  -16.7570   40.7390 C.3   314  LEU314      0.1561
     97  C         -5.7320  -15.5860   41.6910 C.2   314  LEU314      0.2260
     98  O         -6.6710  -14.9300   42.1190 O.2   314  LEU314     -0.2867
     99  CB        -6.0030  -18.0760   41.5250 C.3   314  LEU314      0.0270
    100  CG        -6.5100  -19.3310   40.7760 C.3   314  LEU314      0.0019
    101  CD1       -6.2400  -20.5960   41.5770 C.3   314  LEU314      0.0001
    102  CD2       -8.0010  -19.2200   40.4310 C.3   314  LEU314      0.0001
    103  N         -7.2100  -12.7450   39.8410 N.3   317  LEU317     -0.1231
    104  CA        -8.6600  -12.8870   39.8940 C.3   317  LEU317      0.1693
    105  C         -9.1920  -12.4550   41.2710 C.2   317  LEU317      0.2592
    106  O        -10.1070  -11.6380   41.3580 O.2   317  LEU317     -0.2718
    107  CB        -9.0750  -14.3210   39.5860 C.3   317  LEU317      0.0284
    108  CG       -10.5580  -14.6500   39.8290 C.3   317  LEU317      0.0019
    109  CD1      -11.4200  -13.9640   38.7670 C.3   317  LEU317      0.0001
    110  CD2      -10.7730  -16.1540   39.8020 C.3   317  LEU317      0.0001
    111  N         -8.6110  -12.9980   42.3410 N.am  318  PHE318     -0.1976
    112  CA        -9.0620  -12.6770   43.6970 C.3   318  PHE318      0.1639
    113  C         -8.8630  -11.1950   44.0190 C.2   318  PHE318      0.2290
    114  O         -9.6980  -10.5810   44.6850 O.2   318  PHE318     -0.2864
    115  CB        -8.3230  -13.5020   44.7590 C.3   318  PHE318      0.0560
    116  CG        -8.6720  -14.9620   44.7740 C.ar  318  PHE318     -0.0200
    117  CD1       -9.3960  -15.5400   43.7420 C.ar  318  PHE318     -0.0042
    118  CD2       -8.2640  -15.7640   45.8380 C.ar  318  PHE318     -0.0042
    119  CE1       -9.6970  -16.8960   43.7630 C.ar  318  PHE318     -0.0003
    120  CE2       -8.5590  -17.1140   45.8620 C.ar  318  PHE318     -0.0003
    121  CZ        -9.2740  -17.6830   44.8190 C.ar  318  PHE318     -0.0000
    122  N        -11.9320   -9.2550   42.3560 N.3   321  PHE321     -0.1227
    123  CA       -13.3390   -9.4650   42.7280 C.3   321  PHE321      0.1736
    124  C        -13.6040   -9.9450   44.1540 C.2   321  PHE321      0.2595
    125  O        -14.7600   -9.9790   44.5890 O.2   321  PHE321     -0.2718
    126  CB       -14.0430  -10.3830   41.7110 C.3   321  PHE321      0.0547
    127  CG       -14.1960  -11.8240   42.1540 C.ar  321  PHE321     -0.0202
    128  CD1      -13.2030  -12.7600   41.8990 C.ar  321  PHE321     -0.0042
    129  CD2      -15.3670  -12.2500   42.7650 C.ar  321  PHE321     -0.0042
    130  CE1      -13.3560  -14.0790   42.2730 C.ar  321  PHE321     -0.0003
    131  CE2      -15.5390  -13.5740   43.1370 C.ar  321  PHE321     -0.0003
    132  CZ       -14.5360  -14.4920   42.9020 C.ar  321  PHE321     -0.0000
    133  N        -12.5490  -10.3330   44.8660 N.am  322  LEU322     -0.1980
    134  CA       -12.6660  -10.6640   46.2770 C.3   322  LEU322      0.1596
    135  C        -11.8570   -9.6430   47.0870 C.2   322  LEU322      0.2287
    136  O        -11.5080   -8.5870   46.5750 O.2   322  LEU322     -0.2864
    137  CB       -12.2010  -12.0980   46.5460 C.3   322  LEU322      0.0297
    138  CG       -13.0740  -13.2160   45.9500 C.3   322  LEU322      0.0022
    139  CD1      -12.3200  -14.5430   45.8780 C.3   322  LEU322      0.0001
    140  CD2      -14.3880  -13.3780   46.7310 C.3   322  LEU322      0.0001
@<TRIPOS>BOND
     1    17    18    2
     2    17    16    1
     3     9    10    1
     4    23    24    2
     5    23    22    1
     6    19    16    1
     7    19    20    1
     8    16    15    1
     9    15    11   am
    10    12    11    2
    11    11    10    1
    12    21    22    1
    13     3     4    2
    14     3     2    1
    15    10    13    1
    16    22    25    1
    17    25    26    1
    18     1     2    1
    19     2     5    1
    20    13    14    1
    21     5     6    1
    22    26    27    1
    23    26    28    1
    24     6     8    1
    25     6     7    1
    26   109   108    1
    27   107   108    1
    28   107   104    1
    29    95    96    1
    30   110   108    1
    31   103   104    1
    32   104   105    1
    33   102   100    1
    34    96    99    1
    35    96    97    1
    36    41    42    1
    37   100    99    1
    38   100   101    1
    39   105   106    2
    40   105   111   am
    41    97    98    2
    42   126   127    1
    43   126   123    1
    44    42    45    1
    45    42    43    1
    46   128   127   ar
    47   128   130   ar
    48   127   129   ar
    49   130   132   ar
    50   111   112    1
    51   122   123    1
    52    45    46    1
    53   123   124    1
    54    43    44    2
    55   129   131   ar
    56   132   131   ar
    57    47    46   ar
    58    47    49   ar
    59    52    53    1
    60    46    48   ar
    61    59    58    1
    62    49    51   ar
    63   112   113    1
    64   112   115    1
    65    73    71   ar
    66    73    72   ar
    67   117   119   ar
    68   117   116   ar
    69   119   121   ar
    70   113   114    2
    71    48    50   ar
    72   124   125    2
    73   124   133   am
    74    71    69   ar
    75    53    54    1
    76    53    56    1
    77    72    70   ar
    78    51    50   ar
    79    54    55    2
    80   115   116    1
    81   116   118   ar
    82   121   120   ar
    83   133   134    1
    84    58    57    1
    85    57    56    1
    86    69    68   ar
    87    69    67   ar
    88    70    67   ar
    89   118   120   ar
    90   139   138    1
    91   138   137    1
    92   138   140    1
    93   134   137    1
    94   134   135    1
    95    68    66   ar
    96    67    65   ar
    97   136   135    2
    98    29    30    1
    99    66    65   ar
   100    65    64    1
   101    30    31    1
   102    30    33    1
   103    31    32    2
   104    37    35   ar
   105    37    39   ar
   106    40    39    1
   107    35    34   ar
   108    39    38   ar
   109    93    92   ar
   110    64    61    1
   111    34    33    1
   112    34    36   ar
   113    38    36   ar
   114    86    85    1
   115    84    83    2
   116    92    94   ar
   117    92    91    1
   118    85    82    1
   119    63    62    2
   120    61    62    1
   121    61    60    1
   122    88    91    1
   123    88    87    1
   124    88    89    1
   125    83    87   am
   126    83    82    1
   127    90    89    2
   128    62    74   am
   129    82    81    1
   130    74    75    1
   131    75    76    1
   132    75    78    1
   133    77    76    2
   134    80    78    1
   135    78    79    1
