@<TRIPOS>MOLECULE
tmp/4evqB00.pdb
 130 124 0 0 0
SMALL
GASTEIGER

@<TRIPOS>ATOM
      1  N         34.5430   30.4330   11.0390 N.3    26  TYR26      -0.1241
      2  CA        35.2320   29.3640   11.8030 C.3    26  TYR26       0.1605
      3  C         36.2650   28.5840   10.9780 C.2    26  TYR26       0.2264
      4  O         36.8480   27.6180   11.4690 O.2    26  TYR26      -0.2867
      5  CB        34.2090   28.3900   12.4350 C.3    26  TYR26       0.0534
      6  CG        33.4460   28.9540   13.6250 C.ar   26  TYR26      -0.0201
      7  CD1       33.8820   30.0500   14.3540 C.ar   26  TYR26      -0.0009
      8  CD2       32.3070   28.3160   14.0490 C.ar   26  TYR26      -0.0009
      9  CE1       33.1770   30.4850   15.4480 C.ar   26  TYR26       0.0417
     10  CE2       31.5520   28.7610   15.1490 C.ar   26  TYR26       0.0417
     11  CZ        32.0250   29.8430   15.8650 C.ar   26  TYR26       0.1957
     12  OH        31.3900   30.2900   16.9920 O.3    26  TYR26      -0.2866
     13  N         39.4390   27.6660   12.7140 N.3    29  LEU29      -0.1245
     14  CA        39.3010   26.6100   13.7010 C.3    29  LEU29       0.1561
     15  C         39.3250   25.2570   13.0110 C.2    29  LEU29       0.2260
     16  O         39.9870   24.3350   13.4910 O.2    29  LEU29      -0.2867
     17  CB        38.0320   26.7570   14.5070 C.3    29  LEU29       0.0270
     18  CG        37.9830   27.8600   15.5730 C.3    29  LEU29       0.0019
     19  CD1       38.1710   29.2580   15.0090 C.3    29  LEU29       0.0001
     20  CD2       36.6650   27.8290   16.3490 C.3    29  LEU29       0.0001
     21  N         33.0630   21.8800   14.8730 N.3    87  VAL87      -0.1231
     22  CA        33.3080   23.0980   15.6480 C.3    87  VAL87       0.1692
     23  C         32.0220   23.6530   16.2090 C.2    87  VAL87       0.2592
     24  O         31.9340   23.8800   17.4170 O.2    87  VAL87      -0.2718
     25  CB        34.0450   24.1280   14.7780 C.3    87  VAL87       0.0266
     26  CG1       34.0400   25.5020   15.4130 C.3    87  VAL87       0.0020
     27  CG2       35.4520   23.6700   14.5140 C.3    87  VAL87       0.0020
     28  N         31.0310   23.8860   15.3500 N.am   88  HIS88      -0.1962
     29  CA        29.7770   24.5570   15.7110 C.3    88  HIS88       0.1787
     30  C         28.8310   23.6330   16.4460 C.2    88  HIS88       0.2620
     31  O         28.5100   22.5430   15.9410 O.2    88  HIS88      -0.2715
     32  CB        29.1590   25.1300   14.4420 C.3    88  HIS88       0.0785
     33  CG        27.9190   25.9640   14.6080 C.ar   88  HIS88       0.0821
     34  ND1       26.6930   25.4400   14.9500 N.ar   88  HIS88      -0.2267
     35  CD2       27.7010   27.2790   14.3310 C.ar   88  HIS88       0.1154
     36  CE1       25.7850   26.3890   14.9120 C.ar   88  HIS88       0.1986
     37  NE2       26.3680   27.5130   14.5210 N.ar   88  HIS88      -0.2212
     38  N         28.4080   24.0150   17.6470 N.am   89  SER89      -0.1950
     39  CA        27.5670   23.1560   18.4830 C.3    89  SER89       0.1924
     40  C         26.2790   22.7370   17.8470 C.2    89  SER89       0.2314
     41  O         25.7900   21.6370   18.1020 O.2    89  SER89      -0.2863
     42  CB        27.2180   23.8350   19.8200 C.3    89  SER89       0.2116
     43  OG        28.2610   23.6990   20.7710 O.3    89  SER89      -0.2180
     44  N         35.8410   19.8500   19.0930 N.3   108  ASN108     -0.1240
     45  CA        35.6330   21.2180   19.5880 C.3   108  ASN108      0.1653
     46  C         34.2650   21.4260   20.1790 C.2   108  ASN108      0.2266
     47  O         34.1550   21.8180   21.3480 O.2   108  ASN108     -0.2867
     48  CB        35.8820   22.3040   18.5250 C.3   108  ASN108      0.1155
     49  CG        35.7600   23.6730   19.1610 C.2   108  ASN108      0.2627
     50  OD1       36.6450   24.0480   19.9060 O.2   108  ASN108     -0.2716
     51  ND2       34.6670   24.3790   18.8950 N.am  108  ASN108     -0.0877
     52  N         31.2160   22.3930   22.0180 N.3   110  GLY110     -0.1225
     53  CA        31.0080   22.2580   23.4440 C.3   110  GLY110      0.1811
     54  C         29.6280   21.8900   23.8770 C.2   110  GLY110      0.2280
     55  O         29.3830   21.8370   25.0820 O.2   110  GLY110     -0.2866
     56  N         35.8880   20.2710   25.5120 N.3   127  PHE127     -0.1241
     57  CA        35.3610   20.8680   26.7620 C.3   127  PHE127      0.1605
     58  C         33.8220   20.8610   26.6200 C.2   127  PHE127      0.2264
     59  O         33.3020   20.5860   25.5120 O.2   127  PHE127     -0.2867
     60  CB        35.8140   22.3450   26.9330 C.3   127  PHE127      0.0534
     61  CG        35.3480   23.1970   25.7880 C.ar  127  PHE127     -0.0203
     62  CD1       36.0240   23.1770   24.5900 C.ar  127  PHE127     -0.0042
     63  CD2       34.1770   23.9020   25.8720 C.ar  127  PHE127     -0.0042
     64  CE1       35.4950   23.8050   23.4640 C.ar  127  PHE127     -0.0003
     65  CE2       33.6660   24.5480   24.7300 C.ar  127  PHE127     -0.0003
     66  CZ        34.3280   24.4440   23.5540 C.ar  127  PHE127     -0.0000
     67  N         30.4210   23.5110   27.0760 N.3   129  ASN129     -0.1240
     68  CA        30.0830   24.9320   27.1150 C.3   129  ASN129      0.1653
     69  C         29.7180   25.4430   28.4880 C.2   129  ASN129      0.2266
     70  O         30.2590   26.4720   28.9490 O.2   129  ASN129     -0.2867
     71  CB        28.9030   25.1900   26.1710 C.3   129  ASN129      0.1155
     72  CG        29.2470   25.0940   24.7040 C.2   129  ASN129      0.2627
     73  OD1       30.3740   25.3220   24.2730 O.2   129  ASN129     -0.2716
     74  ND2       28.2190   24.7940   23.9230 N.am  129  ASN129     -0.0877
     75  N         23.2540   31.3980   19.1670 N.3   154  TYR154     -0.1241
     76  CA        23.1060   29.9950   18.8610 C.3   154  TYR154      0.1605
     77  C         23.5370   29.2470   20.1010 C.2   154  TYR154      0.2264
     78  O         23.9550   29.8270   21.1060 O.2   154  TYR154     -0.2867
     79  CB        23.9000   29.5590   17.6220 C.3   154  TYR154      0.0534
     80  CG        25.3950   29.3080   17.7730 C.ar  154  TYR154     -0.0201
     81  CD1       26.2760   30.3440   17.8250 C.ar  154  TYR154     -0.0009
     82  CD2       25.9070   28.0330   17.8080 C.ar  154  TYR154     -0.0009
     83  CE1       27.6210   30.1250   17.9150 C.ar  154  TYR154      0.0417
     84  CE2       27.2450   27.7790   17.8680 C.ar  154  TYR154      0.0417
     85  CZ        28.1140   28.8190   17.9460 C.ar  154  TYR154      0.1957
     86  OH        29.4510   28.6370   18.0260 O.3   154  TYR154     -0.2866
     87  N         26.0020   27.4860   21.3980 N.3   156  ALA156     -0.1245
     88  CA        27.2210   27.6440   22.1580 C.3   156  ALA156      0.1562
     89  C         27.2650   28.9440   22.9160 C.2   156  ALA156      0.2260
     90  O         27.6970   28.9760   24.0690 O.2   156  ALA156     -0.2867
     91  CB        28.4340   27.4830   21.2680 C.3   156  ALA156      0.0290
     92  N         31.5790   35.8380   24.2360 N.3   205  PHE205     -0.1241
     93  CA        31.9960   34.6760   23.4460 C.3   205  PHE205      0.1605
     94  C         31.8240   34.9510   21.9680 C.2   205  PHE205      0.2264
     95  O         30.7050   35.1140   21.4890 O.2   205  PHE205     -0.2867
     96  CB        31.2650   33.3670   23.7950 C.3   205  PHE205      0.0534
     97  CG        31.4770   32.2890   22.7510 C.ar  205  PHE205     -0.0203
     98  CD1       32.7280   31.7660   22.5490 C.ar  205  PHE205     -0.0042
     99  CD2       30.4400   31.8820   21.9070 C.ar  205  PHE205     -0.0042
    100  CE1       32.9770   30.8520   21.4950 C.ar  205  PHE205     -0.0003
    101  CE2       30.6880   30.9500   20.8640 C.ar  205  PHE205     -0.0003
    102  CZ        31.9420   30.4370   20.6770 C.ar  205  PHE205     -0.0000
    103  N         34.5730   33.6880   18.3740 N.3   207  SER207     -0.1217
    104  CA        35.7330   32.9210   18.0340 C.3   207  SER207      0.1889
    105  C         35.9880   33.1070   16.5550 C.2   207  SER207      0.2288
    106  O         35.1160   33.5130   15.8350 O.2   207  SER207     -0.2866
    107  CB        35.4280   31.4460   18.3870 C.3   207  SER207      0.2089
    108  OG        36.6050   30.6950   18.2840 O.3   207  SER207     -0.2183
    109  N         38.3530   31.0140   23.8640 N.3   232  PHE232     -0.1241
    110  CA        38.0940   31.0580   22.4330 C.3   232  PHE232      0.1605
    111  C         38.0850   32.4770   21.9190 C.2   232  PHE232      0.2264
    112  O         38.3000   32.6990   20.7230 O.2   232  PHE232     -0.2867
    113  CB        36.7520   30.4030   22.1540 C.3   232  PHE232      0.0534
    114  CG        36.5680   29.1130   22.9050 C.ar  232  PHE232     -0.0203
    115  CD1       37.3950   28.0560   22.6920 C.ar  232  PHE232     -0.0042
    116  CD2       35.5990   29.0270   23.8650 C.ar  232  PHE232     -0.0042
    117  CE1       37.2390   26.8700   23.4320 C.ar  232  PHE232     -0.0003
    118  CE2       35.4410   27.8780   24.6110 C.ar  232  PHE232     -0.0003
    119  CZ        36.2930   26.8070   24.4140 C.ar  232  PHE232     -0.0000
    120  N         42.5190   24.8190   19.5540 N.3   281  PHE281     -0.1241
    121  CA        41.8400   24.0130   18.5440 C.3   281  PHE281      0.1605
    122  C         42.8060   22.9980   17.9760 C.2   281  PHE281      0.2264
    123  O         42.4460   21.8270   17.7680 O.2   281  PHE281     -0.2867
    124  CB        41.2790   24.9280   17.4590 C.3   281  PHE281      0.0534
    125  CG        40.4260   26.0340   18.0500 C.ar  281  PHE281     -0.0203
    126  CD1       39.2380   25.7400   18.6370 C.ar  281  PHE281     -0.0042
    127  CD2       40.8490   27.3580   18.0410 C.ar  281  PHE281     -0.0042
    128  CE1       38.4570   26.7320   19.2100 C.ar  281  PHE281     -0.0003
    129  CE2       40.0920   28.3590   18.6340 C.ar  281  PHE281     -0.0003
    130  CZ        38.9180   28.0720   19.2060 C.ar  281  PHE281     -0.0000
@<TRIPOS>BOND
     1     3     4    2
     2     3     2    1
     3     1     2    1
     4     2     5    1
     5     5     6    1
     6    13    14    1
     7    15    16    2
     8    15    14    1
     9     6     8   ar
    10     6     7   ar
    11    14    17    1
    12     8    10   ar
    13    35    37   ar
    14    35    33   ar
    15     7     9   ar
    16    32    33    1
    17    32    29    1
    18    17    18    1
    19    27    25    1
    20    37    36   ar
    21    33    34   ar
    22    25    26    1
    23    25    22    1
    24    21    22    1
    25    36    34   ar
    26    19    18    1
    27    10    11   ar
    28    28    29    1
    29    28    23   am
    30     9    11   ar
    31    18    20    1
    32    22    23    1
    33    29    30    1
    34   106   105    2
    35    11    12    1
    36    31    30    2
    37    23    24    2
    38    30    38   am
    39   105   104    1
    40   124   125    1
    41   124   121    1
    42    79    80    1
    43    79    76    1
    44    38    39    1
    45   123   122    2
    46    80    82   ar
    47    80    81   ar
    48    82    84   ar
    49    81    83   ar
    50    40    41    2
    51    40    39    1
    52    84    85   ar
    53    83    85   ar
    54    85    86    1
    55   122   121    1
    56   104   103    1
    57   104   107    1
    58   127   125   ar
    59   127   129   ar
    60   125   126   ar
    61   108   107    1
    62    39    42    1
    63    48    49    1
    64    48    45    1
    65   121   120    1
    66   129   130   ar
    67   126   128   ar
    68    76    75    1
    69    76    77    1
    70    51    49   am
    71    44    45    1
    72    49    50    2
    73   130   128   ar
    74    45    46    1
    75    42    43    1
    76    77    78    2
    77    46    47    2
    78   102   101   ar
    79   102   100   ar
    80   112   111    2
    81   101    99   ar
    82    91    88    1
    83    87    88    1
    84    95    94    2
    85   100    98   ar
    86    99    97   ar
    87   111   110    1
    88    94    93    1
    89    52    53    1
    90   113   110    1
    91   113   114    1
    92    88    89    1
    93   110   109    1
    94    98    97   ar
    95   115   114   ar
    96   115   117   ar
    97    97    96    1
    98   114   116   ar
    99    89    90    2
   100   117   119   ar
   101    53    54    1
   102    93    96    1
   103    93    92    1
   104    64    66   ar
   105    64    62   ar
   106    66    65   ar
   107   116   118   ar
   108    54    55    2
   109    74    72   am
   110    73    72    2
   111   119   118   ar
   112    62    61   ar
   113    72    71    1
   114    65    63   ar
   115    56    57    1
   116    59    58    2
   117    61    63   ar
   118    61    60    1
   119    71    68    1
   120    58    57    1
   121    57    60    1
   122    67    68    1
   123    68    69    1
   124    69    70    2
