@<TRIPOS>MOLECULE
tmp/4evsA00.pdb
 116 114 0 0 0
SMALL
GASTEIGER

@<TRIPOS>ATOM
      1  N          9.1240   45.8990   11.1780 N.3    75  TYR75      -0.1227
      2  CA         9.8670   46.9410   11.8460 C.3    75  TYR75       0.1736
      3  C          9.6300   48.2740   11.1280 C.2    75  TYR75       0.2595
      4  O          9.3420   49.2670   11.7660 O.2    75  TYR75      -0.2718
      5  CB        11.3440   46.6070   11.9010 C.3    75  TYR75       0.0548
      6  CG        12.1450   47.5750   12.7700 C.ar   75  TYR75      -0.0200
      7  CD1       11.8500   47.7070   14.1210 C.ar   75  TYR75      -0.0009
      8  CD2       13.1600   48.3450   12.2500 C.ar   75  TYR75      -0.0009
      9  CE1       12.5680   48.5290   14.9290 C.ar   75  TYR75       0.0417
     10  CE2       13.8660   49.2170   13.0600 C.ar   75  TYR75       0.0417
     11  CZ        13.5600   49.3200   14.4050 C.ar   75  TYR75       0.1957
     12  OH        14.2390   50.2040   15.2520 O.3    75  TYR75      -0.2866
     13  N          9.7200   48.2720    9.8010 N.am   76  PHE76      -0.1962
     14  CA         9.6930   49.5090    9.0070 C.3    76  PHE76       0.1771
     15  C          8.3470   49.7900    8.3410 C.2    76  PHE76       0.2620
     16  O          7.7250   48.8780    7.7320 O.2    76  PHE76      -0.2715
     17  CB        10.7580   49.4400    7.9170 C.3    76  PHE76       0.0574
     18  CG        12.1810   49.5280    8.4470 C.ar   76  PHE76      -0.0200
     19  CD1       12.6670   50.7280    8.9650 C.ar   76  PHE76      -0.0042
     20  CD2       13.0500   48.4200    8.4020 C.ar   76  PHE76      -0.0042
     21  CE1       13.9770   50.8020    9.4630 C.ar   76  PHE76      -0.0003
     22  CE2       14.3170   48.5120    8.9000 C.ar   76  PHE76      -0.0003
     23  CZ        14.7900   49.7210    9.3730 C.ar   76  PHE76      -0.0000
     24  N          7.9280   51.0480    8.3970 N.am   77  THR77      -0.1951
     25  CA         6.6920   51.4840    7.7740 C.3    77  THR77       0.1897
     26  C          6.5180   51.0320    6.3130 C.2    77  THR77       0.2313
     27  O          5.4880   50.4680    5.9810 O.2    77  THR77      -0.2863
     28  CB         6.5180   52.9900    7.9010 C.3    77  THR77       0.1794
     29  OG1        6.1010   53.2940    9.2270 O.3    77  THR77      -0.2208
     30  CG2        5.4750   53.4980    6.9260 C.3    77  THR77       0.0378
     31  N          5.8350   47.0370   15.2860 N.3    96  ASN96      -0.1240
     32  CA         6.6230   48.2680   15.3620 C.3    96  ASN96       0.1653
     33  C          6.1200   49.3780   14.4450 C.2    96  ASN96       0.2266
     34  O          5.7130   50.4330   14.9240 O.2    96  ASN96      -0.2867
     35  CB         8.0960   48.0420   15.1480 C.3    96  ASN96       0.1155
     36  CG         8.8900   49.2880   15.5330 C.2    96  ASN96       0.2627
     37  OD1        9.0580   49.5660   16.7250 O.2    96  ASN96      -0.2716
     38  ND2        9.3420   50.0480   14.5390 N.am   96  ASN96      -0.0877
     39  N          5.2110   52.4330   12.6820 N.3    98  ALA98      -0.1245
     40  CA         4.5320   53.4250   13.5080 C.3    98  ALA98       0.1562
     41  C          3.8210   54.5370   12.7560 C.2    98  ALA98       0.2260
     42  O          3.2920   55.4400   13.3910 O.2    98  ALA98      -0.2867
     43  CB         5.5520   53.9830   14.5100 C.3    98  ALA98       0.0290
     44  N          2.9670   51.4760   18.5970 N.3   114  PHE114     -0.1241
     45  CA         2.8090   52.9030   18.8700 C.3   114  PHE114      0.1605
     46  C          2.6740   53.6090   17.5410 C.2   114  PHE114      0.2264
     47  O          2.9160   52.9930   16.4870 O.2   114  PHE114     -0.2867
     48  CB         4.0140   53.4690   19.6160 C.3   114  PHE114      0.0534
     49  CG         5.3280   53.2560   18.9070 C.ar  114  PHE114     -0.0203
     50  CD1        5.9960   52.0550   19.0540 C.ar  114  PHE114     -0.0042
     51  CD2        5.9290   54.2830   18.1710 C.ar  114  PHE114     -0.0042
     52  CE1        7.1850   51.8080   18.4040 C.ar  114  PHE114     -0.0003
     53  CE2        7.1330   54.0670   17.5160 C.ar  114  PHE114     -0.0003
     54  CZ         7.7750   52.8320   17.6620 C.ar  114  PHE114     -0.0000
     55  N         11.0060   59.7360    5.5780 N.3   141  TYR141     -0.1241
     56  CA        10.0390   58.7230    5.1770 C.3   141  TYR141      0.1605
     57  C          8.8440   58.7670    6.1560 C.2   141  TYR141      0.2264
     58  O          8.8070   59.6110    7.0530 O.2   141  TYR141     -0.2867
     59  CB        10.6780   57.3340    5.0360 C.3   141  TYR141      0.0534
     60  CG        10.9340   56.5330    6.2910 C.ar  141  TYR141     -0.0201
     61  CD1       11.6880   57.0370    7.3220 C.ar  141  TYR141     -0.0009
     62  CD2       10.4780   55.2190    6.4030 C.ar  141  TYR141     -0.0009
     63  CE1       11.9250   56.3230    8.4840 C.ar  141  TYR141      0.0417
     64  CE2       10.7310   54.4540    7.5730 C.ar  141  TYR141      0.0417
     65  CZ        11.4490   55.0260    8.5980 C.ar  141  TYR141      0.1957
     66  OH        11.6580   54.3340    9.7470 O.3   141  TYR141     -0.2866
     67  N          7.3080   57.7200    8.9290 N.3   143  PRO143     -0.2116
     68  CA         7.1500   58.0390   10.3530 C.3   143  PRO143      0.1372
     69  C          7.8420   59.3690   10.7200 C.2   143  PRO143      0.2244
     70  O          7.4120   60.0570   11.6440 O.2   143  PRO143     -0.2868
     71  CB         7.7490   56.8180   11.0610 C.3   143  PRO143      0.0268
     72  CG         8.7140   56.2290   10.0320 C.3   143  PRO143      0.0207
     73  CD         8.0430   56.4570    8.7210 C.3   143  PRO143      0.0892
     74  N         13.4770   62.4820   15.2100 N.3   190  PHE190     -0.1241
     75  CA        13.1700   61.0640   15.0560 C.3   190  PHE190      0.1605
     76  C         14.0290   60.5000   13.9150 C.2   190  PHE190      0.2264
     77  O         14.0840   61.0990   12.8330 O.2   190  PHE190     -0.2867
     78  CB        11.7050   60.7690   14.7150 C.3   190  PHE190      0.0534
     79  CG        11.5030   59.3910   14.1160 C.ar  190  PHE190     -0.0203
     80  CD1       11.4510   58.2740   14.9540 C.ar  190  PHE190     -0.0042
     81  CD2       11.4710   59.1730   12.7520 C.ar  190  PHE190     -0.0042
     82  CE1       11.3510   57.0200   14.4450 C.ar  190  PHE190     -0.0003
     83  CE2       11.3230   57.9000   12.2510 C.ar  190  PHE190     -0.0003
     84  CZ        11.2790   56.8400   13.0880 C.ar  190  PHE190     -0.0000
     85  N         14.7920   56.0440   12.7190 N.3   192  PRO192     -0.2102
     86  CA        14.4840   54.6760   13.1930 C.3   192  PRO192      0.1504
     87  C         15.5750   54.1700   14.1350 C.2   192  PRO192      0.2575
     88  O         16.7760   54.4010   13.8750 O.2   192  PRO192     -0.2718
     89  CB        14.4140   53.8840   11.8990 C.3   192  PRO192      0.0282
     90  CG        15.1810   54.6510   10.9230 C.3   192  PRO192      0.0208
     91  CD        15.0210   56.0640   11.2670 C.3   192  PRO192      0.0893
     92  N         15.1610   53.5390   15.2410 N.am  193  ALA193     -0.1980
     93  CA        16.1100   53.0480   16.2380 C.3   193  ALA193      0.1597
     94  C         17.0930   52.0940   15.5770 C.2   193  ALA193      0.2287
     95  O         16.7100   51.1890   14.8330 O.2   193  ALA193     -0.2864
     96  CB        15.4030   52.3300   17.3850 C.3   193  ALA193      0.0319
     97  N         12.4420   56.1590   20.3420 N.3   220  ASP220     -0.1239
     98  CA        13.2200   55.5490   19.2570 C.3   220  ASP220      0.1674
     99  C         14.6930   55.9310   19.2760 C.2   220  ASP220      0.2266
    100  O         15.5550   55.1370   18.8450 O.2   220  ASP220     -0.2867
    101  CB        12.5940   55.9540   17.9100 C.3   220  ASP220      0.1410
    102  CG        11.1340   55.6620   17.8800 C.2   220  ASP220      0.3668
    103  OD1       10.7580   54.5020   17.6300 O.co2 220  ASP220     -0.2456
    104  OD2       10.3500   56.5860   18.2060 O.co2 220  ASP220     -0.2456
    105  N          7.8230   58.2080   25.1650 N.3   241  TYR241     -0.1241
    106  CA         7.6250   56.8730   24.6480 C.3   241  TYR241      0.1605
    107  C          6.6830   56.1230   25.5460 C.2   241  TYR241      0.2264
    108  O          6.5440   56.4140   26.7400 O.2   241  TYR241     -0.2867
    109  CB         8.9300   56.0840   24.6190 C.3   241  TYR241      0.0534
    110  CG         9.2480   55.2580   23.3820 C.ar  241  TYR241     -0.0201
    111  CD1       10.0100   54.0890   23.5040 C.ar  241  TYR241     -0.0009
    112  CD2        8.8680   55.6470   22.1180 C.ar  241  TYR241     -0.0009
    113  CE1       10.4480   53.4280   22.3930 C.ar  241  TYR241      0.0417
    114  CE2        9.2580   54.9410   20.9960 C.ar  241  TYR241      0.0417
    115  CZ        10.0440   53.8470   21.1330 C.ar  241  TYR241      0.1957
    116  OH        10.4690   53.1520   20.0310 O.3   241  TYR241     -0.2866
@<TRIPOS>BOND
     1    59    56    1
     2    59    60    1
     3    56    55    1
     4    56    57    1
     5    27    26    2
     6    57    58    2
     7    60    62   ar
     8    60    61   ar
     9    26    25    1
    10    62    64   ar
    11    30    28    1
    12    61    63   ar
    13    64    65   ar
    14    16    15    2
    15    25    28    1
    16    25    24    1
    17    28    29    1
    18    17    18    1
    19    17    14    1
    20    15    24   am
    21    15    14    1
    22    20    18   ar
    23    20    22   ar
    24    18    19   ar
    25    63    65   ar
    26    65    66    1
    27    73    67    1
    28    73    72    1
    29    22    23   ar
    30    67    68    1
    31    19    21   ar
    32    14    13    1
    33    23    21   ar
    34    13     3   am
    35    72    71    1
    36    68    69    1
    37    68    71    1
    38    69    70    2
    39    90    91    1
    40    90    89    1
    41     3     4    2
    42     3     2    1
    43     1     2    1
    44    91    85    1
    45     2     5    1
    46    89    86    1
    47     5     6    1
    48     8     6   ar
    49     8    10   ar
    50    83    81   ar
    51    83    84   ar
    52    39    40    1
    53    85    86    1
    54    81    79   ar
    55    41    42    2
    56    41    40    1
    57     6     7   ar
    58    77    76    2
    59    10    11   ar
    60    84    82   ar
    61    86    87    1
    62    40    43    1
    63    88    87    2
    64    76    75    1
    65    79    78    1
    66    79    80   ar
    67     7     9   ar
    68    87    92   am
    69    11     9   ar
    70    11    12    1
    71    33    34    2
    72    33    32    1
    73    82    80   ar
    74    38    36   am
    75    78    75    1
    76    95    94    2
    77    75    74    1
    78    35    32    1
    79    35    36    1
    80    92    93    1
    81    31    32    1
    82    36    37    2
    83    94    93    1
    84    93    96    1
    85    47    46    2
    86    53    54   ar
    87    53    51   ar
    88    46    45    1
    89   103   102   ar
    90    54    52   ar
    91   102   101    1
    92   102   104   ar
    93   101    98    1
    94    51    49   ar
    95    52    50   ar
    96    44    45    1
    97   100    99    2
    98    45    48    1
    99    49    50   ar
   100    49    48    1
   101    98    99    1
   102    98    97    1
   103   116   115    1
   104   114   115   ar
   105   114   112   ar
   106   115   113   ar
   107   112   110   ar
   108   113   111   ar
   109   110   111   ar
   110   110   109    1
   111   109   106    1
   112   106   105    1
   113   106   107    1
   114   107   108    2
