@<TRIPOS>MOLECULE
tmp/4evyA00.pdb
 166 161 0 0 0
SMALL
GASTEIGER

@<TRIPOS>ATOM
      1  N         -3.8960    8.7570   -4.1350 N.3    20  ARG20      -0.1245
      2  CA        -3.7990    9.7080   -3.0360 C.3    20  ARG20       0.1563
      3  C         -2.4430   10.4090   -3.0110 C.2    20  ARG20       0.2260
      4  O         -2.3590   11.6320   -2.8650 O.2    20  ARG20      -0.2867
      5  CB        -4.0240    8.9680   -1.7200 C.3    20  ARG20       0.0307
      6  CG        -4.2790    9.8560   -0.5620 C.3    20  ARG20       0.0489
      7  CD        -4.6830    9.0190    0.6200 C.3    20  ARG20       0.2205
      8  NE        -5.6020    9.7960    1.4330 N.pl3  20  ARG20      -0.0865
      9  CZ        -5.2790   10.4050    2.5650 C.cat  20  ARG20       0.5346
     10  NH1       -4.0280   10.3190    3.0320 N.pl3  20  ARG20       0.1354
     11  NH2       -6.2160   11.1060    3.2120 N.pl3  20  ARG20       0.1354
     12  N         -1.8030   13.1400   -5.4180 N.3    23  LEU23      -0.1231
     13  CA        -2.4840   14.3650   -5.0230 C.3    23  LEU23       0.1693
     14  C         -1.7580   15.0470   -3.8650 C.2    23  LEU23       0.2592
     15  O         -1.4950   16.2470   -3.9010 O.2    23  LEU23      -0.2718
     16  CB        -3.9080   14.0140   -4.5890 C.3    23  LEU23       0.0284
     17  CG        -4.8580   15.2010   -4.4620 C.3    23  LEU23       0.0019
     18  CD1       -5.0580   15.8590   -5.8180 C.3    23  LEU23       0.0001
     19  CD2       -6.1920   14.7760   -3.8620 C.3    23  LEU23       0.0001
     20  N         -1.4460   14.2680   -2.8370 N.am   24  TRP24      -0.1962
     21  CA        -0.7940   14.7730   -1.6300 C.3    24  TRP24       0.1771
     22  C          0.3970   13.8690   -1.3000 C.2    24  TRP24       0.2620
     23  O          0.2230   12.7020   -0.9350 O.2    24  TRP24      -0.2715
     24  CB        -1.7690   14.7490   -0.4350 C.3    24  TRP24       0.0590
     25  CG        -3.0660   15.4720   -0.6560 C.ar   24  TRP24       0.0006
     26  CD1       -3.2240   16.7340   -1.1590 C.ar   24  TRP24       0.0946
     27  CD2       -4.3760   15.0030   -0.3330 C.ar   24  TRP24       0.0152
     28  NE1       -4.5560   17.0670   -1.1920 N.ar   24  TRP24      -0.2442
     29  CE2       -5.2840   16.0230   -0.6960 C.ar   24  TRP24       0.0810
     30  CE3       -4.8740   13.8120    0.1990 C.ar   24  TRP24       0.0012
     31  CZ2       -6.6640   15.8940   -0.5270 C.ar   24  TRP24       0.0191
     32  CZ3       -6.2490   13.6850    0.3670 C.ar   24  TRP24       0.0001
     33  CH2       -7.1270   14.7220   -0.0090 C.ar   24  TRP24       0.0015
     34  N          1.6000   14.3990   -1.4170 N.am   25  SER25      -0.1936
     35  CA         2.7860   13.5950   -1.1720 C.3    25  SER25       0.2055
     36  C          3.0060   13.4020    0.3240 C.2    25  SER25       0.2643
     37  O          2.9500   14.3590    1.1060 O.2    25  SER25      -0.2714
     38  CB         4.0160   14.2330   -1.8100 C.3    25  SER25       0.2130
     39  OG         4.2920   15.4810   -1.2110 O.3    25  SER25      -0.2179
     40  N          3.2580   12.1530    0.7070 N.am   26  ASP26      -0.1971
     41  CA         3.6250   11.7950    2.0800 C.3    26  ASP26       0.1709
     42  C          4.2180   10.3820    2.0640 C.2    26  ASP26       0.2293
     43  O          4.2300    9.7250    1.0110 O.2    26  ASP26      -0.2864
     44  CB         2.3950   11.8430    2.9890 C.3    26  ASP26       0.1436
     45  CG         2.7580   12.0070    4.4500 C.2    26  ASP26       0.3671
     46  OD1        3.9520   11.8610    4.7960 O.co2  26  ASP26      -0.2456
     47  OD2        1.8370   12.2670    5.2580 O.co2  26  ASP26      -0.2456
     48  N          2.5380    6.9310    6.6410 N.3    30  SER30      -0.1202
     49  CA         1.6500    8.0220    7.0730 C.3    30  SER30       0.2020
     50  C          0.3200    8.0390    6.3330 C.2    30  SER30       0.2618
     51  O         -0.7450    8.1680    6.9530 O.2    30  SER30      -0.2717
     52  CB         2.3360    9.3970    6.9730 C.3    30  SER30       0.2103
     53  OG         1.4770   10.4210    7.4490 O.3    30  SER30      -0.2182
     54  N          0.3690    7.9310    4.9980 N.am   31  HIS31      -0.1975
     55  CA        -0.8540    7.7920    4.2380 C.3    31  HIS31       0.1656
     56  C         -1.6680    6.6120    4.7100 C.2    31  HIS31       0.2291
     57  O         -2.8690    6.7360    4.9510 O.2    31  HIS31      -0.2864
     58  CB        -0.5510    7.5660    2.7660 C.3    31  HIS31       0.0771
     59  CG        -0.4280    8.8180    1.9700 C.ar   31  HIS31       0.0820
     60  ND1        0.6850    9.1030    1.2040 N.ar   31  HIS31      -0.2267
     61  CD2       -1.2910    9.8490    1.7870 C.ar   31  HIS31       0.1154
     62  CE1        0.5070   10.2630    0.5920 C.ar   31  HIS31       0.1986
     63  NE2       -0.6790   10.7410    0.9350 N.ar   31  HIS31      -0.2212
     64  N         -3.4230    7.0560    8.1610 N.3    34  GLU34      -0.1245
     65  CA        -4.5640    7.9420    7.9080 C.3    34  GLU34       0.1567
     66  C         -5.7250    7.2900    7.1500 C.2    34  GLU34       0.2260
     67  O         -6.8870    7.4850    7.5010 O.2    34  GLU34      -0.2867
     68  CB        -4.1030    9.1770    7.1360 C.3    34  GLU34       0.0388
     69  CG        -4.9440   10.3890    7.3830 C.3    34  GLU34       0.1160
     70  CD        -4.3340   11.6160    6.7200 C.2    34  GLU34       0.3649
     71  OE1       -3.9520   12.5670    7.4440 O.co2  34  GLU34      -0.2457
     72  OE2       -4.2180   11.6050    5.4730 O.co2  34  GLU34      -0.2457
     73  N         -9.7000    6.8110    8.2080 N.3    38  LEU38      -0.1245
     74  CA       -10.7830    7.3000    7.3440 C.3    38  LEU38       0.1561
     75  C        -11.8160    6.2100    7.0610 C.2    38  LEU38       0.2260
     76  O        -13.0250    6.4780    7.0480 O.2    38  LEU38      -0.2867
     77  CB       -10.2260    7.8710    6.0300 C.3    38  LEU38       0.0270
     78  CG        -9.4680    9.1970    6.1380 C.3    38  LEU38       0.0019
     79  CD1       -8.7690    9.5460    4.8020 C.3    38  LEU38       0.0001
     80  CD2      -10.4470   10.3130    6.5310 C.3    38  LEU38       0.0001
     81  N        -12.1850   12.1660   -2.0710 N.3    60  GLU60      -0.1245
     82  CA       -12.3810   12.1050   -0.6270 C.3    60  GLU60       0.1567
     83  C        -13.2600   13.2720   -0.1890 C.2    60  GLU60       0.2260
     84  O        -13.0480   14.4150   -0.6080 O.2    60  GLU60      -0.2867
     85  CB       -11.0310   12.1480    0.1180 C.3    60  GLU60       0.0388
     86  CG       -10.2100   10.8920   -0.1110 C.3    60  GLU60       0.1160
     87  CD        -8.8770   10.8630    0.6530 C.2    60  GLU60       0.3649
     88  OE1       -7.9710   10.1340    0.1860 O.co2  60  GLU60      -0.2457
     89  OE2       -8.7320   11.5540    1.7030 O.co2  60  GLU60      -0.2457
     90  N        -18.8210   18.3180    7.4660 N.3    64  ARG64      -0.1245
     91  CA       -18.2220   19.2950    8.3880 C.3    64  ARG64       0.1563
     92  C        -19.3200   19.9040    9.2280 C.2    64  ARG64       0.2260
     93  O        -20.2700   20.4840    8.6910 O.2    64  ARG64      -0.2867
     94  CB       -17.5420   20.4510    7.6360 C.3    64  ARG64       0.0307
     95  CG       -16.2970   20.1330    6.8080 C.3    64  ARG64       0.0489
     96  CD       -15.1510   19.4810    7.5970 C.3    64  ARG64       0.2205
     97  NE       -13.9850   19.4050    6.7050 N.pl3  64  ARG64      -0.0865
     98  CZ       -13.0040   20.3020    6.6750 C.cat  64  ARG64       0.5346
     99  NH1      -13.0220   21.3230    7.5270 N.pl3  64  ARG64       0.1354
    100  NH2      -11.9960   20.1680    5.8080 N.pl3  64  ARG64       0.1354
    101  N        -18.3030   18.3190    2.2520 N.3    78  PHE78      -0.1227
    102  CA       -17.0930   19.0690    1.9060 C.3    78  PHE78       0.1736
    103  C        -16.1470   18.2180    1.1100 C.2    78  PHE78       0.2595
    104  O        -15.7840   17.1070    1.5320 O.2    78  PHE78      -0.2718
    105  CB       -16.3630   19.5920    3.1610 C.3    78  PHE78       0.0547
    106  CG       -15.2440   20.5370    2.8270 C.ar   78  PHE78      -0.0202
    107  CD1      -15.5310   21.8700    2.5500 C.ar   78  PHE78      -0.0042
    108  CD2      -13.9250   20.0940    2.7600 C.ar   78  PHE78      -0.0042
    109  CE1      -14.5210   22.7580    2.2160 C.ar   78  PHE78      -0.0003
    110  CE2      -12.9010   20.9760    2.4060 C.ar   78  PHE78      -0.0003
    111  CZ       -13.2060   22.3120    2.1500 C.ar   78  PHE78      -0.0000
    112  N        -15.7390   18.7250   -0.0520 N.am   79  LEU79      -0.1966
    113  CA       -14.8410   17.9910   -0.9290 C.3    79  LEU79       0.1728
    114  C        -13.4130   18.1950   -0.4350 C.2    79  LEU79       0.2616
    115  O        -12.8870   19.3060   -0.4580 O.2    79  LEU79      -0.2715
    116  CB       -15.0090   18.4700   -2.3840 C.3    79  LEU79       0.0311
    117  CG       -14.1310   17.7230   -3.4020 C.3    79  LEU79       0.0022
    118  CD1      -14.5250   16.2400   -3.4220 C.3    79  LEU79       0.0001
    119  CD2      -14.3160   18.3130   -4.8310 C.3    79  LEU79       0.0001
    120  N        -12.7880   17.1340    0.0620 N.am   80  GLU80      -0.1963
    121  CA       -11.4500   17.2870    0.6210 C.3    80  GLU80       0.1733
    122  C        -10.4040   17.1820   -0.4830 C.2    80  GLU80       0.2616
    123  O         -9.3510   17.8150   -0.4290 O.2    80  GLU80      -0.2715
    124  CB       -11.1750   16.2110    1.6780 C.3    80  GLU80       0.0429
    125  CG       -12.0990   16.2550    2.8850 C.3    80  GLU80       0.1163
    126  CD       -11.8560   17.4520    3.8130 C.2    80  GLU80       0.3649
    127  OE1      -10.9760   18.3220    3.5010 O.co2  80  GLU80      -0.2457
    128  OE2      -12.5770   17.5270    4.8550 O.co2  80  GLU80      -0.2457
    129  N        -10.6820   16.3460   -1.4780 N.am   81  GLY81      -0.1955
    130  CA        -9.7840   16.2360   -2.6160 C.3    81  GLY81       0.1869
    131  C        -10.3500   15.3370   -3.6960 C.2    81  GLY81       0.2309
    132  O        -11.1430   14.4250   -3.4300 O.2    81  GLY81      -0.2863
    133  N        -16.3360   23.2290   -1.0870 N.3   115  SER115     -0.1202
    134  CA       -15.0080   22.6900   -1.3530 C.3   115  SER115      0.2020
    135  C        -14.0190   23.8550   -1.2400 C.2   115  SER115      0.2619
    136  O        -14.4320   25.0030   -1.1080 O.2   115  SER115     -0.2717
    137  CB       -14.9540   22.1000   -2.7730 C.3   115  SER115      0.2103
    138  OG       -13.6470   21.5770   -3.0810 O.3   115  SER115     -0.2182
    139  N        -12.7250   23.5670   -1.2870 N.am  116  ASP116     -0.1959
    140  CA       -11.7790   24.6550   -1.5170 C.3   116  ASP116      0.1840
    141  C        -10.6390   24.2150   -2.4450 C.2   116  ASP116      0.2622
    142  O        -10.5370   23.0310   -2.7950 O.2   116  ASP116     -0.2715
    143  CB       -11.3070   25.3290   -0.1800 C.3   116  ASP116      0.1450
    144  CG       -10.5330   24.3910    0.7370 C.2   116  ASP116      0.3671
    145  OD1      -10.0990   23.2970    0.2860 O.co2 116  ASP116     -0.2456
    146  OD2      -10.3560   24.7590    1.9440 O.co2 116  ASP116     -0.2456
    147  N         -9.8320   25.1760   -2.8920 N.am  117  ALA117     -0.1963
    148  CA        -8.6990   24.8730   -3.7510 C.3   117  ALA117      0.1728
    149  C         -7.6200   25.8950   -3.4370 C.2   117  ALA117      0.2616
    150  O         -7.9420   27.0170   -3.0690 O.2   117  ALA117     -0.2715
    151  CB        -9.0990   25.0100   -5.2200 C.3   117  ALA117      0.0334
    152  N         -6.3520   25.5290   -3.6150 N.am  118  ALA118     -0.1977
    153  CA        -5.2600   26.5020   -3.4990 C.3   118  ALA118      0.1597
    154  C         -5.5290   27.6680   -4.4440 C.2   118  ALA118      0.2287
    155  O         -5.9550   27.4610   -5.5830 O.2   118  ALA118     -0.2864
    156  CB        -3.9350   25.8540   -3.8600 C.3   118  ALA118      0.0319
    157  N        -13.6500   22.7220  -10.6150 N.3   128  HIS128     -0.1241
    158  CA       -14.7630   22.9560   -9.6920 C.3   128  HIS128      0.1621
    159  C        -15.9600   23.5520  -10.4240 C.2   128  HIS128      0.2264
    160  O        -17.0980   23.1150  -10.2240 O.2   128  HIS128     -0.2867
    161  CB       -14.3330   23.9040   -8.5420 C.3   128  HIS128      0.0745
    162  CG       -13.6230   23.2260   -7.4260 C.ar  128  HIS128      0.0817
    163  ND1      -12.2870   22.8940   -7.4740 N.ar  128  HIS128     -0.2268
    164  CD2      -14.0670   22.8290   -6.2050 C.ar  128  HIS128      0.1154
    165  CE1      -11.9370   22.3100   -6.3370 C.ar  128  HIS128      0.1986
    166  NE2      -13.0020   22.2540   -5.5510 N.ar  128  HIS128     -0.2212
@<TRIPOS>BOND
     1   157   158    1
     2   159   160    2
     3   159   158    1
     4   158   161    1
     5   161   162    1
     6   163   162   ar
     7   163   165   ar
     8   162   164   ar
     9   165   166   ar
    10   164   166   ar
    11    18    17    1
    12   155   154    2
    13    12    13    1
    14   151   148    1
    15    13    16    1
    16    13    14    1
    17   119   117    1
    18    16    17    1
    19    17    19    1
    20   154   153    1
    21     1     2    1
    22    15    14    2
    23    14    20   am
    24   156   153    1
    25   148   149    1
    26   148   147    1
    27   131   132    2
    28   131   130    1
    29   152   153    1
    30   152   149   am
    31   149   150    2
    32   118   117    1
    33   117   116    1
    34   138   137    1
    35     2     3    1
    36     2     5    1
    37     3     4    2
    38   147   141   am
    39    20    21    1
    40   142   141    2
    41   137   134    1
    42   130   129    1
    43   141   140    1
    44   116   113    1
    45    81    82    1
    46    38    39    1
    47    38    35    1
    48     5     6    1
    49    21    22    1
    50    21    24    1
    51   140   139    1
    52   140   143    1
    53   129   122   am
    54    34    22   am
    55    34    35    1
    56   134   135    1
    57   134   133    1
    58    22    23    2
    59   139   135   am
    60   135   136    2
    61    28    26   ar
    62    28    29   ar
    63    35    36    1
    64    26    25   ar
    65   113   114    1
    66   113   112    1
    67    29    31   ar
    68    29    27   ar
    69    25    24    1
    70    25    27   ar
    71    82    83    1
    72    82    85    1
    73    84    83    2
    74     6     7    1
    75    31    33   ar
    76   122   123    2
    77   122   121    1
    78   115   114    2
    79   114   120   am
    80    27    30   ar
    81   143   144    1
    82    86    85    1
    83    86    87    1
    84   112   103   am
    85    33    32   ar
    86   120   121    1
    87    88    87   ar
    88    30    32   ar
    89   145   144   ar
    90    36    40   am
    91    36    37    2
    92    62    63   ar
    93    62    60   ar
    94     7     8    1
    95   121   124    1
    96    87    89   ar
    97    40    41    1
    98   144   146   ar
    99    63    61   ar
   100    43    42    2
   101   103   104    2
   102   103   102    1
   103    60    59   ar
   104     8     9    2
   105   124   125    1
   106    61    59   ar
   107   102   101    1
   108   102   105    1
   109    59    58    1
   110    42    41    1
   111    41    44    1
   112   111   109   ar
   113   111   110   ar
   114   109   107   ar
   115   110   108   ar
   116   107   106   ar
   117     9    10    1
   118     9    11    1
   119   108   106   ar
   120    58    55    1
   121   106   105    1
   122   125   126    1
   123    44    45    1
   124   127   126   ar
   125   126   128   ar
   126    55    56    1
   127    55    54    1
   128    45    46   ar
   129    45    47   ar
   130    56    57    2
   131    79    78    1
   132    54    50   am
   133    72    70   ar
   134   100    98    1
   135    77    78    1
   136    77    74    1
   137    78    80    1
   138    50    51    2
   139    50    49    1
   140    48    49    1
   141    98    97    2
   142    98    99    1
   143    97    96    1
   144    70    69    1
   145    70    71   ar
   146    95    96    1
   147    95    94    1
   148    52    49    1
   149    52    53    1
   150    76    75    2
   151    75    74    1
   152    68    69    1
   153    68    65    1
   154    66    67    2
   155    66    65    1
   156    74    73    1
   157    90    91    1
   158    94    91    1
   159    65    64    1
   160    91    92    1
   161    93    92    2
