@<TRIPOS>MOLECULE
tmp/4ew3A00.pdb
 79 76 0 0 0
SMALL
GASTEIGER

@<TRIPOS>ATOM
      1  N         -8.8440   64.9560   99.4460 N.3    85  LEU85      -0.1245
      2  CA        -8.2010   65.4860   98.2400 C.3    85  LEU85       0.1561
      3  C         -8.6970   64.6800   97.0790 C.2    85  LEU85       0.2260
      4  O         -8.7770   63.4370   97.1360 O.2    85  LEU85      -0.2867
      5  CB        -6.6730   65.4310   98.3300 C.3    85  LEU85       0.0270
      6  CG        -5.9510   66.0090   99.5540 C.3    85  LEU85       0.0019
      7  CD1       -4.4610   65.9360   99.3670 C.3    85  LEU85       0.0001
      8  CD2       -6.3520   67.4890   99.8090 C.3    85  LEU85       0.0001
      9  N         -7.6540   64.9740   93.2900 N.3    87  GLY87      -0.1210
     10  CA        -6.8540   65.5470   92.2260 C.3    87  GLY87       0.1956
     11  C         -6.3250   66.9180   92.5490 C.2    87  GLY87       0.2612
     12  O         -6.2790   67.7760   91.6820 O.2    87  GLY87      -0.2717
     13  N         -5.9720   67.1570   93.8290 N.am   88  PHE88      -0.1962
     14  CA        -5.3870   68.4230   94.2020 C.3    88  PHE88       0.1771
     15  C         -3.8930   68.4640   93.8820 C.2    88  PHE88       0.2619
     16  O         -3.1150   67.6710   94.4350 O.2    88  PHE88      -0.2715
     17  CB        -5.6860   68.7310   95.7090 C.3    88  PHE88       0.0574
     18  CG        -5.2770   70.0870   96.1260 C.ar   88  PHE88      -0.0200
     19  CD1       -6.0010   71.1920   95.7250 C.ar   88  PHE88      -0.0042
     20  CD2       -4.1950   70.2760   96.9660 C.ar   88  PHE88      -0.0042
     21  CE1       -5.6070   72.4500   96.0650 C.ar   88  PHE88      -0.0003
     22  CE2       -3.8070   71.5340   97.3320 C.ar   88  PHE88      -0.0003
     23  CZ        -4.5230   72.6440   96.8960 C.ar   88  PHE88      -0.0000
     24  N         -3.4770   69.3940   93.0220 N.am   89  MET89      -0.1963
     25  CA        -2.1270   69.3410   92.4400 C.3    89  MET89       0.1736
     26  C         -1.1100   70.2920   93.0210 C.2    89  MET89       0.2616
     27  O         -0.0820   70.5780   92.3840 O.2    89  MET89      -0.2715
     28  CB        -2.2310   69.5250   90.9010 C.3    89  MET89       0.0427
     29  CG        -3.1500   68.5010   90.2870 C.3    89  MET89       0.0599
     30  SD        -2.6490   66.7880   90.6210 S.3    89  MET89      -0.1393
     31  CE        -0.9760   66.9570   90.0530 C.3    89  MET89       0.0692
     32  N         -1.3460   70.7860   94.2430 N.am   90  ARG90      -0.1963
     33  CA        -0.3500   71.6020   94.8910 C.3    90  ARG90       0.1729
     34  C          0.0500   70.8470   96.1450 C.2    90  ARG90       0.2616
     35  O         -0.8140   70.3850   96.8880 O.2    90  ARG90      -0.2715
     36  CB        -0.8770   72.9720   95.3050 C.3    90  ARG90       0.0348
     37  CG        -1.4610   73.8200   94.1620 C.3    90  ARG90       0.0492
     38  CD        -0.3990   74.1350   93.1910 C.3    90  ARG90       0.2205
     39  NE         0.6060   75.0180   93.7440 N.pl3  90  ARG90      -0.0865
     40  CZ         1.5960   75.5450   93.0420 C.cat  90  ARG90       0.5346
     41  NH1        1.7170   75.2740   91.7420 N.pl3  90  ARG90       0.1354
     42  NH2        2.4690   76.3300   93.6330 N.pl3  90  ARG90       0.1354
     43  N          1.3560   70.7640   96.3550 N.am   91  ILE91      -0.1963
     44  CA         1.9020   70.1740   97.5750 C.3    91  ILE91       0.1727
     45  C          1.5490   71.0720   98.7400 C.2    91  ILE91       0.2616
     46  O          1.8530   72.2680   98.7420 O.2    91  ILE91      -0.2715
     47  CB         3.4460   69.9700   97.5100 C.3    91  ILE91       0.0290
     48  CG1        3.8440   68.9990   96.4000 C.3    91  ILE91       0.0022
     49  CG2        3.9450   69.3940   98.8210 C.3    91  ILE91       0.0023
     50  CD1        3.1970   67.6800   96.5150 C.3    91  ILE91       0.0001
     51  N          0.9030   70.4680   99.7270 N.am   92  LEU92      -0.1977
     52  CA         0.4800   71.1900  100.9220 C.3    92  LEU92       0.1596
     53  C          1.6600   71.2610  101.8900 C.2    92  LEU92       0.2287
     54  O          2.4090   70.2990  102.0080 O.2    92  LEU92      -0.2864
     55  CB        -0.7350   70.5200  101.5600 C.3    92  LEU92       0.0297
     56  CG        -2.0270   70.5960  100.7390 C.3    92  LEU92       0.0022
     57  CD1       -3.0440   69.5060  101.1060 C.3    92  LEU92       0.0001
     58  CD2       -2.6330   72.0040  100.8330 C.3    92  LEU92       0.0001
     59  N         -0.4010   70.2170  106.7280 N.3    97  VAL97      -0.1245
     60  CA        -0.5980   68.7730  106.8390 C.3    97  VAL97       0.1561
     61  C         -0.6530   68.3400  108.3130 C.2    97  VAL97       0.2260
     62  O         -1.4640   67.4850  108.6890 O.2    97  VAL97      -0.2867
     63  CB         0.5100   67.9820  106.1020 C.3    97  VAL97       0.0252
     64  CG1        0.3840   66.5050  106.3880 C.3    97  VAL97       0.0019
     65  CG2        0.4130   68.2160  104.5610 C.3    97  VAL97       0.0019
     66  N          0.0990   62.6850  104.3570 N.3   140  ALA140     -0.1231
     67  CA         1.3460   63.0450  105.0200 C.3   140  ALA140      0.1694
     68  C          2.1010   64.1060  104.2600 C.2   140  ALA140      0.2595
     69  O          1.7290   64.4680  103.1280 O.2   140  ALA140     -0.2718
     70  CB         2.2340   61.7850  105.2150 C.3   140  ALA140      0.0304
     71  N          3.1670   64.6210  104.8460 N.am  141  GLU141     -0.1934
     72  CA         3.9410   65.6810  104.1940 C.3   141  GLU141      0.1818
     73  C          4.5160   65.1760  102.8830 C.2   141  GLU141      0.2332
     74  O          4.4860   65.8820  101.8740 O.2   141  GLU141     -0.2860
     75  CB         5.0990   66.2170  105.0560 C.2   141  GLU141      0.0097
     76  CG         4.6840   66.9740  106.2970 C.2   141  GLU141      0.0837
     77  CD         5.8410   67.6960  107.0510 C.2   141  GLU141      0.3877
     78  OE1        6.9180   67.9340  106.4610 O.co2 141  GLU141     -0.2406
     79  OE2        5.6340   68.0590  108.2390 O.co2 141  GLU141     -0.2406
@<TRIPOS>BOND
     1    31    30    1
     2    29    30    1
     3    29    28    1
     4    28    25    1
     5    12    11    2
     6    41    40    1
     7    10    11    1
     8    10     9    1
     9    27    26    2
    10    25    26    1
    11    25    24    1
    12    11    13   am
    13    26    32   am
    14    24    15   am
    15    40    42    1
    16    40    39    2
    17    38    39    1
    18    38    37    1
    19    13    14    1
    20    15    14    1
    21    15    16    2
    22    37    36    1
    23    14    17    1
    24    32    33    1
    25    33    36    1
    26    33    34    1
    27    17    18    1
    28    19    21   ar
    29    19    18   ar
    30    21    23   ar
    31    18    20   ar
    32    34    43   am
    33    34    35    2
    34    43    44    1
    35    48    50    1
    36    48    47    1
    37    23    22   ar
    38    20    22   ar
    39     3     4    2
    40     3     2    1
    41    47    44    1
    42    47    49    1
    43    44    45    1
    44     2     5    1
    45     2     1    1
    46     5     6    1
    47    45    46    2
    48    45    51   am
    49     7     6    1
    50     6     8    1
    51    51    52    1
    52    56    58    1
    53    56    57    1
    54    56    55    1
    55    52    55    1
    56    52    53    1
    57    74    73    2
    58    53    54    2
    59    73    72    1
    60    69    68    2
    61    72    71    1
    62    72    75    1
    63    68    71   am
    64    68    67    1
    65    66    67    1
    66    65    63    1
    67    67    70    1
    68    75    76    2
    69    63    64    1
    70    63    60    1
    71    76    77    1
    72    78    77   ar
    73    59    60    1
    74    60    61    1
    75    77    79   ar
    76    61    62    2
