@<TRIPOS>MOLECULE
tmp/4ew9B02.pdb
 84 75 0 0 0
SMALL
GASTEIGER

@<TRIPOS>ATOM
      1  N         -5.5680   12.3510   24.5290 N.3    41  GLU41      -0.1245
      2  CA        -5.1090   13.7140   24.8560 C.3    41  GLU41       0.1567
      3  C         -5.0200   13.9720   26.3310 C.2    41  GLU41       0.2260
      4  O         -4.7370   15.0750   26.7230 O.2    41  GLU41      -0.2867
      5  CB        -6.0640   14.7990   24.2310 C.3    41  GLU41       0.0388
      6  CG        -6.1810   14.7600   22.7180 C.3    41  GLU41       0.1160
      7  CD        -4.9830   15.3740   21.9780 C.2    41  GLU41       0.3649
      8  OE1       -3.9700   15.6790   22.6520 O.co2  41  GLU41      -0.2457
      9  OE2       -4.9700   15.4430   20.7200 O.co2  41  GLU41      -0.2457
     10  N          2.6880   12.0170   27.1680 N.3    66  ASP66      -0.1239
     11  CA         2.6270   13.3230   26.5480 C.3    66  ASP66       0.1674
     12  C          3.9650   14.0290   26.5300 C.2    66  ASP66       0.2266
     13  O          4.0320   15.2760   26.4830 O.2    66  ASP66      -0.2867
     14  CB         1.5740   14.1730   27.1440 C.3    66  ASP66       0.1410
     15  CG         0.8460   14.9620   26.0370 C.2    66  ASP66       0.3668
     16  OD1        0.2860   14.3770   25.0650 O.co2  66  ASP66      -0.2456
     17  OD2        0.8510   16.2020   26.0510 O.co2  66  ASP66      -0.2456
     18  N          1.8100   10.6560   22.4970 N.3    86  GLU86      -0.1231
     19  CA         0.7690   11.3840   21.8070 C.3    86  GLU86       0.1699
     20  C          1.4650   12.4460   20.9400 C.2    86  GLU86       0.2592
     21  O          1.0790   12.6140   19.7930 O.2    86  GLU86      -0.2718
     22  CB        -0.2100   12.0360   22.7930 C.3    86  GLU86       0.0402
     23  CG        -1.5480   12.5120   22.1600 C.3    86  GLU86       0.1161
     24  CD        -1.5490   13.8610   21.5270 C.2    86  GLU86       0.3649
     25  OE1       -0.9680   14.7850   22.0580 O.co2  86  GLU86      -0.2457
     26  OE2       -2.2700   14.0720   20.4990 O.co2  86  GLU86      -0.2457
     27  N          2.4700   13.1090   21.5440 N.am   87  ASP87      -0.1974
     28  CA         3.4180   13.9240   20.8430 C.3    87  ASP87       0.1709
     29  C          4.7160   13.8770   21.6160 C.2    87  ASP87       0.2293
     30  O          4.7350   13.4040   22.7700 O.2    87  ASP87      -0.2864
     31  CB         2.8610   15.3620   20.6410 C.3    87  ASP87       0.1436
     32  CG         2.0630   15.9060   21.8250 C.2    87  ASP87       0.3671
     33  OD1        1.2240   16.8430   21.5510 O.co2  87  ASP87      -0.2456
     34  OD2        2.2510   15.5490   22.9990 O.co2  87  ASP87      -0.2456
     35  N          5.7290   19.7820   23.4070 N.3    90  THR90      -0.1218
     36  CA         4.7030   20.7970   23.2540 C.3    90  THR90       0.1862
     37  C          5.2180   22.1050   23.8150 C.2    90  THR90       0.2287
     38  O          5.7080   22.1100   24.9530 O.2    90  THR90      -0.2866
     39  CB         3.4080   20.4080   23.9850 C.3    90  THR90       0.1770
     40  OG1        2.9900   19.0860   23.5820 O.3    90  THR90      -0.2211
     41  CG2        2.3670   21.4290   23.7250 C.3    90  THR90       0.0375
     42  N          3.9590   25.1470   25.4330 N.3    92  LYS92      -0.1245
     43  CA         2.6880   25.4160   26.1640 C.3    92  LYS92       0.1561
     44  C          2.5750   26.8870   26.5070 C.2    92  LYS92       0.2260
     45  O          1.5110   27.3170   26.8170 O.2    92  LYS92      -0.2867
     46  CB         2.6670   24.6370   27.4880 C.3    92  LYS92       0.0271
     47  CG         2.6890   23.0970   27.4030 C.3    92  LYS92       0.0035
     48  CD         1.3810   22.4510   26.9390 C.3    92  LYS92       0.0206
     49  CE         0.2550   22.5820   27.9690 C.3    92  LYS92       0.1093
     50  NZ        -0.8990   21.6710   27.5610 N.3    92  LYS92      -0.1314
     51  N          1.7740   13.9590   15.7700 N.3   110  LYS110     -0.1245
     52  CA         2.7850   14.9350   15.8450 C.3   110  LYS110      0.1561
     53  C          4.0190   14.4980   16.5960 C.2   110  LYS110      0.2260
     54  O          3.9510   13.8180   17.6470 O.2   110  LYS110     -0.2867
     55  CB         2.2640   16.2010   16.5760 C.3   110  LYS110      0.0271
     56  CG         1.8000   17.3220   15.7070 C.3   110  LYS110      0.0035
     57  CD         0.6030   16.9300   14.8340 C.3   110  LYS110      0.0206
     58  CE        -0.7730   17.0320   15.4670 C.3   110  LYS110      0.1093
     59  NZ        -1.7430   16.5270   14.4570 N.3   110  LYS110     -0.1314
     60  N          4.3850   19.9490   18.8650 N.3   113  GLN113     -0.1245
     61  CA         3.0480   20.6170   18.9510 C.3   113  GLN113      0.1566
     62  C          3.2420   22.0190   19.5440 C.2   113  GLN113      0.2260
     63  O          3.7340   22.0910   20.6830 O.2   113  GLN113     -0.2867
     64  CB         2.1890   19.7900   19.8600 C.3   113  GLN113      0.0367
     65  CG         0.7430   20.1970   20.0820 C.3   113  GLN113      0.0905
     66  CD        -0.2040   20.0770   18.8790 C.2   113  GLN113      0.2608
     67  OE1       -0.1410   19.1090   18.0840 O.2   113  GLN113     -0.2717
     68  NE2       -1.0910   21.0770   18.7470 N.am  113  GLN113     -0.0878
     69  N          1.6140   25.3920   20.8780 N.3   115  ASN115     -0.1240
     70  CA         0.3020   25.8540   21.3570 C.3   115  ASN115      0.1653
     71  C          0.3420   27.2800   21.8380 C.2   115  ASN115      0.2266
     72  O         -0.6730   27.7750   22.3370 O.2   115  ASN115     -0.2867
     73  CB        -0.2340   24.9220   22.4590 C.3   115  ASN115      0.1155
     74  CG        -0.5600   23.5630   21.9420 C.2   115  ASN115      0.2627
     75  OD1       -0.5980   23.3510   20.7110 O.2   115  ASN115     -0.2716
     76  ND2       -0.8670   22.6310   22.8780 N.am  115  ASN115     -0.0877
     77  N         -0.8410   24.6400   16.7410 N.3   137  ASN137     -0.1240
     78  CA        -2.1840   24.2340   17.1840 C.3   137  ASN137      0.1653
     79  C         -3.2700   24.5430   16.1390 C.2   137  ASN137      0.2266
     80  O         -3.3490   25.6600   15.6060 O.2   137  ASN137     -0.2867
     81  CB        -2.4960   24.8320   18.5320 C.3   137  ASN137      0.1155
     82  CG        -3.5270   24.0080   19.3000 C.2   137  ASN137      0.2627
     83  OD1       -3.8480   22.9000   18.9210 O.2   137  ASN137     -0.2716
     84  ND2       -4.0330   24.5850   20.3950 N.am  137  ASN137     -0.0877
@<TRIPOS>BOND
     1    59    58    1
     2    57    58    1
     3    57    56    1
     4    80    79    2
     5    56    55    1
     6    51    52    1
     7    52    55    1
     8    52    53    1
     9    79    78    1
    10    53    54    2
    11    77    78    1
    12    78    81    1
    13    67    66    2
    14    81    82    1
    15    68    66   am
    16    60    61    1
    17    66    65    1
    18    83    82    2
    19    61    62    1
    20    61    64    1
    21    82    84   am
    22    62    63    2
    23    21    20    2
    24    64    65    1
    25    26    24   ar
    26    31    28    1
    27    31    32    1
    28    75    74    2
    29     9     7   ar
    30    28    27    1
    31    28    29    1
    32    69    70    1
    33    20    27   am
    34    20    19    1
    35    70    71    1
    36    70    73    1
    37    24    25   ar
    38    24    23    1
    39    33    32   ar
    40    29    30    2
    41    19    18    1
    42    19    22    1
    43    32    34   ar
    44    71    72    2
    45    74    73    1
    46    74    76   am
    47     7     8   ar
    48     7     6    1
    49    23    22    1
    50     6     5    1
    51    36    35    1
    52    36    37    1
    53    36    39    1
    54    40    39    1
    55    41    39    1
    56    37    38    2
    57     5     2    1
    58     1     2    1
    59     2     3    1
    60    16    15   ar
    61    42    43    1
    62    15    17   ar
    63    15    14    1
    64    43    44    1
    65    43    46    1
    66     3     4    2
    67    13    12    2
    68    44    45    2
    69    12    11    1
    70    11    14    1
    71    11    10    1
    72    48    47    1
    73    48    49    1
    74    47    46    1
    75    50    49    1
