@<TRIPOS>MOLECULE
tmp/4ew9B01.pdb
 102 93 0 0 0
SMALL
GASTEIGER

@<TRIPOS>ATOM
      1  N         -2.8960    8.0310   21.2020 N.3    39  GLN39      -0.1245
      2  CA        -3.3520    9.3410   20.8180 C.3    39  GLN39       0.1566
      3  C         -4.3400   10.0060   21.7900 C.2    39  GLN39       0.2260
      4  O         -4.7800   11.1380   21.5650 O.2    39  GLN39      -0.2867
      5  CB        -3.8110    9.3510   19.3370 C.3    39  GLN39       0.0367
      6  CG        -2.6030    9.1260   18.3820 C.3    39  GLN39       0.0905
      7  CD        -1.6200   10.3030   18.4910 C.2    39  GLN39       0.2608
      8  OE1       -2.0360   11.4840   18.4550 O.2    39  GLN39      -0.2717
      9  NE2       -0.3720   10.0040   18.7810 N.am   39  GLN39      -0.0878
     10  N         -5.5680   12.3510   24.5290 N.3    41  GLU41      -0.1245
     11  CA        -5.1090   13.7140   24.8560 C.3    41  GLU41       0.1567
     12  C         -5.0200   13.9720   26.3310 C.2    41  GLU41       0.2260
     13  O         -4.7370   15.0750   26.7230 O.2    41  GLU41      -0.2867
     14  CB        -6.0640   14.7990   24.2310 C.3    41  GLU41       0.0388
     15  CG        -6.1810   14.7600   22.7180 C.3    41  GLU41       0.1160
     16  CD        -4.9830   15.3740   21.9780 C.2    41  GLU41       0.3649
     17  OE1       -3.9700   15.6790   22.6520 O.co2  41  GLU41      -0.2457
     18  OE2       -4.9700   15.4430   20.7200 O.co2  41  GLU41      -0.2457
     19  N          1.8100   10.6560   22.4970 N.3    86  GLU86      -0.1231
     20  CA         0.7690   11.3840   21.8070 C.3    86  GLU86       0.1699
     21  C          1.4650   12.4460   20.9400 C.2    86  GLU86       0.2592
     22  O          1.0790   12.6140   19.7930 O.2    86  GLU86      -0.2718
     23  CB        -0.2100   12.0360   22.7930 C.3    86  GLU86       0.0402
     24  CG        -1.5480   12.5120   22.1600 C.3    86  GLU86       0.1161
     25  CD        -1.5490   13.8610   21.5270 C.2    86  GLU86       0.3649
     26  OE1       -0.9680   14.7850   22.0580 O.co2  86  GLU86      -0.2457
     27  OE2       -2.2700   14.0720   20.4990 O.co2  86  GLU86      -0.2457
     28  N          2.4700   13.1090   21.5440 N.am   87  ASP87      -0.1974
     29  CA         3.4180   13.9240   20.8430 C.3    87  ASP87       0.1709
     30  C          4.7160   13.8770   21.6160 C.2    87  ASP87       0.2293
     31  O          4.7350   13.4040   22.7700 O.2    87  ASP87      -0.2864
     32  CB         2.8610   15.3620   20.6410 C.3    87  ASP87       0.1436
     33  CG         2.0630   15.9060   21.8250 C.2    87  ASP87       0.3671
     34  OD1        1.2240   16.8430   21.5510 O.co2  87  ASP87      -0.2456
     35  OD2        2.2510   15.5490   22.9990 O.co2  87  ASP87      -0.2456
     36  N          1.2410   10.6760   15.2500 N.3   109  ASP109     -0.1225
     37  CA         0.7180   11.8890   14.8030 C.3   109  ASP109      0.1805
     38  C          1.8240   12.9900   14.8700 C.2   109  ASP109      0.2597
     39  O          2.7960   12.8980   14.0820 O.2   109  ASP109     -0.2718
     40  CB        -0.5940   12.1840   15.5560 C.3   109  ASP109      0.1424
     41  CG        -1.3090   13.4440   15.0800 C.2   109  ASP109      0.3668
     42  OD1       -1.0510   13.9920   13.9720 O.co2 109  ASP109     -0.2456
     43  OD2       -2.2460   13.8510   15.8310 O.co2 109  ASP109     -0.2456
     44  N          1.7740   13.9590   15.7700 N.am  110  LYS110     -0.1979
     45  CA         2.7850   14.9350   15.8450 C.3   110  LYS110      0.1596
     46  C          4.0190   14.4980   16.5960 C.2   110  LYS110      0.2287
     47  O          3.9510   13.8180   17.6470 O.2   110  LYS110     -0.2864
     48  CB         2.2640   16.2010   16.5760 C.3   110  LYS110      0.0298
     49  CG         1.8000   17.3220   15.7070 C.3   110  LYS110      0.0038
     50  CD         0.6030   16.9300   14.8340 C.3   110  LYS110      0.0206
     51  CE        -0.7730   17.0320   15.4670 C.3   110  LYS110      0.1093
     52  NZ        -1.7430   16.5270   14.4570 N.3   110  LYS110     -0.1314
     53  N          4.3850   19.9490   18.8650 N.3   113  GLN113     -0.1245
     54  CA         3.0480   20.6170   18.9510 C.3   113  GLN113      0.1566
     55  C          3.2420   22.0190   19.5440 C.2   113  GLN113      0.2260
     56  O          3.7340   22.0910   20.6830 O.2   113  GLN113     -0.2867
     57  CB         2.1890   19.7900   19.8600 C.3   113  GLN113      0.0367
     58  CG         0.7430   20.1970   20.0820 C.3   113  GLN113      0.0905
     59  CD        -0.2040   20.0770   18.8790 C.2   113  GLN113      0.2608
     60  OE1       -0.1410   19.1090   18.0840 O.2   113  GLN113     -0.2717
     61  NE2       -1.0910   21.0770   18.7470 N.am  113  GLN113     -0.0878
     62  N          3.6530   14.1680   11.4910 N.3   132  LYS132     -0.1245
     63  CA         4.0790   15.5980   11.1870 C.3   132  LYS132      0.1561
     64  C          5.2110   15.8760   12.1320 C.2   132  LYS132      0.2260
     65  O          5.1380   15.4830   13.3260 O.2   132  LYS132     -0.2867
     66  CB         2.9770   16.5740   11.4340 C.3   132  LYS132      0.0271
     67  CG         1.8270   16.5100   10.5120 C.3   132  LYS132      0.0035
     68  CD         0.7900   17.5970   10.7810 C.3   132  LYS132      0.0206
     69  CE        -0.4350   17.3620    9.9220 C.3   132  LYS132      0.1093
     70  NZ        -1.1610   16.1210   10.4860 N.3   132  LYS132     -0.1314
     71  N          3.5530   21.0310   14.2310 N.3   135  ARG135     -0.1245
     72  CA         2.2370   21.5840   14.0330 C.3   135  ARG135      0.1563
     73  C          1.9080   22.6960   14.9390 C.2   135  ARG135      0.2260
     74  O          2.0070   22.5170   16.1310 O.2   135  ARG135     -0.2867
     75  CB         1.2200   20.4810   14.3190 C.3   135  ARG135      0.0307
     76  CG        -0.3100   20.8200   14.1060 C.3   135  ARG135      0.0489
     77  CD        -0.6340   21.1880   12.7070 C.3   135  ARG135      0.2205
     78  NE        -2.0840   21.1610   12.3990 N.pl3 135  ARG135     -0.0865
     79  CZ        -2.8320   22.2020   12.0630 C.cat 135  ARG135      0.5346
     80  NH1       -4.1220   21.9220   11.6930 N.pl3 135  ARG135      0.1354
     81  NH2       -2.3840   23.4540   12.0670 N.pl3 135  ARG135      0.1354
     82  N         -0.8410   24.6400   16.7410 N.3   137  ASN137     -0.1225
     83  CA        -2.1840   24.2340   17.1840 C.3   137  ASN137      0.1785
     84  C         -3.2700   24.5430   16.1390 C.2   137  ASN137      0.2597
     85  O         -3.3490   25.6600   15.6060 O.2   137  ASN137     -0.2718
     86  CB        -2.4960   24.8320   18.5320 C.3   137  ASN137      0.1169
     87  CG        -3.5270   24.0080   19.3000 C.2   137  ASN137      0.2627
     88  OD1       -3.8480   22.9000   18.9210 O.2   137  ASN137     -0.2716
     89  ND2       -4.0330   24.5850   20.3950 N.am  137  ASN137     -0.0877
     90  N         -4.0550   23.5220   15.7950 N.am  138  GLY138     -0.1957
     91  CA        -5.1060   23.6470   14.7450 C.3   138  GLY138      0.1869
     92  C         -5.9390   24.9430   14.8530 C.2   138  GLY138      0.2309
     93  O         -6.3420   25.3170   15.9560 O.2   138  GLY138     -0.2863
     94  N          3.0090   22.1860    9.5350 N.3   162  LYS162     -0.1245
     95  CA         1.6630   22.6490    9.2430 C.3   162  LYS162      0.1561
     96  C          1.2780   23.7460   10.2280 C.2   162  LYS162      0.2260
     97  O          1.4450   23.6190   11.4380 O.2   162  LYS162     -0.2867
     98  CB         0.6140   21.5110    9.2780 C.3   162  LYS162      0.0271
     99  CG        -0.7990   21.9220    8.8790 C.3   162  LYS162      0.0035
    100  CD        -1.7180   20.7190    8.8290 C.3   162  LYS162      0.0206
    101  CE        -3.1150   21.1040    8.3270 C.3   162  LYS162      0.1093
    102  NZ        -3.0810   21.8810    7.0370 N.3   162  LYS162     -0.1314
@<TRIPOS>BOND
     1   102   101    1
     2   101   100    1
     3   100    99    1
     4    99    98    1
     5    95    98    1
     6    95    94    1
     7    95    96    1
     8    69    70    1
     9    69    68    1
    10    96    97    2
    11    67    68    1
    12    67    66    1
    13    63    66    1
    14    63    62    1
    15    63    64    1
    16    80    79    1
    17    79    81    1
    18    79    78    2
    19    64    65    2
    20    78    77    1
    21    77    76    1
    22    42    41   ar
    23    72    71    1
    24    72    75    1
    25    72    73    1
    26    39    38    2
    27    76    75    1
    28    52    51    1
    29    91    92    1
    30    91    90    1
    31    37    38    1
    32    37    36    1
    33    37    40    1
    34    50    51    1
    35    50    49    1
    36    92    93    2
    37    38    44   am
    38    73    74    2
    39    41    40    1
    40    41    43   ar
    41    85    84    2
    42    49    48    1
    43    44    45    1
    44    90    84   am
    45    45    48    1
    46    45    46    1
    47    84    83    1
    48    46    47    2
    49    82    83    1
    50    83    86    1
    51    60    59    2
    52     6     7    1
    53     6     5    1
    54     8     7    2
    55     7     9   am
    56    86    87    1
    57    61    59   am
    58    53    54    1
    59    59    58    1
    60    88    87    2
    61    54    55    1
    62    54    57    1
    63    87    89   am
    64     5     2    1
    65    55    56    2
    66    22    21    2
    67    57    58    1
    68    27    25   ar
    69    32    29    1
    70    32    33    1
    71    18    16   ar
    72     2     1    1
    73     2     3    1
    74    29    28    1
    75    29    30    1
    76    21    28   am
    77    21    20    1
    78    25    26   ar
    79    25    24    1
    80    34    33   ar
    81     4     3    2
    82    30    31    2
    83    20    19    1
    84    20    23    1
    85    33    35   ar
    86    16    17   ar
    87    16    15    1
    88    24    23    1
    89    15    14    1
    90    14    11    1
    91    10    11    1
    92    11    12    1
    93    12    13    2
