@<TRIPOS>MOLECULE
tmp/4ewlB01.pdb
 118 113 0 0 0
SMALL
GASTEIGER

@<TRIPOS>ATOM
      1  N         31.7860  -32.3460   21.9980 N.3    69  ILE69      -0.1245
      2  CA        31.7340  -33.1280   20.7760 C.3    69  ILE69       0.1561
      3  C         30.3470  -33.0570   20.1850 C.2    69  ILE69       0.2260
      4  O         30.1650  -32.9220   18.9950 O.2    69  ILE69      -0.2867
      5  CB        32.1340  -34.5970   21.0060 C.3    69  ILE69       0.0252
      6  CG1       33.5790  -34.7320   21.3820 C.3    69  ILE69       0.0019
      7  CG2       31.8070  -35.4240   19.7770 C.3    69  ILE69       0.0019
      8  CD1       33.9410  -36.1590   21.8810 C.3    69  ILE69       0.0001
      9  N         29.1020  -31.3000   16.7020 N.3    73  THR73      -0.1218
     10  CA        28.4540  -32.1210   15.7340 C.3    73  THR73       0.1862
     11  C         27.2090  -31.4240   15.2380 C.2    73  THR73       0.2287
     12  O         26.9050  -31.4120   14.0340 O.2    73  THR73      -0.2866
     13  CB        28.1550  -33.5360   16.2860 C.3    73  THR73       0.1770
     14  OG1       29.3870  -34.2070   16.5680 O.3    73  THR73      -0.2211
     15  CG2       27.4100  -34.3550   15.2940 C.3    73  THR73       0.0375
     16  N         26.4680  -29.7520   11.5230 N.3    77  ARG77      -0.1245
     17  CA        25.3380  -30.1630   10.7320 C.3    77  ARG77       0.1563
     18  C         24.4720  -28.9650   10.2650 C.2    77  ARG77       0.2260
     19  O         23.9010  -28.9680    9.1650 O.2    77  ARG77      -0.2867
     20  CB        24.4610  -31.2090   11.4580 C.3    77  ARG77       0.0307
     21  CG        25.1250  -32.5930   11.4870 C.3    77  ARG77       0.0489
     22  CD        24.1960  -33.6430   12.1280 C.3    77  ARG77       0.2205
     23  NE        24.6390  -34.9960   11.8710 N.pl3  77  ARG77      -0.0865
     24  CZ        24.3410  -35.7020   10.7750 C.cat  77  ARG77       0.5346
     25  NH1       24.7920  -36.9480   10.6380 N.pl3  77  ARG77       0.1354
     26  NH2       23.5930  -35.1870    9.8150 N.pl3  77  ARG77       0.1354
     27  N         28.8440  -33.0590    7.6650 N.3    82  SER82      -0.1202
     28  CA        28.1980  -34.2300    8.2520 C.3    82  SER82       0.2020
     29  C         28.8300  -34.7120    9.5340 C.2    82  SER82       0.2619
     30  O         28.1540  -35.2720   10.3550 O.2    82  SER82      -0.2717
     31  CB        28.0670  -35.3890    7.2490 C.3    82  SER82       0.2103
     32  OG        29.3160  -35.9290    6.9890 O.3    82  SER82      -0.2182
     33  N         30.1340  -34.4800    9.7390 N.am   83  ALA83      -0.1965
     34  CA        30.7700  -34.9580   10.9830 C.3    83  ALA83       0.1713
     35  C         32.0200  -34.1820   11.3160 C.2    83  ALA83       0.2458
     36  O         32.6490  -33.6720   10.4190 O.2    83  ALA83      -0.2730
     37  CB        31.1420  -36.4470   10.8530 C.3    83  ALA83       0.0333
     38  N         32.3590  -34.1130   12.6040 N.am   84  PRO84      -0.2716
     39  CA        33.6000  -33.5240   13.0540 C.3    84  PRO84       0.1536
     40  C         34.7870  -34.3920   12.6740 C.2    84  PRO84       0.2598
     41  O         34.6350  -35.6230   12.4740 O.2    84  PRO84      -0.2715
     42  CB        33.4610  -33.4390   14.5540 C.3    84  PRO84       0.0310
     43  CG        32.4560  -34.4840   14.9130 C.3    84  PRO84       0.0237
     44  CD        31.5290  -34.5860   13.7380 C.3    84  PRO84       0.0939
     45  N         35.9670  -33.7700   12.5930 N.am   85  ILE85      -0.1964
     46  CA        37.1880  -34.4800   12.4330 C.3    85  ILE85       0.1727
     47  C         38.1540  -33.8840   13.4520 C.2    85  ILE85       0.2616
     48  O         38.5230  -32.7060   13.3600 O.2    85  ILE85      -0.2715
     49  CB        37.7860  -34.3150   11.0190 C.3    85  ILE85       0.0290
     50  CG1       36.8530  -34.8420    9.9610 C.3    85  ILE85       0.0022
     51  CG2       39.1020  -35.0600   10.9560 C.3    85  ILE85       0.0023
     52  CD1       37.2230  -34.4030    8.5500 C.3    85  ILE85       0.0001
     53  N         38.5560  -34.6730   14.4370 N.am   86  TYR86      -0.1960
     54  CA        39.5320  -34.2290   15.4130 C.3    86  TYR86       0.1771
     55  C         40.9080  -34.7120   15.0180 C.2    86  TYR86       0.2619
     56  O         41.1110  -35.9110   14.7600 O.2    86  TYR86      -0.2715
     57  CB        39.1250  -34.7420   16.7950 C.3    86  TYR86       0.0574
     58  CG        37.8780  -34.0860   17.3280 C.ar   86  TYR86      -0.0198
     59  CD1       37.9390  -32.8620   17.9560 C.ar   86  TYR86      -0.0009
     60  CD2       36.6400  -34.7210   17.2730 C.ar   86  TYR86      -0.0009
     61  CE1       36.8300  -32.2590   18.4890 C.ar   86  TYR86       0.0417
     62  CE2       35.5190  -34.1140   17.8010 C.ar   86  TYR86       0.0417
     63  CZ        35.6280  -32.8840   18.4050 C.ar   86  TYR86       0.1957
     64  OH        34.5180  -32.2620   18.9680 O.3    86  TYR86      -0.2866
     65  N         41.8840  -33.8150   15.0400 N.am   87  LEU87      -0.1963
     66  CA        43.2480  -34.1510   14.6290 C.3    87  LEU87       0.1728
     67  C         43.9090  -35.2220   15.5150 C.2    87  LEU87       0.2617
     68  O         44.0520  -35.0590   16.7390 O.2    87  LEU87      -0.2715
     69  CB        44.1250  -32.8930   14.6560 C.3    87  LEU87       0.0311
     70  CG        45.4960  -33.0480   13.9900 C.3    87  LEU87       0.0022
     71  CD1       45.3520  -33.2490   12.4890 C.3    87  LEU87       0.0001
     72  CD2       46.3420  -31.8360   14.3200 C.3    87  LEU87       0.0001
     73  N         44.3600  -36.3200   14.8640 N.am   88  GLY88      -0.1940
     74  CA        44.9550  -37.4080   15.5810 C.3    88  GLY88       0.2014
     75  C         43.9570  -38.3200   16.2870 C.2    88  GLY88       0.2639
     76  O         44.3270  -39.2050   17.0020 O.2    88  GLY88      -0.2714
     77  N         42.6970  -38.1120   16.0390 N.am   89  GLY89      -0.1939
     78  CA        41.6370  -38.8310   16.7550 C.3    89  GLY89       0.2014
     79  C         41.0760  -37.9750   17.9020 C.2    89  GLY89       0.2638
     80  O         41.7700  -37.1960   18.4970 O.2    89  GLY89      -0.2714
     81  N         39.7730  -38.0870   18.1230 N.am   90  ALA90      -0.1977
     82  CA        39.1090  -37.3380   19.1760 C.3    90  ALA90       0.1597
     83  C         39.7600  -37.5840   20.4970 C.2    90  ALA90       0.2287
     84  O         39.8110  -38.7260   20.9810 O.2    90  ALA90      -0.2864
     85  CB        37.6690  -37.7180   19.2090 C.3    90  ALA90       0.0319
     86  N         43.0490  -36.7690   21.1420 N.3    92  ARG92      -0.1245
     87  CA        44.4960  -36.9930   21.0530 C.3    92  ARG92       0.1563
     88  C         45.3280  -35.9450   21.7150 C.2    92  ARG92       0.2260
     89  O         46.1810  -36.2620   22.5730 O.2    92  ARG92      -0.2867
     90  CB        44.9080  -37.0970   19.5710 C.3    92  ARG92       0.0307
     91  CG        46.3850  -37.3440   19.3830 C.3    92  ARG92       0.0489
     92  CD        46.8380  -38.7190   19.7710 C.3    92  ARG92       0.2205
     93  NE        48.2230  -38.9410   19.2790 N.pl3  92  ARG92      -0.0865
     94  CZ        48.5260  -39.3210   18.0280 C.cat  92  ARG92       0.5346
     95  NH1       47.5550  -39.5330   17.0880 N.pl3  92  ARG92       0.1354
     96  NH2       49.7870  -39.4920   17.6880 N.pl3  92  ARG92       0.1354
     97  N         52.2310  -34.7060   10.6530 N.3   119  GLY119     -0.1210
     98  CA        51.9470  -35.9980   10.0280 C.3   119  GLY119      0.1956
     99  C         50.4940  -36.3450    9.9500 C.2   119  GLY119      0.2611
    100  O         49.9910  -36.8580    8.9410 O.2   119  GLY119     -0.2717
    101  N         49.7760  -36.0980   11.0360 N.am  120  ALA120     -0.1979
    102  CA        48.3250  -36.3560   11.0320 C.3   120  ALA120      0.1597
    103  C         47.5660  -35.4760   10.0250 C.2   120  ALA120      0.2287
    104  O         46.7230  -35.9340    9.2480 O.2   120  ALA120     -0.2864
    105  CB        47.7900  -36.1180   12.4600 C.3   120  ALA120      0.0319
    106  N         48.1450  -36.3880    6.3560 N.3   123  ALA123     -0.1231
    107  CA        47.3440  -37.5380    5.9110 C.3   123  ALA123      0.1694
    108  C         45.9590  -37.0870    5.5400 C.2   123  ALA123      0.2591
    109  O         45.4000  -37.5100    4.5520 O.2   123  ALA123     -0.2718
    110  CB        47.3280  -38.6550    6.9900 C.3   123  ALA123      0.0304
    111  N         45.3870  -36.1820    6.3370 N.am  124  ILE124     -0.1980
    112  CA        44.0250  -35.7000    6.0720 C.3   124  ILE124      0.1595
    113  C         44.0330  -34.9240    4.7270 C.2   124  ILE124      0.2287
    114  O         43.1940  -35.1370    3.8960 O.2   124  ILE124     -0.2864
    115  CB        43.5300  -34.8230    7.2160 C.3   124  ILE124      0.0276
    116  CG1       43.1730  -35.7180    8.4110 C.3   124  ILE124      0.0022
    117  CG2       42.3230  -34.0160    6.8070 C.3   124  ILE124      0.0022
    118  CD1       43.0810  -34.9620    9.6900 C.3   124  ILE124      0.0001
@<TRIPOS>BOND
     1   114   113    2
     2   109   108    2
     3   113   112    1
     4   108   107    1
     5   108   111   am
     6   107   106    1
     7   107   110    1
     8   112   111    1
     9   112   115    1
    10   117   115    1
    11    32    31    1
    12   115   116    1
    13    31    28    1
    14    27    28    1
    15    28    29    1
    16   116   118    1
    17    52    50    1
    18   100    99    2
    19    19    18    2
    20   104   103    2
    21    29    33   am
    22    29    30    2
    23    33    34    1
    24    26    24    1
    25    99    98    1
    26    99   101   am
    27    50    49    1
    28   103   102    1
    29    98    97    1
    30    18    17    1
    31    36    35    2
    32    25    24    1
    33    17    20    1
    34    17    16    1
    35    24    23    2
    36    37    34    1
    37    51    49    1
    38    34    35    1
    39    49    46    1
    40   102   101    1
    41   102   105    1
    42    35    38   am
    43    20    21    1
    44    21    22    1
    45    23    22    1
    46    46    45    1
    47    46    47    1
    48    41    40    2
    49    71    70    1
    50    45    40   am
    51    38    39    1
    52    38    44    1
    53    40    39    1
    54    39    42    1
    55    48    47    2
    56    47    53   am
    57    44    43    1
    58    70    72    1
    59    70    69    1
    60    12    11    2
    61    53    54    1
    62    42    43    1
    63    66    69    1
    64    66    65    1
    65    66    67    1
    66    56    55    2
    67    73    67   am
    68    73    74    1
    69    55    65   am
    70    55    54    1
    71    11    10    1
    72    15    13    1
    73    54    57    1
    74    67    68    2
    75    74    75    1
    76    10    13    1
    77    10     9    1
    78    77    75   am
    79    77    78    1
    80    13    14    1
    81    75    76    2
    82    78    79    1
    83    57    58    1
    84    95    94    1
    85    60    58   ar
    86    60    62   ar
    87    58    59   ar
    88    96    94    1
    89    62    63   ar
    90    79    81   am
    91    79    80    2
    92    59    61   ar
    93    94    93    2
    94    81    82    1
    95    63    61   ar
    96    63    64    1
    97     4     3    2
    98    82    85    1
    99    82    83    1
   100    93    92    1
   101    91    90    1
   102    91    92    1
   103    90    87    1
   104     7     5    1
   105     3     2    1
   106    83    84    2
   107     2     5    1
   108     2     1    1
   109     5     6    1
   110    87    86    1
   111    87    88    1
   112     6     8    1
   113    88    89    2
