@<TRIPOS>MOLECULE
tmp/4ewnA00.pdb
 141 126 0 0 0
SMALL
GASTEIGER

@<TRIPOS>ATOM
      1  N         18.6170   11.4750   19.4520 N.3     8  CYS8       -0.1235
      2  CA        18.2480   12.5280   18.5150 C.3     8  CYS8        0.1677
      3  C         19.4920   13.0580   17.8240 C.2     8  CYS8        0.2270
      4  O         20.4170   13.5430   18.4700 O.2     8  CYS8       -0.2867
      5  CB        17.5180   13.6600   19.2380 C.3     8  CYS8        0.0956
      6  SG        17.0170   15.0870   18.1940 S.3     8  CYS8       -0.0801
      7  N         21.0060   15.7920   15.3720 N.3    10  ASP10      -0.1239
      8  CA        20.7830   17.0740   14.7030 C.3    10  ASP10       0.1674
      9  C         21.5190   17.0800   13.3660 C.2    10  ASP10       0.2266
     10  O         22.7200   16.7920   13.3060 O.2    10  ASP10      -0.2867
     11  CB        21.2630   18.2570   15.5480 C.3    10  ASP10       0.1410
     12  CG        20.4180   18.4800   16.7980 C.2    10  ASP10       0.3668
     13  OD1       19.3090   17.9030   16.9050 O.co2  10  ASP10      -0.2456
     14  OD2       20.8730   19.2510   17.6730 O.co2  10  ASP10      -0.2456
     15  N         16.7530   15.2070   13.1860 N.3    49  LEU49      -0.1245
     16  CA        16.1610   16.5440   13.2040 C.3    49  LEU49       0.1561
     17  C         16.9390   17.5240   12.3320 C.2    49  LEU49       0.2260
     18  O         18.0980   17.8280   12.6150 O.2    49  LEU49      -0.2867
     19  CB        16.0970   17.0730   14.6430 C.3    49  LEU49       0.0270
     20  CG        15.2630   18.3250   14.9120 C.3    49  LEU49       0.0019
     21  CD1       13.8050   17.9410   15.1040 C.3    49  LEU49       0.0001
     22  CD2       15.7900   19.0840   16.1200 C.3    49  LEU49       0.0001
     23  N         17.8920   20.9780   11.7290 N.3    51  ILE51      -0.1245
     24  CA        17.8530   22.2130   12.5140 C.3    51  ILE51       0.1561
     25  C         17.8320   23.4940   11.6690 C.2    51  ILE51       0.2260
     26  O         17.6870   24.5990   12.2060 O.2    51  ILE51      -0.2867
     27  CB        19.0010   22.2790   13.5570 C.3    51  ILE51       0.0252
     28  CG1       20.3770   22.2950   12.8800 C.3    51  ILE51       0.0019
     29  CG2       18.8930   21.1220   14.5530 C.3    51  ILE51       0.0019
     30  CD1       21.5190   22.2430   13.8750 C.3    51  ILE51       0.0001
     31  N         11.7740   18.6490   11.7210 N.3    74  GLY74      -0.1225
     32  CA        12.4590   19.8850   11.3880 C.3    74  GLY74       0.1811
     33  C         11.8850   20.5120   10.1350 C.2    74  GLY74       0.2280
     34  O         12.2020   20.0940    9.0180 O.2    74  GLY74      -0.2866
     35  N          5.2620   20.2350   14.1620 N.3    96  ASN96      -0.1240
     36  CA         4.9830   21.1040   15.3010 C.3    96  ASN96       0.1653
     37  C          4.2530   22.3580   14.8390 C.2    96  ASN96       0.2266
     38  O          3.0270   22.4100   14.8740 O.2    96  ASN96      -0.2867
     39  CB         6.2850   21.4580   16.0400 C.3    96  ASN96       0.1155
     40  CG         6.0500   22.2930   17.3030 C.2    96  ASN96       0.2627
     41  OD1        4.9580   22.8500   17.5300 O.2    96  ASN96      -0.2716
     42  ND2        7.0830   22.3860   18.1290 N.am   96  ASN96      -0.0877
     43  N          6.2560   22.2200   22.0710 N.3   123  VAL123     -0.1245
     44  CA         7.1780   23.0140   22.8680 C.3   123  VAL123      0.1561
     45  C          6.3430   23.9130   23.7630 C.2   123  VAL123      0.2260
     46  O          5.5890   24.7590   23.2740 O.2   123  VAL123     -0.2867
     47  CB         8.0700   23.8870   21.9840 C.3   123  VAL123      0.0252
     48  CG1        8.9040   24.8460   22.8370 C.3   123  VAL123      0.0019
     49  CG2        8.9720   23.0100   21.1270 C.3   123  VAL123      0.0019
     50  N         10.2350   27.3480   16.9530 N.3   137  SER137     -0.1217
     51  CA        11.3700   27.0540   17.8230 C.3   137  SER137      0.1889
     52  C         11.3520   27.8950   19.0930 C.2   137  SER137      0.2288
     53  O         12.3920   28.4020   19.5320 O.2   137  SER137     -0.2866
     54  CB        12.6860   27.2450   17.0710 C.3   137  SER137      0.2089
     55  OG        12.6710   26.5300   15.8490 O.3   137  SER137     -0.2183
     56  N          5.7890   14.2340   21.2220 N.3   162  LEU162     -0.1245
     57  CA         7.1640   14.5150   21.6210 C.3   162  LEU162      0.1561
     58  C          7.1430   15.8020   22.4420 C.2   162  LEU162      0.2260
     59  O          6.9320   16.9020   21.9160 O.2   162  LEU162     -0.2867
     60  CB         8.0820   14.6590   20.4050 C.3   162  LEU162      0.0270
     61  CG         9.4870   15.2040   20.6520 C.3   162  LEU162      0.0019
     62  CD1       10.2260   14.3160   21.6280 C.3   162  LEU162      0.0001
     63  CD2       10.2400   15.2660   19.3410 C.3   162  LEU162      0.0001
     64  N          8.6520   18.5410   24.3130 N.3   164  THR164     -0.1218
     65  CA         9.8660   19.2930   24.5030 C.3   164  THR164      0.1862
     66  C          9.6210   20.4490   25.4810 C.2   164  THR164      0.2287
     67  O          8.6610   21.2290   25.3370 O.2   164  THR164     -0.2866
     68  CB        10.3850   19.8360   23.1640 C.3   164  THR164      0.1770
     69  OG1       10.6420   18.7420   22.2730 O.3   164  THR164     -0.2211
     70  CG2       11.6560   20.6350   23.3740 C.3   164  THR164      0.0375
     71  N         11.5410   23.4770   26.2040 N.3   166  ILE166     -0.1245
     72  CA        12.6180   24.2970   25.6480 C.3   166  ILE166      0.1561
     73  C         13.5840   24.8700   26.6990 C.2   166  ILE166      0.2260
     74  O         14.7860   25.0200   26.4350 O.2   166  ILE166     -0.2867
     75  CB        12.0050   25.4390   24.8200 C.3   166  ILE166      0.0252
     76  CG1       13.0710   26.4300   24.3380 C.3   166  ILE166      0.0019
     77  CG2       10.9340   26.1270   25.6410 C.3   166  ILE166      0.0019
     78  CD1       12.5320   27.5250   23.4450 C.3   166  ILE166      0.0001
     79  N         16.2280   22.3440   27.4940 N.3   169  VAL169     -0.1231
     80  CA        16.9220   21.7550   26.3530 C.3   169  VAL169      0.1692
     81  C         18.3770   22.1430   26.3420 C.2   169  VAL169      0.2592
     82  O         18.6990   23.3270   26.3800 O.2   169  VAL169     -0.2718
     83  CB        16.2860   22.2010   25.0250 C.3   169  VAL169      0.0266
     84  CG1       17.1830   21.8260   23.8440 C.3   169  VAL169      0.0020
     85  CG2       14.8930   21.5990   24.8980 C.3   169  VAL169      0.0020
     86  N         19.2650   21.1530   26.3200 N.am  170  GLY170     -0.1957
     87  CA        20.6910   21.4240   26.2250 C.3   170  GLY170      0.1869
     88  C         21.3620   21.6580   27.5720 C.2   170  GLY170      0.2309
     89  O         22.5880   21.6090   27.6930 O.2   170  GLY170     -0.2863
     90  N         21.3540   19.8770   30.3670 N.3   172  LYS172     -0.1245
     91  CA        21.8190   18.6970   31.1230 C.3   172  LYS172      0.1561
     92  C         21.3630   18.7100   32.5850 C.2   172  LYS172      0.2260
     93  O         21.9850   18.0730   33.4330 O.2   172  LYS172     -0.2867
     94  CB        23.3460   18.5460   31.0750 C.3   172  LYS172      0.0271
     95  CG        23.9200   17.9800   29.7880 C.3   172  LYS172      0.0035
     96  CD        25.3840   18.3950   29.6830 C.3   172  LYS172      0.0206
     97  CE        25.9680   18.1350   28.3090 C.3   172  LYS172      0.1093
     98  NZ        27.2700   18.8500   28.1160 N.3   172  LYS172     -0.1314
     99  N         11.6940   15.0140   26.1500 N.3   194  SER194     -0.1202
    100  CA        12.7380   15.6150   25.3310 C.3   194  SER194      0.2020
    101  C         13.3210   16.9010   25.8990 C.2   194  SER194      0.2619
    102  O         12.5890   17.8400   26.2000 O.2   194  SER194     -0.2717
    103  CB        12.1620   15.9000   23.9400 C.3   194  SER194      0.2103
    104  OG        13.1400   16.4810   23.1010 O.3   194  SER194     -0.2182
    105  N         14.6450   16.9490   26.0090 N.am  195  GLY195     -0.1942
    106  CA        15.3250   18.1490   26.4400 C.3   195  GLY195      0.2014
    107  C         15.7670   18.0560   27.8840 C.2   195  GLY195      0.2639
    108  O         14.9460   17.8860   28.7850 O.2   195  GLY195     -0.2714
    109  N         17.0640   18.1410   28.1010 N.am  196  GLY196     -0.1939
    110  CA        17.5640   18.2350   29.4550 C.3   196  GLY196      0.2014
    111  C         18.3960   17.0790   29.9660 C.2   196  GLY196      0.2638
    112  O         19.1520   17.2740   30.9010 O.2   196  GLY196     -0.2714
    113  N         18.2750   15.8890   29.3780 N.am  197  ALA197     -0.1977
    114  CA        18.9600   14.7140   29.9340 C.3   197  ALA197      0.1597
    115  C         20.4390   14.9760   30.1290 C.2   197  ALA197      0.2287
    116  O         21.1090   15.5470   29.2550 O.2   197  ALA197     -0.2864
    117  CB        18.7340   13.4790   29.0570 C.3   197  ALA197      0.0319
    118  N         14.0250   10.8810   24.9690 N.3   215  LEU215     -0.1231
    119  CA        14.8680   11.2810   23.8670 C.3   215  LEU215      0.1693
    120  C         16.0250   12.1030   24.4350 C.2   215  LEU215      0.2592
    121  O         15.8470   12.8990   25.3490 O.2   215  LEU215     -0.2718
    122  CB        14.0270   12.1060   22.8670 C.3   215  LEU215      0.0284
    123  CG        14.6890   12.7580   21.6550 C.3   215  LEU215      0.0019
    124  CD1       13.6640   13.0130   20.5840 C.3   215  LEU215      0.0001
    125  CD2       15.2990   14.0780   22.0640 C.3   215  LEU215      0.0001
    126  N         17.2190   11.9010   23.9040 N.am  216  ALA216     -0.1966
    127  CA        18.3250   12.7600   24.2580 C.3   216  ALA216      0.1728
    128  C         19.2490   12.9730   23.0690 C.2   216  ALA216      0.2616
    129  O         19.3580   12.1140   22.1980 O.2   216  ALA216     -0.2715
    130  CB        19.1010   12.1930   25.4280 C.3   216  ALA216      0.0334
    131  N         19.9070   14.1290   23.0480 N.am  217  ALA217     -0.1963
    132  CA        20.9290   14.4290   22.0550 C.3   217  ALA217      0.1728
    133  C         22.2930   14.6430   22.7090 C.2   217  ALA217      0.2616
    134  O         23.2380   13.9050   22.4270 O.2   217  ALA217     -0.2715
    135  CB        20.5190   15.6480   21.2150 C.3   217  ALA217      0.0334
    136  N         22.3890   15.6400   23.5940 N.am  218  SER218     -0.1950
    137  CA        23.6620   16.0090   24.2390 C.3   218  SER218      0.1924
    138  C         24.4800   14.8470   24.8120 C.2   218  SER218      0.2314
    139  O         25.6580   14.7150   24.5010 O.2   218  SER218     -0.2863
    140  CB        23.4380   17.0590   25.3370 C.3   218  SER218      0.2116
    141  OG        23.0530   18.3160   24.8000 O.3   218  SER218     -0.2180
@<TRIPOS>BOND
     1    34    33    2
     2    33    32    1
     3    32    31    1
     4    25    26    2
     5    25    24    1
     6    23    24    1
     7    17    18    2
     8    17    16    1
     9    24    27    1
    10    28    27    1
    11    28    30    1
    12    15    16    1
    13    16    19    1
    14    10     9    2
    15     9     8    1
    16    27    29    1
    17    35    36    1
    18    19    20    1
    19     8     7    1
    20     8    11    1
    21    37    38    2
    22    37    36    1
    23    20    21    1
    24    20    22    1
    25    36    39    1
    26    11    12    1
    27    55    54    1
    28    39    40    1
    29    12    13   ar
    30    12    14   ar
    31    50    51    1
    32    54    51    1
    33    40    41    2
    34    40    42   am
    35    51    52    1
    36     3     4    2
    37     3     2    1
    38     6     5    1
    39     2     5    1
    40     2     1    1
    41    52    53    2
    42    63    61    1
    43    60    61    1
    44    60    57    1
    45   124   123    1
    46    61    62    1
    47    49    47    1
    48   135   132    1
    49    56    57    1
    50    57    58    1
    51   123   125    1
    52   123   122    1
    53    59    58    2
    54    47    48    1
    55    47    44    1
    56   132   133    1
    57   132   131    1
    58    43    44    1
    59   129   128    2
    60    69    68    1
    61   134   133    2
    62   133   136   am
    63   122   119    1
    64    44    45    1
    65   131   128   am
    66   128   127    1
    67   104   103    1
    68    68    70    1
    69    68    65    1
    70    46    45    2
    71    78    76    1
    72   136   137    1
    73    84    83    1
    74   119   120    1
    75   119   118    1
    76   126   127    1
    77   126   120   am
    78   103   100    1
    79   137   138    1
    80   137   140    1
    81   127   130    1
    82    64    65    1
    83    76    75    1
    84   120   121    2
    85   139   138    2
    86    65    66    1
    87   141   140    1
    88    75    77    1
    89    75    72    1
    90    85    83    1
    91    83    80    1
    92   100   101    1
    93   100    99    1
    94    67    66    2
    95    72    71    1
    96    72    73    1
    97   101   105   am
    98   101   102    2
    99   105   106    1
   100    87    86    1
   101    87    88    1
   102    86    81   am
   103    81    80    1
   104    81    82    2
   105    80    79    1
   106    74    73    2
   107   106   107    1
   108    88    89    2
   109   107   109   am
   110   107   108    2
   111   109   110    1
   112    98    97    1
   113    97    96    1
   114   117   114    1
   115   116   115    2
   116   113   114    1
   117   113   111   am
   118   110   111    1
   119    96    95    1
   120    95    94    1
   121   114   115    1
   122   111   112    2
   123    90    91    1
   124    94    91    1
   125    91    92    1
   126    92    93    2
