@<TRIPOS>MOLECULE
tmp/4ewqA01.pdb
 172 161 0 0 0
SMALL
GASTEIGER

@<TRIPOS>ATOM
      1  N         -8.2030    1.9780   28.4730 N.3    26  VAL26      -0.1245
      2  CA        -6.7870    1.6470   28.6520 C.3    26  VAL26       0.1561
      3  C         -5.9290    2.9030   28.7070 C.2    26  VAL26       0.2260
      4  O         -4.8720    2.8990   29.3320 O.2    26  VAL26      -0.2867
      5  CB        -6.2630    0.7330   27.5400 C.3    26  VAL26       0.0252
      6  CG1       -4.7420    0.8940   27.3740 C.3    26  VAL26       0.0019
      7  CG2       -6.6650   -0.6980   27.8210 C.3    26  VAL26       0.0019
      8  N         -3.4760   11.4500   20.2360 N.3    31  TYR31      -0.1241
      9  CA        -3.9100   10.4940   19.2060 C.3    31  TYR31       0.1605
     10  C         -5.4440   10.2410   19.1960 C.2    31  TYR31       0.2264
     11  O         -6.1580   10.6370   18.2570 O.2    31  TYR31      -0.2867
     12  CB        -3.1010    9.1650   19.3500 C.3    31  TYR31       0.0534
     13  CG        -3.1160    8.4870   20.7290 C.ar   31  TYR31      -0.0201
     14  CD1       -2.2340    8.8790   21.7480 C.ar   31  TYR31      -0.0009
     15  CD2       -3.9920    7.4260   20.9990 C.ar   31  TYR31      -0.0009
     16  CE1       -2.2470    8.2450   23.0120 C.ar   31  TYR31       0.0417
     17  CE2       -4.0150    6.7940   22.2540 C.ar   31  TYR31       0.0417
     18  CZ        -3.1460    7.2010   23.2510 C.ar   31  TYR31       0.1957
     19  OH        -3.1810    6.5660   24.4810 O.3    31  TYR31      -0.2866
     20  N         -8.3370    4.9430   23.8140 N.3    34  VAL34      -0.1245
     21  CA        -8.3140    3.5130   23.5840 C.3    34  VAL34       0.1561
     22  C         -9.0350    2.7300   24.6790 C.2    34  VAL34       0.2260
     23  O         -8.8320    2.9820   25.8730 O.2    34  VAL34      -0.2867
     24  CB        -6.8660    2.9870   23.5300 C.3    34  VAL34       0.0252
     25  CG1       -6.8790    1.4970   23.2180 C.3    34  VAL34       0.0019
     26  CG2       -6.0280    3.7700   22.5090 C.3    34  VAL34       0.0019
     27  N         -8.2420   -3.9860   20.9890 N.3    47  ALA47      -0.1245
     28  CA        -8.0910   -2.6270   21.4310 C.3    47  ALA47       0.1562
     29  C         -8.8810   -1.8420   20.4070 C.2    47  ALA47       0.2260
     30  O         -8.7660   -2.0840   19.1730 O.2    47  ALA47      -0.2867
     31  CB        -6.6130   -2.2050   21.4330 C.3    47  ALA47       0.0290
     32  N         -9.6690    2.0080   19.2880 N.3    49  LYS49      -0.1245
     33  CA        -9.2640    3.4030   19.3590 C.3    49  LYS49       0.1561
     34  C        -10.2290    4.3430   18.6540 C.2    49  LYS49       0.2260
     35  O        -10.4780    4.2060   17.4560 O.2    49  LYS49      -0.2867
     36  CB        -7.8740    3.5920   18.7650 C.3    49  LYS49       0.0271
     37  CG        -7.4690    5.0800   18.7210 C.3    49  LYS49       0.0035
     38  CD        -5.9910    5.2860   18.5750 C.3    49  LYS49       0.0206
     39  CE        -5.4470    4.8740   17.2500 C.3    49  LYS49       0.1093
     40  NZ        -3.9620    5.1120   17.2460 N.3    49  LYS49      -0.1314
     41  N         -3.3110    7.5020    8.7990 N.3    67  GLU67      -0.1245
     42  CA        -3.2880    6.4040    9.7590 C.3    67  GLU67       0.1567
     43  C         -4.0980    5.2480    9.2390 C.2    67  GLU67       0.2260
     44  O         -3.6880    4.0930    9.3780 O.2    67  GLU67      -0.2867
     45  CB        -3.8070    6.8220   11.1460 C.3    67  GLU67       0.0388
     46  CG        -3.5810    5.6800   12.1780 C.3    67  GLU67       0.1160
     47  CD        -4.0170    6.0100   13.5780 C.2    67  GLU67       0.3649
     48  OE1       -4.5710    7.1090   13.7820 O.co2  67  GLU67      -0.2457
     49  OE2       -3.8320    5.1450   14.4760 O.co2  67  GLU67      -0.2457
     50  N         -2.4940    1.6770    8.4880 N.3    71  LEU71      -0.1245
     51  CA        -2.9760    0.4890    9.1850 C.3    71  LEU71       0.1561
     52  C         -3.5710   -0.5300    8.2260 C.2    71  LEU71       0.2260
     53  O         -3.3760   -1.7310    8.4160 O.2    71  LEU71      -0.2867
     54  CB        -3.9550    0.8570   10.2810 C.3    71  LEU71       0.0270
     55  CG        -3.3400    1.6450   11.4350 C.3    71  LEU71       0.0019
     56  CD1       -4.4070    2.0410   12.4210 C.3    71  LEU71       0.0001
     57  CD2       -2.2430    0.8240   12.1310 C.3    71  LEU71       0.0001
     58  N          1.4770   -3.2980   14.1470 N.3    80  ILE80      -0.1231
     59  CA         0.0230   -3.3680   14.3310 C.3    80  ILE80       0.1692
     60  C         -0.6820   -3.1580   13.0030 C.2    80  ILE80       0.2593
     61  O         -0.2760   -2.3250   12.1770 O.2    80  ILE80      -0.2718
     62  CB        -0.5940   -2.4220   15.3910 C.3    80  ILE80       0.0266
     63  CG1       -0.2410   -0.9810   15.1360 C.3    80  ILE80       0.0019
     64  CG2       -0.1890   -2.8570   16.8380 C.3    80  ILE80       0.0020
     65  CD1       -1.1550   -0.0450   15.9070 C.3    80  ILE80       0.0001
     66  N         -1.7130   -3.9670   12.8050 N.am   81  GLY81      -0.1942
     67  CA        -2.5420   -3.9180   11.6270 C.3    81  GLY81       0.2014
     68  C         -4.0030   -3.7920   12.0530 C.2    81  GLY81       0.2638
     69  O         -4.3310   -3.7710   13.2600 O.2    81  GLY81      -0.2714
     70  N         -4.8810   -3.7390   11.0620 N.am   82  LEU82      -0.1977
     71  CA        -6.3120   -3.5190   11.3290 C.3    82  LEU82       0.1596
     72  C         -7.1920   -4.7380   11.3230 C.2    82  LEU82       0.2287
     73  O         -7.3190   -5.3990   10.3030 O.2    82  LEU82      -0.2864
     74  CB        -6.9060   -2.5910   10.2720 C.3    82  LEU82       0.0297
     75  CG        -6.8540   -1.0970   10.4110 C.3    82  LEU82       0.0022
     76  CD1       -7.6250   -0.5020    9.2440 C.3    82  LEU82       0.0001
     77  CD2       -7.4420   -0.6310   11.7610 C.3    82  LEU82       0.0001
     78  N        -10.8750    2.5130   15.2090 N.3   100  LEU100     -0.1231
     79  CA        -9.9200    1.5390   14.6690 C.3   100  LEU100      0.1693
     80  C         -9.7850    0.3870   15.6630 C.2   100  LEU100      0.2592
     81  O         -9.7590    0.6010   16.8690 O.2   100  LEU100     -0.2718
     82  CB        -8.5580    2.2010   14.4280 C.3   100  LEU100      0.0284
     83  CG        -8.5340    3.4390   13.5280 C.3   100  LEU100      0.0019
     84  CD1       -7.2340    4.1990   13.7330 C.3   100  LEU100      0.0001
     85  CD2       -8.7530    3.0950   12.0280 C.3   100  LEU100      0.0001
     86  N         -9.6910   -0.8390   15.1480 N.am  101  VAL101     -0.1966
     87  CA        -9.6050   -2.0180   15.9890 C.3   101  VAL101      0.1727
     88  C         -8.3850   -2.8780   15.6360 C.2   101  VAL101      0.2617
     89  O         -8.1040   -3.1430   14.4680 O.2   101  VAL101     -0.2715
     90  CB       -10.8810   -2.8700   15.8560 C.3   101  VAL101      0.0290
     91  CG1      -10.8490   -4.0830   16.8090 C.3   101  VAL101      0.0023
     92  CG2      -12.1240   -2.0230   16.0980 C.3   101  VAL101      0.0023
     93  N         -7.6550   -3.3050   16.6590 N.am  102  THR102     -0.1937
     94  CA        -6.5000   -4.1590   16.4680 C.3   102  THR102      0.2028
     95  C         -6.4140   -5.1310   17.6440 C.2   102  THR102      0.2642
     96  O         -7.2160   -5.0270   18.5840 O.2   102  THR102     -0.2714
     97  CB        -5.2030   -3.3310   16.3690 C.3   102  THR102      0.1808
     98  OG1       -4.1300   -4.1770   15.9290 O.3   102  THR102     -0.2208
     99  CG2       -4.8650   -2.7000   17.7000 C.3   102  THR102      0.0379
    100  N         -5.4730   -6.0860   17.5800 N.am  103  HIS103     -0.1959
    101  CA        -5.2870   -7.0370   18.6730 C.3   103  HIS103      0.1787
    102  C         -4.8880   -6.2760   19.9250 C.2   103  HIS103      0.2620
    103  O         -4.1000   -5.3460   19.8630 O.2   103  HIS103     -0.2715
    104  CB        -4.1840   -8.0650   18.3630 C.3   103  HIS103      0.0785
    105  CG        -4.4320   -8.8970   17.1390 C.ar  103  HIS103      0.0821
    106  ND1       -3.9340   -8.5580   15.8970 N.ar  103  HIS103     -0.2267
    107  CD2       -5.0990  -10.0670   16.9700 C.ar  103  HIS103      0.1154
    108  CE1       -4.2900   -9.4800   15.0150 C.ar  103  HIS103      0.1986
    109  NE2       -4.9960  -10.4050   15.6390 N.ar  103  HIS103     -0.2212
    110  N         -5.4380   -6.6500   21.0730 N.am  104  LEU104     -0.1963
    111  CA        -5.0810   -5.9700   22.3210 C.3   104  LEU104      0.1728
    112  C         -3.6440   -6.3540   22.7230 C.2   104  LEU104      0.2616
    113  O         -3.3050   -7.5200   22.7330 O.2   104  LEU104     -0.2715
    114  CB        -6.0300   -6.3790   23.4340 C.3   104  LEU104      0.0311
    115  CG        -5.7640   -5.7430   24.8030 C.3   104  LEU104      0.0022
    116  CD1       -5.9000   -4.2110   24.7570 C.3   104  LEU104      0.0001
    117  CD2       -6.7070   -6.3570   25.8340 C.3   104  LEU104      0.0001
    118  N         -2.8160   -5.3560   23.0270 N.am  105  MET105     -0.1977
    119  CA        -1.4480   -5.5470   23.4940 C.3   105  MET105      0.1605
    120  C         -1.4000   -4.8880   24.8870 C.2   105  MET105      0.2287
    121  O         -1.4670   -3.6560   25.0200 O.2   105  MET105     -0.2864
    122  CB        -0.4710   -4.9070   22.5200 C.3   105  MET105      0.0413
    123  CG        -0.5110   -5.5310   21.0940 C.3   105  MET105      0.0598
    124  SD         0.0510   -7.2640   20.9670 S.3   105  MET105     -0.1393
    125  CE         1.8340   -7.0460   21.2600 C.3   105  MET105      0.0692
    126  N          3.7530   -2.1590   27.2020 N.3   108  ASP108     -0.1239
    127  CA         4.6840   -1.5450   26.2850 C.3   108  ASP108      0.1674
    128  C          6.0530   -1.7810   26.8560 C.2   108  ASP108      0.2266
    129  O          6.2030   -2.2100   28.0150 O.2   108  ASP108     -0.2867
    130  CB         4.3790   -0.0600   26.0280 C.3   108  ASP108      0.1410
    131  CG         4.6730    0.8420   27.2190 C.2   108  ASP108      0.3668
    132  OD1        5.5400    0.5160   28.0480 O.co2 108  ASP108     -0.2456
    133  OD2        4.0530    1.9230   27.2960 O.co2 108  ASP108     -0.2456
    134  N         10.1580    4.6430   20.1240 N.3   148  LYS148     -0.1245
    135  CA        10.5010    4.7400   21.5280 C.3   148  LYS148      0.1561
    136  C          9.7670    3.6590   22.2790 C.2   148  LYS148      0.2260
    137  O          8.8010    3.0840   21.7650 O.2   148  LYS148     -0.2867
    138  CB        10.1630    6.1010   22.0670 C.3   148  LYS148      0.0271
    139  CG         8.7380    6.4660   22.0030 C.3   148  LYS148      0.0035
    140  CD         8.5990    7.9760   22.0720 C.3   148  LYS148      0.0206
    141  CE         7.1860    8.4130   21.6560 C.3   148  LYS148      0.1093
    142  NZ         7.0810    9.8960   21.4480 N.3   148  LYS148     -0.1314
    143  N          7.4590    3.5290   24.5080 N.3   150  SER150     -0.1202
    144  CA         5.9980    3.6210   24.5940 C.3   150  SER150      0.2020
    145  C          5.3140    3.4860   23.2270 C.2   150  SER150      0.2618
    146  O          4.1020    3.6330   23.1230 O.2   150  SER150     -0.2717
    147  CB         5.5780    4.8960   25.3380 C.3   150  SER150      0.2103
    148  OG         6.3020    6.0300   24.8930 O.3   150  SER150     -0.2182
    149  N          6.0980    3.2050   22.1840 N.am  151  ASN151     -0.1974
    150  CA         5.5470    2.9430   20.8450 C.3   151  ASN151      0.1688
    151  C          5.7340    1.4790   20.4500 C.2   151  ASN151      0.2292
    152  O          5.3680    1.0640   19.3510 O.2   151  ASN151     -0.2864
    153  CB         6.1410    3.8810   19.8030 C.3   151  ASN151      0.1181
    154  CG         5.5010    5.2400   19.8480 C.2   151  ASN151      0.2629
    155  OD1        4.3880    5.3690   20.3330 O.2   151  ASN151     -0.2716
    156  ND2        6.1740    6.2440   19.3370 N.am  151  ASN151     -0.0877
    157  N          3.8570    0.3100   16.9360 N.3   163  LEU163     -0.1231
    158  CA         2.6710    1.1350   16.7990 C.3   163  LEU163      0.1693
    159  C          3.1510    2.5300   16.3400 C.2   163  LEU163      0.2592
    160  O          4.3620    2.8310   16.3770 O.2   163  LEU163     -0.2718
    161  CB         2.0170    1.4090   18.1610 C.3   163  LEU163      0.0284
    162  CG         1.9060    0.4390   19.3370 C.3   163  LEU163      0.0019
    163  CD1        1.6140    1.2620   20.5880 C.3   163  LEU163      0.0001
    164  CD2        0.8410   -0.6240   19.1490 C.3   163  LEU163      0.0001
    165  N          2.1880    3.4040   16.0210 N.am  164  ASP164     -0.1974
    166  CA         2.4480    4.8420   15.7060 C.3   164  ASP164      0.1709
    167  C          3.3440    5.1890   14.4970 C.2   164  ASP164      0.2293
    168  O          3.7300    6.3520   14.3260 O.2   164  ASP164     -0.2864
    169  CB         2.9990    5.5400   16.9620 C.3   164  ASP164      0.1436
    170  CG         1.9120    5.8370   17.9990 C.2   164  ASP164      0.3671
    171  OD1        0.8720    6.4220   17.6210 O.co2 164  ASP164     -0.2456
    172  OD2        2.0860    5.4770   19.1900 O.co2 164  ASP164     -0.2456
@<TRIPOS>BOND
     1    52    53    2
     2    52    51    1
     3    50    51    1
     4    41    42    1
     5    51    54    1
     6    43    44    2
     7    43    42    1
     8    76    75    1
     9    42    45    1
    10    74    75    1
    11    74    71    1
    12    54    55    1
    13    73    72    2
    14    75    77    1
    15    70    71    1
    16    70    68   am
    17    45    46    1
    18    72    71    1
    19    55    57    1
    20    55    56    1
    21    67    68    1
    22    67    66    1
    23    85    83    1
    24    68    69    2
    25    61    60    2
    26    46    47    1
    27    66    60   am
    28    60    59    1
    29    83    84    1
    30    83    82    1
    31    47    48   ar
    32    47    49   ar
    33    58    59    1
    34   168   167    2
    35    59    62    1
    36    82    79    1
    37    89    88    2
    38   167   166    1
    39    79    78    1
    40    79    80    1
    41   108   109   ar
    42   108   106   ar
    43    63    62    1
    44    63    65    1
    45    86    80   am
    46    86    87    1
    47    62    64    1
    48    88    87    1
    49    88    93   am
    50   109   107   ar
    51    80    81    2
    52   166   165    1
    53   166   169    1
    54    90    87    1
    55    90    92    1
    56    90    91    1
    57   106   105   ar
    58    98    97    1
    59   165   159   am
    60   159   160    2
    61   159   158    1
    62    97    94    1
    63    97    99    1
    64    94    93    1
    65    94    95    1
    66   158   157    1
    67   158   161    1
    68   169   170    1
    69   107   105   ar
    70   105   104    1
    71    40    39    1
    72    39    38    1
    73    35    34    2
    74   100    95   am
    75   100   101    1
    76   171   170   ar
    77    95    96    2
    78   170   172   ar
    79   161   162    1
    80    11    10    2
    81   104   101    1
    82    38    37    1
    83    34    33    1
    84   101   102    1
    85    37    36    1
    86    36    33    1
    87   164   162    1
    88    30    29    2
    89    10     9    1
    90     9    12    1
    91     9     8    1
    92    32    33    1
    93   162   163    1
    94   156   154   am
    95    12    13    1
    96   152   151    2
    97   153   154    1
    98   153   150    1
    99   154   155    2
   100   103   102    2
   101   102   110   am
   102   134   135    1
   103    29    28    1
   104   151   150    1
   105    13    15   ar
   106    13    14   ar
   107   150   149    1
   108   124   123    1
   109   124   125    1
   110    27    28    1
   111    15    17   ar
   112   110   111    1
   113   123   122    1
   114    28    31    1
   115   142   141    1
   116   135   138    1
   117   135   136    1
   118   141   140    1
   119    14    16   ar
   120   137   136    2
   121   139   138    1
   122   139   140    1
   123   149   145   am
   124    17    18   ar
   125   111   112    1
   126   111   114    1
   127    26    24    1
   128   122   119    1
   129   112   113    2
   130   112   118   am
   131    16    18   ar
   132   118   119    1
   133   146   145    2
   134    25    24    1
   135   145   144    1
   136    18    19    1
   137   114   115    1
   138   119   120    1
   139    24    21    1
   140    21    20    1
   141    21    22    1
   142   143   144    1
   143   144   147    1
   144    22    23    2
   145   116   115    1
   146   115   117    1
   147   120   121    2
   148   148   147    1
   149   130   127    1
   150   130   131    1
   151   127   128    1
   152   127   126    1
   153   128   129    2
   154   131   133   ar
   155   131   132   ar
   156     6     5    1
   157     5     7    1
   158     5     2    1
   159     1     2    1
   160     2     3    1
   161     3     4    2
