@<TRIPOS>MOLECULE
tmp/4ewsA05.pdb
 234 220 0 0 0
SMALL
GASTEIGER

@<TRIPOS>ATOM
      1  N          5.0690    3.0150   27.1590 N.3     7  ILE7       -0.1231
      2  CA         6.2520    2.4440   27.8170 C.3     7  ILE7        0.1692
      3  C          5.8100    1.2730   28.7030 C.2     7  ILE7        0.2592
      4  O          4.7090    1.3270   29.2550 O.2     7  ILE7       -0.2718
      5  CB         7.0710    3.5080   28.6050 C.3     7  ILE7        0.0266
      6  CG1        7.4810    4.6890   27.6980 C.3     7  ILE7        0.0019
      7  CG2        8.3060    2.8680   29.2090 C.3     7  ILE7        0.0020
      8  CD1        7.9840    5.9080   28.4020 C.3     7  ILE7        0.0001
      9  N          6.6400    0.1990   28.8010 N.am    8  VAL8       -0.1966
     10  CA         6.3680   -0.9770   29.6440 C.3     8  VAL8        0.1727
     11  C          7.6330   -1.3620   30.4150 C.2     8  VAL8        0.2616
     12  O          8.7240   -1.3630   29.8610 O.2     8  VAL8       -0.2715
     13  CB         5.7340   -2.1820   28.8860 C.3     8  VAL8        0.0290
     14  CG1        5.6190   -3.4130   29.7840 C.3     8  VAL8        0.0023
     15  CG2        4.3690   -1.8270   28.3100 C.3     8  VAL8        0.0023
     16  N          7.4800   -1.6440   31.7040 N.am    9  CYS9       -0.1968
     17  CA         8.5480   -2.0520   32.6040 C.3     9  CYS9        0.1712
     18  C          8.2790   -3.4750   33.0940 C.2     9  CYS9        0.2296
     19  O          7.1890   -3.7470   33.5990 O.2     9  CYS9       -0.2864
     20  CB         8.6580   -1.0760   33.7710 C.3     9  CYS9        0.0983
     21  SG         9.8270   -1.5930   35.0540 S.3     9  CYS9       -0.0798
     22  N          9.9590   -6.3300   35.6750 N.3    11  ILE11      -0.1245
     23  CA        10.8850   -6.7900   36.7150 C.3    11  ILE11       0.1561
     24  C         10.5980   -8.2970   36.8660 C.2    11  ILE11       0.2260
     25  O          9.4490   -8.6720   37.1470 O.2    11  ILE11      -0.2867
     26  CB        10.6660   -6.0240   38.0540 C.3    11  ILE11       0.0252
     27  CG1       10.9270   -4.5250   37.8980 C.3    11  ILE11       0.0019
     28  CG2       11.5390   -6.5870   39.1560 C.3    11  ILE11       0.0019
     29  CD1        9.7670   -3.6780   38.2530 C.3    11  ILE11       0.0001
     30  N         -0.1140   -5.0420   44.5780 N.3   125  LEU125     -0.1245
     31  CA         0.2110   -3.8070   43.8590 C.3   125  LEU125      0.1561
     32  C         -0.9850   -3.2940   43.0840 C.2   125  LEU125      0.2260
     33  O         -1.6170   -4.0450   42.3330 O.2   125  LEU125     -0.2867
     34  CB         1.4130   -3.9800   42.9160 C.3   125  LEU125      0.0270
     35  CG         2.6770   -4.6140   43.5010 C.3   125  LEU125      0.0019
     36  CD1        3.7250   -4.7700   42.4380 C.3   125  LEU125      0.0001
     37  CD2        3.2300   -3.7920   44.6230 C.3   125  LEU125      0.0001
     38  N         -2.4170    7.1940   39.1980 N.3   130  GLY130     -0.1210
     39  CA        -1.3070    7.1470   38.2480 C.3   130  GLY130      0.1956
     40  C         -0.0710    6.4000   38.6980 C.2   130  GLY130      0.2612
     41  O          0.6810    5.8980   37.8640 O.2   130  GLY130     -0.2717
     42  N          0.1350    6.3110   40.0190 N.am  131  ARG131     -0.1965
     43  CA         1.2940    5.6910   40.6670 C.3   131  ARG131      0.1729
     44  C          0.9770    4.3140   41.2500 C.2   131  ARG131      0.2616
     45  O         -0.1730    4.0520   41.6250 O.2   131  ARG131     -0.2715
     46  CB         1.8280    6.5870   41.8250 C.3   131  ARG131      0.0348
     47  CG         1.7180    8.1130   41.6520 C.3   131  ARG131      0.0492
     48  CD         2.7510    8.8350   42.5060 C.3   131  ARG131      0.2205
     49  NE         3.8920    9.2860   41.7030 N.pl3 131  ARG131     -0.0865
     50  CZ         5.1210    9.4940   42.1710 C.cat 131  ARG131      0.5346
     51  NH1        5.3990    9.2700   43.4520 N.pl3 131  ARG131      0.1354
     52  NH2        6.0830    9.9130   41.3590 N.pl3 131  ARG131      0.1354
     53  N          2.0160    3.4570   41.3790 N.am  132  VAL132     -0.1977
     54  CA         1.8730    2.1520   42.0070 C.3   132  VAL132      0.1596
     55  C          1.9260    2.3060   43.5150 C.2   132  VAL132      0.2287
     56  O          2.8600    2.9120   44.0550 O.2   132  VAL132     -0.2864
     57  CB         2.6850    0.9430   41.4070 C.3   132  VAL132      0.0276
     58  CG1        3.9000    1.3800   40.5860 C.3   132  VAL132      0.0022
     59  CG2        3.0570   -0.1180   42.4510 C.3   132  VAL132      0.0022
     60  N          1.4090    0.1650   47.3010 N.3   134  THR134     -0.1218
     61  CA         1.6030   -1.1680   47.8770 C.3   134  THR134      0.1862
     62  C          0.6970   -1.2990   49.1010 C.2   134  THR134      0.2287
     63  O          0.6510   -0.3740   49.9160 O.2   134  THR134     -0.2866
     64  CB         3.0820   -1.3720   48.2600 C.3   134  THR134      0.1770
     65  OG1        3.4490   -0.3700   49.2030 O.3   134  THR134     -0.2211
     66  CG2        4.0350   -1.2970   47.0660 C.3   134  THR134      0.0375
     67  N          8.2500    2.5820   47.1730 N.3   191  ALA191     -0.1245
     68  CA         7.4630    2.6980   45.9510 C.3   191  ALA191      0.1562
     69  C          7.4580    4.1480   45.5050 C.2   191  ALA191      0.2260
     70  O          7.8130    4.4340   44.3590 O.2   191  ALA191     -0.2867
     71  CB         6.0300    2.2270   46.2050 C.3   191  ALA191      0.0290
     72  N         11.1390    5.2910   44.4030 N.3   194  VAL194     -0.1231
     73  CA        11.5430    4.6240   43.1660 C.3   194  VAL194      0.1692
     74  C         10.8780    5.3170   41.9710 C.2   194  VAL194      0.2591
     75  O         11.5260    5.5580   40.9480 O.2   194  VAL194     -0.2718
     76  CB        11.2120    3.1050   43.2340 C.3   194  VAL194      0.0266
     77  CG1       11.1710    2.4500   41.8380 C.3   194  VAL194      0.0020
     78  CG2       12.1890    2.3770   44.1480 C.3   194  VAL194      0.0020
     79  N          9.5850    5.6370   42.1150 N.am  195  GLN195     -0.1979
     80  CA         8.7850    6.2750   41.0810 C.3   195  GLN195      0.1601
     81  C          9.1710    7.7430   40.8440 C.2   195  GLN195      0.2287
     82  O          9.0990    8.2180   39.7130 O.2   195  GLN195     -0.2864
     83  CB         7.3030    6.1040   41.4020 C.3   195  GLN195      0.0394
     84  CG         6.8690    4.6650   41.2440 C.3   195  GLN195      0.0908
     85  CD         5.4880    4.4610   41.7720 C.2   195  GLN195      0.2608
     86  OE1        4.5020    4.6550   41.0730 O.2   195  GLN195     -0.2717
     87  NE2        5.3870    4.0530   43.0170 N.am  195  GLN195     -0.0878
     88  N         12.2850    8.9560   41.4330 N.3   197  ARG197     -0.1231
     89  CA        13.6030    8.8260   40.8260 C.3   197  ARG197      0.1694
     90  C         13.4470    8.4540   39.3360 C.2   197  ARG197      0.2591
     91  O         14.1680    9.0060   38.5130 O.2   197  ARG197     -0.2718
     92  CB        14.4390    7.7840   41.5840 C.3   197  ARG197      0.0321
     93  CG        15.9400    8.0290   41.5210 C.3   197  ARG197      0.0489
     94  CD        16.4190    8.8780   42.6820 C.3   197  ARG197      0.2205
     95  NE        17.8520    9.1630   42.5840 N.pl3 197  ARG197     -0.0865
     96  CZ        18.8030    8.4980   43.2370 C.cat 197  ARG197      0.5346
     97  NH1       18.4860    7.4990   44.0520 N.pl3 197  ARG197      0.1354
     98  NH2       20.0780    8.8330   43.0840 N.pl3 197  ARG197      0.1354
     99  N         12.4730    7.5770   38.9890 N.am  198  ALA198     -0.1980
    100  CA        12.1840    7.1700   37.6090 C.3   198  ALA198      0.1597
    101  C         11.6310    8.3320   36.8010 C.2   198  ALA198      0.2287
    102  O         11.9730    8.4680   35.6250 O.2   198  ALA198     -0.2864
    103  CB        11.2030    6.0210   37.5830 C.3   198  ALA198      0.0319
    104  N         14.5540   10.7280   36.1470 N.3   201  ILE201     -0.1231
    105  CA        15.4310   10.2340   35.0890 C.3   201  ILE201      0.1692
    106  C         14.8480   10.5700   33.7370 C.2   201  ILE201      0.2591
    107  O         15.5810   11.0060   32.8560 O.2   201  ILE201     -0.2718
    108  CB        15.7860    8.7290   35.2840 C.3   201  ILE201      0.0266
    109  CG1       16.7410    8.5820   36.4910 C.3   201  ILE201      0.0019
    110  CG2       16.3970    8.1000   33.9990 C.3   201  ILE201      0.0020
    111  CD1       16.9900    7.2530   36.9560 C.3   201  ILE201      0.0001
    112  N         13.5240   10.4440   33.5990 N.am  202  LEU202     -0.1980
    113  CA        12.8230   10.7360   32.3540 C.3   202  LEU202      0.1596
    114  C         12.4030   12.2040   32.2360 C.2   202  LEU202      0.2287
    115  O         11.3340   12.4860   31.7010 O.2   202  LEU202     -0.2864
    116  CB        11.6360    9.7740   32.1550 C.3   202  LEU202      0.0297
    117  CG        11.9540    8.2760   32.2690 C.3   202  LEU202      0.0022
    118  CD1       10.7450    7.4520   32.0100 C.3   202  LEU202      0.0001
    119  CD2       13.0530    7.8510   31.3170 C.3   202  LEU202      0.0001
    120  N          4.7200    9.0080   32.9720 N.3   211  ILE211     -0.1245
    121  CA         4.8320    7.5770   33.2760 C.3   211  ILE211      0.1561
    122  C          3.6750    7.0700   34.1120 C.2   211  ILE211      0.2260
    123  O          3.7730    6.0010   34.7090 O.2   211  ILE211     -0.2867
    124  CB         6.2200    7.1280   33.8110 C.3   211  ILE211      0.0252
    125  CG1        6.7520    8.0650   34.9110 C.3   211  ILE211      0.0019
    126  CG2        7.1990    6.9890   32.6390 C.3   211  ILE211      0.0019
    127  CD1        7.8560    7.5010   35.7500 C.3   211  ILE211      0.0001
    128  N          0.4240    5.2290   35.2010 N.3   213  LEU213     -0.1245
    129  CA        -0.0160    3.8760   34.8720 C.3   213  LEU213      0.1561
    130  C         -1.2420    3.9240   33.9510 C.2   213  LEU213      0.2260
    131  O         -1.9470    4.9320   33.9270 O.2   213  LEU213     -0.2867
    132  CB        -0.3560    3.1360   36.1720 C.3   213  LEU213      0.0270
    133  CG         0.7140    2.2750   36.8600 C.3   213  LEU213      0.0019
    134  CD1        2.0920    2.9010   36.8350 C.3   213  LEU213      0.0001
    135  CD2        0.3230    2.0120   38.2850 C.3   213  LEU213      0.0001
    136  N         -0.5700   -2.9040   38.0790 N.3   217  PRO217     -0.2116
    137  CA         0.5620   -3.7520   37.6600 C.3   217  PRO217      0.1372
    138  C          0.2090   -5.2340   37.5060 C.2   217  PRO217      0.2244
    139  O         -0.7410   -5.7060   38.1280 O.2   217  PRO217     -0.2868
    140  CB         1.6150   -3.4990   38.7410 C.3   217  PRO217      0.0268
    141  CG         1.2820   -2.1640   39.2810 C.3   217  PRO217      0.0207
    142  CD        -0.2170   -2.1100   39.2740 C.3   217  PRO217      0.0892
    143  N          6.8290   -9.2780   37.3130 N.3   224  LEU224     -0.1231
    144  CA         6.0420   -8.1190   37.7350 C.3   224  LEU224      0.1693
    145  C          6.0260   -7.2140   36.4910 C.2   224  LEU224      0.2592
    146  O          7.0440   -7.1110   35.8210 O.2   224  LEU224     -0.2718
    147  CB         6.8000   -7.3960   38.8570 C.3   224  LEU224      0.0284
    148  CG         6.3190   -7.4590   40.2950 C.3   224  LEU224      0.0019
    149  CD1        5.6780   -8.7760   40.6400 C.3   224  LEU224      0.0001
    150  CD2        7.4650   -7.1860   41.2210 C.3   224  LEU224      0.0001
    151  N          4.9100   -6.5780   36.1590 N.am  225  GLU225     -0.1966
    152  CA         4.8960   -5.7490   34.9580 C.3   225  GLU225      0.1733
    153  C          3.9920   -4.5490   35.1180 C.2   225  GLU225      0.2617
    154  O          2.8430   -4.7060   35.5310 O.2   225  GLU225     -0.2715
    155  CB         4.4720   -6.5850   33.7190 C.3   225  GLU225      0.0429
    156  CG         4.9100   -6.0000   32.3880 C.3   225  GLU225      0.1163
    157  CD         4.4330   -6.7590   31.1710 C.2   225  GLU225      0.3649
    158  OE1        3.2080   -6.9870   31.0490 O.co2 225  GLU225     -0.2457
    159  OE2        5.2860   -7.1010   30.3210 O.co2 225  GLU225     -0.2457
    160  N          4.4970   -3.3560   34.7490 N.am  226  SER226     -0.1950
    161  CA         3.7520   -2.0980   34.8330 C.3   226  SER226      0.1924
    162  C          3.7320   -1.3890   33.4820 C.2   226  SER226      0.2314
    163  O          4.7600   -1.2790   32.8470 O.2   226  SER226     -0.2863
    164  CB         4.3210   -1.1970   35.9320 C.3   226  SER226      0.2116
    165  OG         5.5680   -0.6250   35.5750 O.3   226  SER226     -0.2180
    166  N          2.8260    2.0730   31.2150 N.3   228  HIS228     -0.1241
    167  CA         2.8530    3.5310   31.3580 C.3   228  HIS228      0.1621
    168  C          2.4070    4.2920   30.1130 C.2   228  HIS228      0.2264
    169  O          2.5700    3.8050   28.9920 O.2   228  HIS228     -0.2867
    170  CB         4.2490    3.9870   31.8290 C.3   228  HIS228      0.0745
    171  CG         4.7960    3.1700   32.9720 C.ar  228  HIS228      0.0817
    172  ND1        4.6640    3.5800   34.2840 N.ar  228  HIS228     -0.2268
    173  CD2        5.4440    1.9770   32.9560 C.ar  228  HIS228      0.1154
    174  CE1        5.2200    2.6300   35.0120 C.ar  228  HIS228      0.1986
    175  NE2        5.7080    1.6510   34.2580 N.ar  228  HIS228     -0.2212
    176  N         15.5140   -7.1600   34.1790 N.3   257  LEU257     -0.1245
    177  CA        14.7510   -5.9800   33.8040 C.3   257  LEU257      0.1561
    178  C         14.5500   -5.9060   32.2920 C.2   257  LEU257      0.2260
    179  O         15.5300   -5.9450   31.5510 O.2   257  LEU257     -0.2867
    180  CB        15.5910   -4.7740   34.2530 C.3   257  LEU257      0.0270
    181  CG        15.0250   -3.7310   35.1930 C.3   257  LEU257      0.0019
    182  CD1       14.4320   -4.3590   36.4420 C.3   257  LEU257      0.0001
    183  CD2       16.1220   -2.7570   35.5790 C.3   257  LEU257      0.0001
    184  N         12.5570   -3.4220   29.4180 N.3   259  PHE259     -0.1241
    185  CA        11.9000   -2.1430   29.1810 C.3   259  PHE259      0.1605
    186  C         11.4960   -2.0900   27.7330 C.2   259  PHE259      0.2264
    187  O         12.3210   -2.3340   26.8590 O.2   259  PHE259     -0.2867
    188  CB        12.8200   -0.9580   29.5180 C.3   259  PHE259      0.0534
    189  CG        13.0550   -0.6860   30.9890 C.ar  259  PHE259     -0.0203
    190  CD1       14.2730   -0.9870   31.5800 C.ar  259  PHE259     -0.0042
    191  CD2       12.0850   -0.0590   31.7610 C.ar  259  PHE259     -0.0042
    192  CE1       14.5080   -0.6940   32.9260 C.ar  259  PHE259     -0.0003
    193  CE2       12.3170    0.2280   33.1040 C.ar  259  PHE259     -0.0003
    194  CZ        13.5290   -0.0920   33.6770 C.ar  259  PHE259     -0.0000
    195  N          9.6340    0.2690   24.7120 N.3   261  PHE261     -0.1241
    196  CA         9.3820    1.6460   24.3140 C.3   261  PHE261      0.1605
    197  C          8.7920    1.6960   22.9230 C.2   261  PHE261      0.2264
    198  O          9.4470    1.2800   21.9580 O.2   261  PHE261     -0.2867
    199  CB        10.6820    2.4740   24.3550 C.3   261  PHE261      0.0534
    200  CG        11.2250    2.7860   25.7210 C.ar  261  PHE261     -0.0203
    201  CD1       12.2430    2.0170   26.2730 C.ar  261  PHE261     -0.0042
    202  CD2       10.7640    3.8880   26.4360 C.ar  261  PHE261     -0.0042
    203  CE1       12.7450    2.3040   27.5530 C.ar  261  PHE261     -0.0003
    204  CE2       11.2790    4.1880   27.7070 C.ar  261  PHE261     -0.0003
    205  CZ        12.2520    3.3830   28.2630 C.ar  261  PHE261     -0.0000
    206  N         22.2430    7.2560   36.9750 N.3   434  VAL434     -0.1245
    207  CA        22.0200    5.9530   36.3170 C.3   434  VAL434      0.1561
    208  C         23.3060    5.1400   36.4460 C.2   434  VAL434      0.2260
    209  O         23.2660    3.9090   36.5280 O.2   434  VAL434     -0.2867
    210  CB        21.4860    6.0520   34.8490 C.3   434  VAL434      0.0252
    211  CG1       21.2270    4.6710   34.2490 C.3   434  VAL434      0.0019
    212  CG2       20.2050    6.8780   34.7810 C.3   434  VAL434      0.0019
    213  N         24.1310    2.5760   39.7390 N.3   437  PHE437     -0.1241
    214  CA        23.7350    1.1720   39.6110 C.3   437  PHE437      0.1605
    215  C         24.7880    0.4590   38.7680 C.2   437  PHE437      0.2264
    216  O         25.4720    1.1110   37.9860 O.2   437  PHE437     -0.2867
    217  CB        22.3810    1.0620   38.8810 C.3   437  PHE437      0.0534
    218  CG        21.2190    1.8100   39.4910 C.ar  437  PHE437     -0.0203
    219  CD1       20.8780    3.0850   39.0430 C.ar  437  PHE437     -0.0042
    220  CD2       20.4250    1.2180   40.4740 C.ar  437  PHE437     -0.0042
    221  CE1       19.7880    3.7740   39.6000 C.ar  437  PHE437     -0.0003
    222  CE2       19.3430    1.9110   41.0360 C.ar  437  PHE437     -0.0003
    223  CZ        19.0290    3.1810   40.5920 C.ar  437  PHE437     -0.0000
    224  N         21.1730   -6.4640   36.6710 N.3   457  PHE457     -0.1241
    225  CA        21.7220   -5.4000   37.4850 C.3   457  PHE457      0.1605
    226  C         22.2720   -5.9020   38.8160 C.2   457  PHE457      0.2264
    227  O         21.8090   -6.9060   39.3690 O.2   457  PHE457     -0.2867
    228  CB        20.6900   -4.2610   37.6790 C.3   457  PHE457      0.0534
    229  CG        19.4640   -4.6640   38.4690 C.ar  457  PHE457     -0.0203
    230  CD1       18.3420   -5.1750   37.8280 C.ar  457  PHE457     -0.0042
    231  CD2       19.4510   -4.5770   39.8580 C.ar  457  PHE457     -0.0042
    232  CE1       17.2320   -5.5900   38.5610 C.ar  457  PHE457     -0.0003
    233  CE2       18.3440   -4.9940   40.5860 C.ar  457  PHE457     -0.0003
    234  CZ        17.2410   -5.4960   39.9330 C.ar  457  PHE457     -0.0000
@<TRIPOS>BOND
     1   198   197    2
     2   197   196    1
     3   196   199    1
     4   196   195    1
     5   199   200    1
     6   200   201   ar
     7   200   202   ar
     8   201   203   ar
     9   202   204   ar
    10   187   186    2
    11     1     2    1
    12   203   205   ar
    13     6     8    1
    14     6     5    1
    15   204   205   ar
    16   186   185    1
    17     2     5    1
    18     2     3    1
    19    15    13    1
    20     5     7    1
    21     3     9   am
    22     3     4    2
    23     9    10    1
    24    13    10    1
    25    13    14    1
    26   169   168    2
    27   185   184    1
    28   185   188    1
    29   188   189    1
    30    10    11    1
    31    12    11    2
    32   168   167    1
    33   159   157   ar
    34    11    16   am
    35   189   190   ar
    36   189   191   ar
    37   158   157   ar
    38   157   156    1
    39   166   167    1
    40   119   117    1
    41   167   170    1
    42   179   178    2
    43   190   192   ar
    44   115   114    2
    45    16    17    1
    46   191   193   ar
    47   170   171    1
    48   118   117    1
    49   116   117    1
    50   116   113    1
    51   114   113    1
    52   178   177    1
    53   113   112    1
    54   156   155    1
    55    17    18    1
    56    17    20    1
    57   126   124    1
    58   163   162    2
    59   107   106    2
    60   192   194   ar
    61   173   171   ar
    62   173   175   ar
    63   120   121    1
    64   171   172   ar
    65    18    19    2
    66   193   194   ar
    67   121   124    1
    68   121   122    1
    69   162   161    1
    70   112   106   am
    71   155   152    1
    72   106   105    1
    73    20    21    1
    74   177   176    1
    75   177   180    1
    76   124   125    1
    77   131   130    2
    78   130   129    1
    79   110   108    1
    80   122   123    2
    81   211   210    1
    82   180   181    1
    83   175   174   ar
    84   172   174   ar
    85   160   161    1
    86   160   153   am
    87   212   210    1
    88   161   164    1
    89   210   207    1
    90   129   128    1
    91   129   132    1
    92   125   127    1
    93   152   153    1
    94   152   151    1
    95   105   108    1
    96   105   104    1
    97   153   154    2
    98   181   183    1
    99   181   182    1
   100   108   109    1
   101   165   164    1
   102   102   101    2
   103    22    23    1
   104   146   145    2
   105   151   145   am
   106   132   133    1
   107   207   208    1
   108   207   206    1
   109   208   209    2
   110   109   111    1
   111   145   144    1
   112   224   225    1
   113    23    24    1
   114    23    26    1
   115   101   100    1
   116   134   133    1
   117   133   135    1
   118    24    25    2
   119   143   144    1
   120   225   228    1
   121   225   226    1
   122   138   137    1
   123   138   139    2
   124   103   100    1
   125   100    99    1
   126   137   136    1
   127   137   140    1
   128   228   229    1
   129   144   147    1
   130   230   229   ar
   131   230   232   ar
   132    41    40    2
   133    27    26    1
   134    27    29    1
   135   216   215    2
   136    26    28    1
   137   136   142    1
   138    39    40    1
   139    39    38    1
   140   229   231   ar
   141    91    90    2
   142   232   234   ar
   143    40    42   am
   144   140   141    1
   145   215   214    1
   146   226   227    2
   147   147   148    1
   148   217   218    1
   149   217   214    1
   150    99    90   am
   151   219   218   ar
   152   219   221   ar
   153   142   141    1
   154    90    89    1
   155   218   220   ar
   156   221   223   ar
   157   214   213    1
   158    82    81    2
   159   231   233   ar
   160   234   233   ar
   161    42    43    1
   162   148   149    1
   163   148   150    1
   164   220   222   ar
   165    58    57    1
   166   223   222   ar
   167    43    44    1
   168    43    46    1
   169    89    88    1
   170    89    92    1
   171    81    80    1
   172    75    74    2
   173    86    85    2
   174    80    83    1
   175    80    79    1
   176    84    83    1
   177    84    85    1
   178    44    53   am
   179    44    45    2
   180    52    50    1
   181    53    54    1
   182    57    54    1
   183    57    59    1
   184    93    92    1
   185    93    94    1
   186    47    46    1
   187    47    48    1
   188    49    50    2
   189    49    48    1
   190    85    87   am
   191    77    76    1
   192    74    79   am
   193    74    73    1
   194    54    55    1
   195    50    51    1
   196    33    32    2
   197    36    35    1
   198    95    94    1
   199    95    96    2
   200    34    35    1
   201    34    31    1
   202    98    96    1
   203    32    31    1
   204    73    76    1
   205    73    72    1
   206    76    78    1
   207    96    97    1
   208    35    37    1
   209    55    56    2
   210    31    30    1
   211    70    69    2
   212    69    68    1
   213    68    71    1
   214    68    67    1
   215    66    64    1
   216    60    61    1
   217    61    64    1
   218    61    62    1
   219    64    65    1
   220    62    63    2
