@<TRIPOS>MOLECULE
tmp/4ewvB00.pdb
 142 134 0 0 0
SMALL
GASTEIGER

@<TRIPOS>ATOM
      1  N         22.7100  -24.7000  -47.5680 N.3   171  PHE171     -0.1241
      2  CA        21.4220  -24.1450  -47.9700 C.3   171  PHE171      0.1605
      3  C         21.5400  -22.6570  -48.2810 C.2   171  PHE171      0.2264
      4  O         22.4310  -21.9750  -47.7770 O.2   171  PHE171     -0.2867
      5  CB        20.3740  -24.3660  -46.8760 C.3   171  PHE171      0.0534
      6  CG        20.0100  -25.8100  -46.6590 C.ar  171  PHE171     -0.0203
      7  CD1       18.9190  -26.3700  -47.3050 C.ar  171  PHE171     -0.0042
      8  CD2       20.7470  -26.6030  -45.7950 C.ar  171  PHE171     -0.0042
      9  CE1       18.5740  -27.6960  -47.1020 C.ar  171  PHE171     -0.0003
     10  CE2       20.4080  -27.9310  -45.5850 C.ar  171  PHE171     -0.0003
     11  CZ        19.3190  -28.4760  -46.2420 C.ar  171  PHE171     -0.0000
     12  N         21.8890  -25.6280  -52.2040 N.3   252  VAL252     -0.1245
     13  CA        20.7420  -26.3010  -52.8030 C.3   252  VAL252      0.1561
     14  C         19.6430  -25.2750  -53.0770 C.2   252  VAL252      0.2260
     15  O         19.0930  -24.6660  -52.1590 O.2   252  VAL252     -0.2867
     16  CB        20.2040  -27.4680  -51.9360 C.3   252  VAL252      0.0252
     17  CG1       20.1360  -27.0750  -50.4770 C.3   252  VAL252      0.0019
     18  CG2       18.8360  -27.9170  -52.4360 C.3   252  VAL252      0.0019
     19  N         16.9860  -26.1820  -54.8460 N.3   254  THR254     -0.1203
     20  CA        15.7810  -26.9700  -55.0560 C.3   254  THR254      0.1994
     21  C         14.9270  -26.8660  -53.7980 C.2   254  THR254      0.2618
     22  O         15.3540  -26.2770  -52.8070 O.2   254  THR254     -0.2717
     23  CB        16.1360  -28.4470  -55.3340 C.3   254  THR254      0.1784
     24  OG1       17.3720  -28.5110  -56.0560 O.3   254  THR254     -0.2211
     25  CG2       15.0500  -29.1250  -56.1530 C.3   254  THR254      0.0376
     26  N         13.7370  -27.4560  -53.8270 N.am  255  GLY255     -0.1956
     27  CA        12.8250  -27.3880  -52.7010 C.3   255  GLY255      0.1869
     28  C         12.4690  -25.9700  -52.2880 C.2   255  GLY255      0.2309
     29  O         12.5420  -25.0360  -53.0920 O.2   255  GLY255     -0.2863
     30  N         14.0260  -23.8870  -50.6060 N.3   257  MET257     -0.1245
     31  CA        15.1590  -22.9790  -50.7570 C.3   257  MET257      0.1570
     32  C         15.1040  -22.2130  -52.0770 C.2   257  MET257      0.2261
     33  O         15.7790  -21.1910  -52.2360 O.2   257  MET257     -0.2867
     34  CB        16.4790  -23.7430  -50.6360 C.3   257  MET257      0.0387
     35  CG        16.7590  -24.3010  -49.2480 C.3   257  MET257      0.0595
     36  SD        16.9800  -23.0120  -48.0050 S.3   257  MET257     -0.1393
     37  CE        15.3890  -23.0330  -47.1800 C.3   257  MET257      0.0692
     38  N         24.1770  -31.6780  -54.1300 N.3   277  THR277     -0.1203
     39  CA        23.8290  -32.9360  -53.4700 C.3   277  THR277      0.1994
     40  C         22.4930  -32.9080  -52.7260 C.2   277  THR277      0.2618
     41  O         22.1180  -31.8940  -52.1380 O.2   277  THR277     -0.2717
     42  CB        24.9420  -33.3620  -52.4860 C.3   277  THR277      0.1784
     43  OG1       26.2240  -33.1750  -53.0980 O.3   277  THR277     -0.2211
     44  CG2       24.7860  -34.8240  -52.0840 C.3   277  THR277      0.0376
     45  N         21.7820  -34.0330  -52.7650 N.am  278  TYR278     -0.1961
     46  CA        20.5750  -34.2170  -51.9650 C.3   278  TYR278      0.1771
     47  C         20.7450  -35.3550  -50.9570 C.2   278  TYR278      0.2620
     48  O         21.0150  -36.5020  -51.3290 O.2   278  TYR278     -0.2715
     49  CB        19.3580  -34.4770  -52.8580 C.3   278  TYR278      0.0574
     50  CG        18.1220  -34.8930  -52.0900 C.ar  278  TYR278     -0.0198
     51  CD1       17.6020  -34.0870  -51.0860 C.ar  278  TYR278     -0.0009
     52  CD2       17.4720  -36.0880  -52.3720 C.ar  278  TYR278     -0.0009
     53  CE1       16.4750  -34.4580  -50.3770 C.ar  278  TYR278      0.0417
     54  CE2       16.3410  -36.4670  -51.6700 C.ar  278  TYR278      0.0417
     55  CZ        15.8480  -35.6480  -50.6730 C.ar  278  TYR278      0.1957
     56  OH        14.7240  -36.0200  -49.9710 O.3   278  TYR278     -0.2866
     57  N         20.5840  -35.0300  -49.6770 N.am  279  GLY279     -0.1940
     58  CA        20.6830  -36.0220  -48.6220 C.3   279  GLY279      0.2014
     59  C         19.8840  -35.6380  -47.3920 C.2   279  GLY279      0.2640
     60  O         19.6160  -34.4610  -47.1590 O.2   279  GLY279     -0.2714
     61  N         19.5120  -36.6360  -46.5970 N.am  280  SER280     -0.1935
     62  CA        18.7130  -36.4060  -45.3990 C.3   280  SER280      0.2055
     63  C         19.3210  -37.1160  -44.1970 C.2   280  SER280      0.2643
     64  O         20.4060  -37.6920  -44.2880 O.2   280  SER280     -0.2714
     65  CB        17.2710  -36.8720  -45.6140 C.3   280  SER280      0.2130
     66  OG        16.6370  -36.0710  -46.5470 O.3   280  SER280     -0.2179
     67  N         18.6170  -37.0640  -43.0700 N.am  281  SER281     -0.1949
     68  CA        19.0790  -37.7030  -41.8430 C.3   281  SER281      0.1924
     69  C         19.2340  -39.2130  -42.0160 C.2   281  SER281      0.2314
     70  O         20.0370  -39.8450  -41.3290 O.2   281  SER281     -0.2863
     71  CB        18.1200  -37.4000  -40.6880 C.3   281  SER281      0.2116
     72  OG        18.0090  -36.0060  -40.4650 O.3   281  SER281     -0.2180
     73  N         18.5320  -34.4040  -59.2460 N.3   300  TYR300     -0.1241
     74  CA        19.5000  -35.2470  -58.5540 C.3   300  TYR300      0.1605
     75  C         19.4250  -36.7010  -59.0070 C.2   300  TYR300      0.2264
     76  O         18.4160  -37.3730  -58.7960 O.2   300  TYR300     -0.2867
     77  CB        19.2770  -35.1910  -57.0430 C.3   300  TYR300      0.0534
     78  CG        19.2430  -33.8000  -56.4630 C.ar  300  TYR300     -0.0201
     79  CD1       20.4170  -33.1040  -56.2050 C.ar  300  TYR300     -0.0009
     80  CD2       18.0380  -33.1870  -56.1570 C.ar  300  TYR300     -0.0009
     81  CE1       20.3920  -31.8320  -55.6680 C.ar  300  TYR300      0.0417
     82  CE2       18.0020  -31.9170  -55.6200 C.ar  300  TYR300      0.0417
     83  CZ        19.1810  -31.2450  -55.3760 C.ar  300  TYR300      0.1957
     84  OH        19.1450  -29.9800  -54.8400 O.3   300  TYR300     -0.2866
     85  N         10.0630  -37.7820  -48.0080 N.3   326  ASP326     -0.1239
     86  CA        10.1430  -36.7640  -49.0490 C.3   326  ASP326      0.1674
     87  C          9.4840  -37.2560  -50.3340 C.2   326  ASP326      0.2266
     88  O          9.3560  -38.4590  -50.5570 O.2   326  ASP326     -0.2867
     89  CB        11.6000  -36.3780  -49.3220 C.3   326  ASP326      0.1410
     90  CG        12.2450  -35.6520  -48.1540 C.2   326  ASP326      0.3668
     91  OD1       11.5150  -35.0010  -47.3780 O.co2 326  ASP326     -0.2456
     92  OD2       13.4850  -35.7300  -48.0190 O.co2 326  ASP326     -0.2456
     93  N         13.5670  -32.6100  -56.9110 N.3   342  PHE342     -0.1241
     94  CA        12.8870  -32.5500  -55.6180 C.3   342  PHE342      0.1605
     95  C         11.6850  -31.6090  -55.6600 C.2   342  PHE342      0.2264
     96  O         11.8140  -30.4460  -56.0470 O.2   342  PHE342     -0.2867
     97  CB        13.8610  -32.1000  -54.5270 C.3   342  PHE342      0.0534
     98  CG        13.2870  -32.1510  -53.1380 C.ar  342  PHE342     -0.0203
     99  CD1       13.3970  -33.3000  -52.3750 C.ar  342  PHE342     -0.0042
    100  CD2       12.6460  -31.0520  -52.5920 C.ar  342  PHE342     -0.0042
    101  CE1       12.8750  -33.3540  -51.0930 C.ar  342  PHE342     -0.0003
    102  CE2       12.1220  -31.1040  -51.3110 C.ar  342  PHE342     -0.0003
    103  CZ        12.2390  -32.2560  -50.5610 C.ar  342  PHE342     -0.0000
    104  N          8.3300  -31.8820  -49.2650 N.3   345  ARG345     -0.1245
    105  CA         8.5260  -32.7730  -48.1250 C.3   345  ARG345      0.1563
    106  C          7.1900  -33.1330  -47.4760 C.2   345  ARG345      0.2260
    107  O          6.2830  -32.3030  -47.3970 O.2   345  ARG345     -0.2867
    108  CB         9.4600  -32.1330  -47.0950 C.3   345  ARG345      0.0307
    109  CG        10.8070  -31.9270  -47.7240 C.3   345  ARG345      0.0489
    110  CD        11.7240  -31.3780  -46.6360 C.3   345  ARG345      0.2205
    111  NE        12.9970  -31.0310  -47.2470 N.pl3 345  ARG345     -0.0865
    112  CZ        13.4990  -29.7960  -47.2810 C.cat 345  ARG345      0.5346
    113  NH1       12.8920  -28.7750  -46.6770 N.pl3 345  ARG345      0.1354
    114  NH2       14.6440  -29.5980  -47.9380 N.pl3 345  ARG345      0.1354
    115  N          6.6050  -34.0690  -44.3020 N.3   347  ASN347     -0.1240
    116  CA         6.4750  -33.6800  -42.8980 C.3   347  ASN347      0.1653
    117  C          5.5970  -32.4520  -42.6660 C.2   347  ASN347      0.2266
    118  O          4.6590  -32.4930  -41.8700 O.2   347  ASN347     -0.2867
    119  CB         7.8540  -33.4580  -42.2670 C.3   347  ASN347      0.1155
    120  CG         8.3140  -34.6400  -41.4400 C.2   347  ASN347      0.2627
    121  OD1        7.5000  -35.4110  -40.9330 O.2   347  ASN347     -0.2716
    122  ND2        9.6260  -34.7860  -41.2940 N.am  347  ASN347     -0.0877
    123  N         19.0650  -25.8790  -32.4250 N.3   464  ALA464     -0.1231
    124  CA        19.0590  -26.1710  -33.8520 C.3   464  ALA464      0.1694
    125  C         20.4180  -25.8190  -34.4440 C.2   464  ALA464      0.2592
    126  O         21.0920  -24.9070  -33.9650 O.2   464  ALA464     -0.2718
    127  CB        17.9560  -25.4020  -34.5540 C.3   464  ALA464      0.0304
    128  N         20.8260  -26.5560  -35.4720 N.am  465  SER465     -0.1952
    129  CA        22.1000  -26.3040  -36.1360 C.3   465  SER465      0.1924
    130  C         22.1310  -24.8980  -36.7250 C.2   465  SER465      0.2314
    131  O         21.0940  -24.3620  -37.1150 O.2   465  SER465     -0.2863
    132  CB        22.3540  -27.3430  -37.2300 C.3   465  SER465      0.2116
    133  OG        23.4870  -27.1500  -37.9170 O.3   465  SER465     -0.2180
    134  N         17.5410  -24.2030  -41.2270 N.3   467  LYS467     -0.1245
    135  CA        16.8420  -23.7430  -42.4210 C.3   467  LYS467      0.1561
    136  C         15.7010  -22.7970  -42.0650 C.2   467  LYS467      0.2260
    137  O         15.7360  -22.1280  -41.0330 O.2   467  LYS467     -0.2867
    138  CB        16.3100  -24.9340  -43.2230 C.3   467  LYS467      0.0271
    139  CG        15.4440  -25.8920  -42.4170 C.3   467  LYS467      0.0035
    140  CD        14.9490  -27.0400  -43.2790 C.3   467  LYS467      0.0206
    141  CE        14.1190  -28.0180  -42.4670 C.3   467  LYS467      0.1093
    142  NZ        13.6470  -29.1560  -43.2990 N.3   467  LYS467     -0.1314
@<TRIPOS>BOND
     1    73    74    1
     2    75    76    2
     3    75    74    1
     4    74    77    1
     5    77    78    1
     6    93    94    1
     7    78    79   ar
     8    78    80   ar
     9    79    81   ar
    10    80    82   ar
    11    25    23    1
    12    24    23    1
    13    96    95    2
    14    81    83   ar
    15    95    94    1
    16    82    83   ar
    17    94    97    1
    18    83    84    1
    19    23    20    1
    20    20    19    1
    21    20    21    1
    22    97    98    1
    23    38    39    1
    24    26    21   am
    25    26    27    1
    26    21    22    2
    27    39    40    1
    28    39    42    1
    29    98   100   ar
    30    98    99   ar
    31    43    42    1
    32    29    28    2
    33    14    13    1
    34    14    15    2
    35    49    50    1
    36    49    46    1
    37    13    12    1
    38    13    16    1
    39    45    40   am
    40    45    46    1
    41    40    41    2
    42    27    28    1
    43   100   102   ar
    44    42    44    1
    45    18    16    1
    46    99   101   ar
    47    52    50   ar
    48    52    54   ar
    49    33    32    2
    50    50    51   ar
    51    32    31    1
    52    46    47    1
    53    16    17    1
    54    54    55   ar
    55    48    47    2
    56   102   103   ar
    57   101   103   ar
    58    51    53   ar
    59    47    57   am
    60    31    34    1
    61    31    30    1
    62    55    53   ar
    63    55    56    1
    64    34    35    1
    65    88    87    2
    66    87    86    1
    67    57    58    1
    68    89    86    1
    69    89    90    1
    70   104   105    1
    71    35    36    1
    72    86    85    1
    73    58    59    1
    74     3     2    1
    75     3     4    2
    76    90    92   ar
    77    90    91   ar
    78   105   106    1
    79   105   108    1
    80    36    37    1
    81     2     1    1
    82     2     5    1
    83   114   112    1
    84   109   108    1
    85   109   110    1
    86   106   107    2
    87    59    60    2
    88    59    61   am
    89     7     9   ar
    90     7     6   ar
    91   112   111    2
    92   112   113    1
    93   111   110    1
    94     9    11   ar
    95     5     6    1
    96     6     8   ar
    97    61    62    1
    98    66    65    1
    99    11    10   ar
   100     8    10   ar
   101    65    62    1
   102    62    63    1
   103   115   116    1
   104    64    63    2
   105    63    67   am
   106   142   141    1
   107   140   141    1
   108   140   139    1
   109   138   135    1
   110   138   139    1
   111    67    68    1
   112   116   117    1
   113   116   119    1
   114   117   118    2
   115   135   136    1
   116   135   134    1
   117   119   120    1
   118   136   137    2
   119    69    68    1
   120    69    70    2
   121    68    71    1
   122   120   122   am
   123   120   121    2
   124    71    72    1
   125   133   132    1
   126   132   129    1
   127   131   130    2
   128   130   129    1
   129   129   128    1
   130   128   125   am
   131   127   124    1
   132   125   126    2
   133   125   124    1
   134   124   123    1
