@<TRIPOS>MOLECULE
tmp/4ex5B00.pdb
 113 103 0 0 0
SMALL
GASTEIGER

@<TRIPOS>ATOM
      1  N        -40.9360   21.1500    6.8220 N.3   196  GLY196     -0.1210
      2  CA       -39.9830   20.7640    7.8280 C.3   196  GLY196      0.1956
      3  C        -39.8780   21.7850    8.9200 C.2   196  GLY196      0.2611
      4  O        -39.1280   21.6020    9.9030 O.2   196  GLY196     -0.2717
      5  N        -40.6230   22.8700    8.7650 N.am  197  ALA197     -0.1979
      6  CA       -40.6160   23.9250    9.7550 C.3   197  ALA197      0.1597
      7  C        -41.8850   24.7780    9.6270 C.2   197  ALA197      0.2287
      8  O        -42.5550   24.7400    8.6080 O.2   197  ALA197     -0.2864
      9  CB       -39.3590   24.7880    9.5690 C.3   197  ALA197      0.0319
     10  N        -36.2240   24.1060    5.6990 N.3   218  ALA218     -0.1245
     11  CA       -35.6120   23.0440    6.4840 C.3   218  ALA218      0.1562
     12  C        -35.4440   21.8590    5.6060 C.2   218  ALA218      0.2260
     13  O        -36.2420   21.6630    4.7190 O.2   218  ALA218     -0.2867
     14  CB       -36.4760   22.6850    7.7080 C.3   218  ALA218      0.0290
     15  N        -35.5030   18.6940    6.7510 N.3   220  GLU220     -0.1245
     16  CA       -36.0260   17.5870    7.5370 C.3   220  GLU220      0.1567
     17  C        -36.6680   16.4660    6.7690 C.2   220  GLU220      0.2260
     18  O        -36.3260   15.2730    6.9880 O.2   220  GLU220     -0.2867
     19  CB       -37.0160   18.1300    8.6010 C.3   220  GLU220      0.0388
     20  CG       -37.8640   17.0700    9.2690 C.3   220  GLU220      0.1160
     21  CD       -38.4390   17.4990   10.6440 C.2   220  GLU220      0.3649
     22  OE1      -38.1340   18.6060   11.1710 O.co2 220  GLU220     -0.2457
     23  OE2      -39.2230   16.6980   11.1950 O.co2 220  GLU220     -0.2457
     24  N        -30.7320   27.4050    5.9860 N.3   240  ASN240     -0.1240
     25  CA       -32.1590   27.5280    5.7530 C.3   240  ASN240      0.1653
     26  C        -32.4950   28.9930    5.3880 C.2   240  ASN240      0.2266
     27  O        -31.6910   29.9270    5.6350 O.2   240  ASN240     -0.2867
     28  CB       -32.9420   27.1130    6.9880 C.3   240  ASN240      0.1155
     29  CG       -32.8390   25.6130    7.2970 C.2   240  ASN240      0.2627
     30  OD1      -32.5480   24.7980    6.4080 O.2   240  ASN240     -0.2716
     31  ND2      -33.0880   25.2470    8.5710 N.am  240  ASN240     -0.0877
     32  N        -35.7450   31.9000    5.6160 N.3   242  ARG242     -0.1245
     33  CA       -37.0540   32.2780    6.1160 C.3   242  ARG242      0.1563
     34  C        -37.3500   33.7260    5.7540 C.2   242  ARG242      0.2260
     35  O        -36.5670   34.6300    6.0710 O.2   242  ARG242     -0.2867
     36  CB       -37.1420   31.9540    7.6170 C.3   242  ARG242      0.0307
     37  CG       -37.1530   30.4340    7.7680 C.3   242  ARG242      0.0489
     38  CD       -37.0590   29.8290    9.1710 C.3   242  ARG242      0.2205
     39  NE       -36.5890   28.4240    9.0880 N.pl3 242  ARG242     -0.0865
     40  CZ       -36.5170   27.6030   10.1270 C.cat 242  ARG242      0.5346
     41  NH1      -36.9040   28.0210   11.3250 N.pl3 242  ARG242      0.1354
     42  NH2      -36.0510   26.3780    9.9910 N.pl3 242  ARG242      0.1354
     43  N        -28.1960   25.8290   10.0980 N.3   256  MET256     -0.1245
     44  CA       -28.6850   24.8020   10.9880 C.3   256  MET256      0.1570
     45  C        -27.9120   23.5020   10.7680 C.2   256  MET256      0.2261
     46  O        -27.4410   23.1850    9.6750 O.2   256  MET256     -0.2867
     47  CB       -30.1470   24.5290   10.7250 C.3   256  MET256      0.0387
     48  CG       -31.0660   25.6650   11.1280 C.3   256  MET256      0.0595
     49  SD       -31.3620   25.8530   12.9110 S.3   256  MET256     -0.1393
     50  CE       -31.7900   24.1770   13.3580 C.3   256  MET256      0.0692
     51  N        -29.0150   19.6230   11.1930 N.3   258  GLU258     -0.1245
     52  CA       -30.0260   18.6110   11.5330 C.3   258  GLU258      0.1567
     53  C        -29.3410   17.2600   11.5430 C.2   258  GLU258      0.2260
     54  O        -28.5050   16.9690   10.7010 O.2   258  GLU258     -0.2867
     55  CB       -31.1850   18.5760   10.5210 C.3   258  GLU258      0.0388
     56  CG       -32.1040   19.7910   10.5510 C.3   258  GLU258      0.1160
     57  CD       -33.5030   19.5220   10.0310 C.2   258  GLU258      0.3649
     58  OE1      -33.8710   18.3300    9.8690 O.co2 258  GLU258     -0.2457
     59  OE2      -34.2520   20.5080    9.8430 O.co2 258  GLU258     -0.2457
     60  N        -30.3090   12.8850   12.2450 N.3   260  TYR260     -0.1241
     61  CA       -31.2970   11.8310   12.4270 C.3   260  TYR260      0.1605
     62  C        -30.5770   10.5270   12.7470 C.2   260  TYR260      0.2264
     63  O        -29.5790   10.1580   12.0960 O.2   260  TYR260     -0.2867
     64  CB       -32.1890   11.7010   11.1690 C.3   260  TYR260      0.0534
     65  CG       -33.0470   12.9320   11.0340 C.ar  260  TYR260     -0.0201
     66  CD1      -32.5380   14.0920   10.4870 C.ar  260  TYR260     -0.0009
     67  CD2      -34.3470   12.9590   11.5260 C.ar  260  TYR260     -0.0009
     68  CE1      -33.2940   15.2410   10.4100 C.ar  260  TYR260      0.0417
     69  CE2      -35.1040   14.1310   11.4680 C.ar  260  TYR260      0.0417
     70  CZ       -34.5700   15.2720   10.9090 C.ar  260  TYR260      0.1957
     71  OH       -35.3200   16.4300   10.8400 O.3   260  TYR260     -0.2866
     72  N        -33.7920   22.0120   18.8800 N.3   408  ASN408     -0.1240
     73  CA       -35.0940   21.3830   19.0190 C.3   408  ASN408      0.1653
     74  C        -35.1890   20.0390   18.3420 C.2   408  ASN408      0.2266
     75  O        -34.6380   19.8190   17.2370 O.2   408  ASN408     -0.2867
     76  CB       -36.2270   22.3020   18.5840 C.3   408  ASN408      0.1155
     77  CG       -36.5100   22.2460   17.1110 C.2   408  ASN408      0.2627
     78  OD1      -37.4550   21.5700   16.6560 O.2   408  ASN408     -0.2716
     79  ND2      -35.6900   22.9670   16.3380 N.am  408  ASN408     -0.0877
     80  N        -37.1430   15.7570   18.4300 N.3   410  PHE410     -0.1241
     81  CA       -38.1810   14.8360   18.8070 C.3   410  PHE410      0.1605
     82  C        -37.9950   13.4150   18.2960 C.2   410  PHE410      0.2264
     83  O        -37.2530   13.1550   17.3380 O.2   410  PHE410     -0.2867
     84  CB       -39.5590   15.3680   18.4040 C.3   410  PHE410      0.0534
     85  CG       -39.6330   16.0830   17.0790 C.ar  410  PHE410     -0.0203
     86  CD1      -39.8860   15.3930   15.9200 C.ar  410  PHE410     -0.0042
     87  CD2      -39.6000   17.4780   17.0210 C.ar  410  PHE410     -0.0042
     88  CE1      -40.0710   16.0540   14.7300 C.ar  410  PHE410     -0.0003
     89  CE2      -39.7800   18.1400   15.8240 C.ar  410  PHE410     -0.0003
     90  CZ       -40.0120   17.4150   14.6720 C.ar  410  PHE410     -0.0000
     91  N        -39.2890   10.8390   16.0460 N.3   412  GLU412     -0.1245
     92  CA       -39.8870   11.1620   14.7550 C.3   412  GLU412      0.1567
     93  C        -41.2310   10.4280   14.4920 C.2   412  GLU412      0.2260
     94  O        -41.3900    9.2370   14.7910 O.2   412  GLU412     -0.2867
     95  CB       -38.9220   10.8840   13.5950 C.3   412  GLU412      0.0388
     96  CG       -37.6220   11.6620   13.6370 C.3   412  GLU412      0.1160
     97  CD       -37.8080   13.1610   13.5410 C.2   412  GLU412      0.3649
     98  OE1      -38.8270   13.5840   12.9570 O.co2 412  GLU412     -0.2457
     99  OE2      -36.9430   13.9090   14.0410 O.co2 412  GLU412     -0.2457
    100  N        -34.6890   12.7200   15.7740 N.3   457  GLY457     -0.1210
    101  CA       -34.1230   13.8460   15.0240 C.3   457  GLY457      0.1956
    102  C        -34.0350   15.1150   15.8350 C.2   457  GLY457      0.2612
    103  O        -34.8370   15.3530   16.7570 O.2   457  GLY457     -0.2717
    104  N        -33.0320   15.9180   15.5150 N.am  458  CYS458     -0.1956
    105  CA       -32.8000   17.1790   16.1750 C.3   458  CYS458      0.1843
    106  C        -32.1550   18.1960   15.2480 C.2   458  CYS458      0.2626
    107  O        -31.3900   17.8690   14.3490 O.2   458  CYS458     -0.2714
    108  CB       -31.9220   16.9360   17.3890 C.3   458  CYS458      0.0997
    109  SG       -31.5190   18.3830   18.3340 S.3   458  CYS458     -0.0797
    110  N        -32.5090   19.4500   15.4540 N.am  459  GLY459     -0.1954
    111  CA       -31.8680   20.5550   14.7780 C.3   459  GLY459      0.1869
    112  C        -31.2440   21.5020   15.7900 C.2   459  GLY459      0.2309
    113  O        -31.9140   21.9520   16.7330 O.2   459  GLY459     -0.2863
@<TRIPOS>BOND
     1    13    12    2
     2    26    27    2
     3    26    25    1
     4    12    11    1
     5    32    33    1
     6    10    11    1
     7    25    24    1
     8    25    28    1
     9    34    35    2
    10    34    33    1
    11    33    36    1
    12    30    29    2
    13    11    14    1
    14    15    16    1
    15    17    18    2
    16    17    16    1
    17     1     2    1
    18    28    29    1
    19    29    31   am
    20    16    19    1
    21    36    37    1
    22    37    38    1
    23     2     3    1
    24    19    20    1
    25     8     7    2
    26     5     3   am
    27     5     6    1
    28     3     4    2
    29    39    38    1
    30    39    40    2
    31    20    21    1
    32     9     6    1
    33     7     6    1
    34    46    45    2
    35    59    57   ar
    36    58    57   ar
    37    42    40    1
    38    57    56    1
    39    43    44    1
    40    40    41    1
    41    68    66   ar
    42    68    70   ar
    43    66    65   ar
    44    55    56    1
    45    55    52    1
    46    21    22   ar
    47    21    23   ar
    48    54    53    2
    49    47    44    1
    50    47    48    1
    51    45    44    1
    52    71    70    1
    53    70    69   ar
    54    65    64    1
    55    65    67   ar
    56    48    49    1
    57    64    61    1
    58    51    52    1
    59    69    67   ar
    60    52    53    1
    61    63    62    2
    62    60    61    1
    63    61    62    1
    64    49    50    1
    65    98    97   ar
    66    97    96    1
    67    97    99   ar
    68    95    96    1
    69    95    92    1
    70   107   106    2
    71    93    92    1
    72    93    94    2
    73    90    88   ar
    74    90    89   ar
    75    88    86   ar
    76    92    91    1
    77   111   110    1
    78   111   112    1
    79   101   100    1
    80   101   102    1
    81   106   110   am
    82   106   105    1
    83   104   102   am
    84   104   105    1
    85   112   113    2
    86    89    87   ar
    87   102   103    2
    88    86    85   ar
    89   105   108    1
    90    79    77   am
    91    78    77    2
    92    87    85   ar
    93    85    84    1
    94    77    76    1
    95    75    74    2
    96    83    82    2
    97   108   109    1
    98    82    81    1
    99    74    73    1
   100    84    81    1
   101    80    81    1
   102    76    73    1
   103    72    73    1
