@<TRIPOS>MOLECULE
tmp/4ex9A00.pdb
 121 113 0 0 0
SMALL
GASTEIGER

@<TRIPOS>ATOM
      1  N          1.5540   26.3840   -6.7990 N.3    25  GLU25      -0.1245
      2  CA         2.3860   25.6610   -7.7650 C.3    25  GLU25       0.1567
      3  C          2.5970   26.4810   -9.0390 C.2    25  GLU25       0.2260
      4  O          1.7030   27.2120   -9.4730 O.2    25  GLU25      -0.2867
      5  CB         1.8170   24.2690   -8.0820 C.3    25  GLU25       0.0388
      6  CG         0.4390   24.2460   -8.7310 C.3    25  GLU25       0.1160
      7  CD         0.0010   22.8440   -9.1220 C.2    25  GLU25       0.3649
      8  OE1        0.7130   22.1860   -9.9130 O.co2  25  GLU25      -0.2457
      9  OE2       -1.0640   22.4000   -8.6420 O.co2  25  GLU25      -0.2457
     10  N          2.6300   25.7070  -12.0500 N.3    27  SER27      -0.1217
     11  CA         1.7480   25.2800  -13.1400 C.3    27  SER27       0.1889
     12  C          0.7660   26.3570  -13.6070 C.2    27  SER27       0.2288
     13  O          0.4960   26.4790  -14.8020 O.2    27  SER27      -0.2866
     14  CB         0.9780   24.0250  -12.7170 C.3    27  SER27       0.2089
     15  OG         0.1610   23.5420  -13.7680 O.3    27  SER27      -0.2183
     16  N          8.0610   18.3890  -15.1010 N.3    82  LYS82      -0.1245
     17  CA         7.3100   18.3670  -13.8460 C.3    82  LYS82       0.1561
     18  C          8.1390   17.7060  -12.7520 C.2    82  LYS82       0.2260
     19  O          8.6620   16.6040  -12.9330 O.2    82  LYS82      -0.2867
     20  CB         5.9620   17.6590  -14.0120 C.3    82  LYS82       0.0271
     21  CG         4.8720   18.5360  -14.6110 C.3    82  LYS82       0.0035
     22  CD         3.5370   17.8100  -14.6840 C.3    82  LYS82       0.0206
     23  CE         2.4450   18.7160  -15.2340 C.3    82  LYS82       0.1093
     24  NZ         1.1040   18.0650  -15.2200 N.3    82  LYS82      -0.1314
     25  N          7.2870   22.4900  -10.3650 N.3   100  THR100     -0.1203
     26  CA         7.0330   21.5850   -9.2460 C.3   100  THR100      0.1994
     27  C          5.5710   21.1610   -9.1250 C.2   100  THR100      0.2619
     28  O          4.6640   21.9910   -9.2140 O.2   100  THR100     -0.2717
     29  CB         7.4820   22.2000   -7.9110 C.3   100  THR100      0.1784
     30  OG1        6.8340   23.4640   -7.7260 O.3   100  THR100     -0.2211
     31  CG2        8.9900   22.3930   -7.8950 C.3   100  THR100      0.0376
     32  N          5.3580   19.8630   -8.9140 N.am  101  THR101     -0.1938
     33  CA         4.0240   19.3050   -8.6870 C.3   101  THR101      0.2028
     34  C          3.5880   19.5780   -7.2520 C.2   101  THR101      0.2642
     35  O          4.3290   20.1930   -6.4830 O.2   101  THR101     -0.2714
     36  CB         3.9810   17.7820   -8.9460 C.3   101  THR101      0.1808
     37  OG1        4.6680   17.0870   -7.8980 O.3   101  THR101     -0.2208
     38  CG2        4.6110   17.4350  -10.2890 C.3   101  THR101      0.0379
     39  N          2.3910   19.1140   -6.8980 N.am  102  VAL102     -0.1977
     40  CA         1.8650   19.2470   -5.5360 C.3   102  VAL102      0.1596
     41  C          2.8760   18.7380   -4.5020 C.2   102  VAL102      0.2287
     42  O          3.2400   19.4650   -3.5720 O.2   102  VAL102     -0.2864
     43  CB         0.5160   18.5090   -5.3730 C.3   102  VAL102      0.0276
     44  CG1        0.0420   18.5470   -3.9250 C.3   102  VAL102      0.0022
     45  CG2       -0.5380   19.1070   -6.2930 C.3   102  VAL102      0.0022
     46  N         -3.2580   15.0010   -6.2130 N.3   123  GLY123     -0.1225
     47  CA        -3.1450   13.6350   -6.7080 C.3   123  GLY123      0.1811
     48  C         -3.7320   12.6520   -5.7150 C.2   123  GLY123      0.2280
     49  O         -4.0680   13.0190   -4.5900 O.2   123  GLY123     -0.2866
     50  N         -5.0870    6.3440   -8.3840 N.3   126  HIS126     -0.1241
     51  CA        -5.6270    6.2320   -9.7350 C.3   126  HIS126      0.1621
     52  C         -6.6610    5.1460   -9.7910 C.2   126  HIS126      0.2264
     53  O         -6.6090    4.1900   -9.0130 O.2   126  HIS126     -0.2867
     54  CB        -4.5160    5.9400  -10.7320 C.3   126  HIS126      0.0745
     55  CG        -3.5610    7.0890  -10.9380 C.ar  126  HIS126      0.0817
     56  ND1       -3.4970    7.7740  -12.0910 N.ar  126  HIS126     -0.2268
     57  CD2       -2.6140    7.6580  -10.0900 C.ar  126  HIS126      0.1154
     58  CE1       -2.5570    8.7320  -11.9920 C.ar  126  HIS126      0.1986
     59  NE2       -2.0180    8.6600  -10.7670 N.ar  126  HIS126     -0.2212
     60  N         -0.8040    2.4440   -9.2010 N.3   134  ASP134     -0.1225
     61  CA        -0.5140    3.8050   -9.6450 C.3   134  ASP134      0.1805
     62  C         -1.0660    4.8040   -8.6250 C.2   134  ASP134      0.2598
     63  O         -2.2570    5.1240   -8.6320 O.2   134  ASP134     -0.2718
     64  CB        -1.1140    4.0440  -11.0400 C.3   134  ASP134      0.1424
     65  CG        -0.6150    5.3310  -11.6960 C.2   134  ASP134      0.3668
     66  OD1        0.2520    6.0220  -11.1140 O.co2 134  ASP134     -0.2456
     67  OD2       -1.0900    5.6520  -12.8080 O.co2 134  ASP134     -0.2456
     68  N         -0.1970    5.2740   -7.7330 N.am  135  ILE135     -0.1966
     69  CA        -0.5980    6.1940   -6.6640 C.3   135  ILE135      0.1727
     70  C          0.3290    7.4070   -6.6220 C.2   135  ILE135      0.2617
     71  O          1.5550    7.2660   -6.6400 O.2   135  ILE135     -0.2715
     72  CB        -0.6190    5.5080   -5.2740 C.3   135  ILE135      0.0290
     73  CG1       -1.3830    4.1780   -5.3200 C.3   135  ILE135      0.0022
     74  CG2       -1.2330    6.4300   -4.2270 C.3   135  ILE135      0.0023
     75  CD1       -0.9540    3.1810   -4.2640 C.3   135  ILE135      0.0001
     76  N         -0.2690    8.5940   -6.5640 N.am  136  SER136     -0.1936
     77  CA         0.4770    9.8490   -6.5190 C.3   136  SER136      0.2040
     78  C          1.3650    9.9100   -5.2800 C.2   136  SER136      0.2485
     79  O          0.9440    9.4880   -4.1980 O.2   136  SER136     -0.2729
     80  CB        -0.4810   11.0380   -6.5330 C.3   136  SER136      0.2129
     81  OG        -1.4620   10.8820   -7.5430 O.3   136  SER136     -0.2179
     82  N          2.6000   10.4260   -5.4340 N.am  137  PRO137     -0.2715
     83  CA         3.5280   10.5300   -4.3060 C.3   137  PRO137      0.1536
     84  C          3.0360   11.5250   -3.2600 C.2   137  PRO137      0.2598
     85  O          3.5350   11.5330   -2.1330 O.2   137  PRO137     -0.2715
     86  CB         4.8190   11.0320   -4.9560 C.3   137  PRO137      0.0310
     87  CG         4.3760   11.7290   -6.1940 C.3   137  PRO137      0.0237
     88  CD         3.1920   10.9480   -6.6790 C.3   137  PRO137      0.0939
     89  N          2.0590   12.3440   -3.6510 N.am  138  ASP138     -0.1972
     90  CA         1.4190   13.3230   -2.7760 C.3   138  ASP138      0.1709
     91  C          1.0190   12.7000   -1.4480 C.2   138  ASP138      0.2293
     92  O          1.3470   13.2250   -0.3850 O.2   138  ASP138     -0.2864
     93  CB         0.1600   13.8990   -3.4420 C.3   138  ASP138      0.1436
     94  CG         0.4440   14.5970   -4.7680 C.2   138  ASP138      0.3671
     95  OD1        1.5630   14.4730   -5.3130 O.co2 138  ASP138     -0.2456
     96  OD2       -0.4760   15.2730   -5.2740 O.co2 138  ASP138     -0.2456
     97  N         -8.1890   15.1630   -8.0880 N.3   155  LYS155     -0.1245
     98  CA        -8.5500   15.3750   -9.4910 C.3   155  LYS155      0.1561
     99  C         -9.5490   14.3050   -9.9450 C.2   155  LYS155      0.2260
    100  O         -9.4530   13.1420   -9.5380 O.2   155  LYS155     -0.2867
    101  CB        -7.3040   15.3610  -10.3800 C.3   155  LYS155      0.0271
    102  CG        -6.4150   16.5910  -10.2600 C.3   155  LYS155      0.0035
    103  CD        -5.2570   16.5060  -11.2440 C.3   155  LYS155      0.0206
    104  CE        -4.6520   17.8690  -11.5510 C.3   155  LYS155      0.1093
    105  NZ        -3.6880   18.3230  -10.5110 N.3   155  LYS155     -0.1314
    106  N         -9.2480   10.4620  -10.9060 N.3   158  LEU158     -0.1245
    107  CA        -8.7560    9.5510   -9.8810 C.3   158  LEU158      0.1561
    108  C         -9.8990    8.8410   -9.1580 C.2   158  LEU158      0.2260
    109  O        -11.0700    9.1880   -9.3330 O.2   158  LEU158     -0.2867
    110  CB        -7.8620   10.3060   -8.8880 C.3   158  LEU158      0.0270
    111  CG        -6.6790   11.0830   -9.4830 C.3   158  LEU158      0.0019
    112  CD1       -6.2530   12.2180   -8.5640 C.3   158  LEU158      0.0001
    113  CD2       -5.5030   10.1690   -9.8000 C.3   158  LEU158      0.0001
    114  N          0.7950    4.8840  -17.5450 N.3   255  ASN255     -0.1240
    115  CA         0.6810    6.3420  -17.6030 C.3   255  ASN255      0.1653
    116  C          0.4310    6.8740  -19.0150 C.2   255  ASN255      0.2266
    117  O          0.6420    8.0570  -19.2940 O.2   255  ASN255     -0.2867
    118  CB         1.9000    7.0160  -16.9620 C.3   255  ASN255      0.1155
    119  CG         1.7680    7.1530  -15.4550 C.2   255  ASN255      0.2627
    120  OD1        2.6910    6.8250  -14.7100 O.2   255  ASN255     -0.2716
    121  ND2        0.6140    7.6370  -14.9980 N.am  255  ASN255     -0.0877
@<TRIPOS>BOND
     1   117   116    2
     2   116   115    1
     3   115   114    1
     4   115   118    1
     5   118   119    1
     6   119   121   am
     7   119   120    2
     8    23    24    1
     9    23    22    1
    10    16    17    1
    11    13    12    2
    12    22    21    1
    13    21    20    1
    14    20    17    1
    15    17    18    1
    16    15    14    1
    17    12    11    1
    18    11    14    1
    19    11    10    1
    20    19    18    2
    21    67    65   ar
    22    56    58   ar
    23    56    55   ar
    24    58    59   ar
    25    65    66   ar
    26    65    64    1
    27   104   103    1
    28   104   105    1
    29   103   102    1
    30    64    61    1
    31    55    54    1
    32    55    57   ar
    33   106   107    1
    34    59    57   ar
    35    54    51    1
    36   101   102    1
    37   101    98    1
    38    25    26    1
    39    38    36    1
    40    99   100    2
    41    99    98    1
    42     8     7   ar
    43   107   108    1
    44   107   110    1
    45   113   111    1
    46    52    51    1
    47    52    53    2
    48    51    50    1
    49    61    60    1
    50    61    62    1
    51    98    97    1
    52   111   110    1
    53   111   112    1
    54     4     3    2
    55   109   108    2
    56    26    27    1
    57    26    29    1
    58    28    27    2
    59    27    32   am
    60     7     6    1
    61     7     9   ar
    62     3     2    1
    63    36    33    1
    64    36    37    1
    65    32    33    1
    66     6     5    1
    67    33    34    1
    68    63    62    2
    69    62    68   am
    70     5     2    1
    71    29    31    1
    72    29    30    1
    73     2     1    1
    74    68    69    1
    75    81    80    1
    76    34    39   am
    77    34    35    2
    78    39    40    1
    79    47    46    1
    80    47    48    1
    81    88    87    1
    82    88    82    1
    83    69    70    1
    84    69    72    1
    85    71    70    2
    86    70    76   am
    87    76    77    1
    88    80    77    1
    89    77    78    1
    90    45    43    1
    91    87    86    1
    92    48    49    2
    93    40    43    1
    94    40    41    1
    95    82    78   am
    96    82    83    1
    97    43    44    1
    98    73    72    1
    99    73    75    1
   100    95    94   ar
   101    78    79    2
   102    96    94   ar
   103    72    74    1
   104    86    83    1
   105    94    93    1
   106    41    42    2
   107    83    84    1
   108    89    84   am
   109    89    90    1
   110    93    90    1
   111    84    85    2
   112    90    91    1
   113    91    92    2
