@<TRIPOS>MOLECULE
tmp/4exaF00.pdb
 119 114 0 0 0
SMALL
GASTEIGER

@<TRIPOS>ATOM
      1  N         61.7350  -13.2760   23.4300 N.3    29  GLY29      -0.1225
      2  CA        62.3180  -14.4760   23.9920 C.3    29  GLY29       0.1811
      3  C         62.1110  -15.5910   23.0080 C.2    29  GLY29       0.2280
      4  O         61.2490  -15.4990   22.1480 O.2    29  GLY29      -0.2866
      5  N         62.9370  -19.3160   23.7470 N.3    31  VAL31      -0.1231
      6  CA        63.0170  -20.6520   24.3190 C.3    31  VAL31       0.1692
      7  C         62.1510  -21.6410   23.5550 C.2    31  VAL31       0.2591
      8  O         62.5210  -22.8040   23.3750 O.2    31  VAL31      -0.2718
      9  CB        62.4890  -20.6920   25.7860 C.3    31  VAL31       0.0266
     10  CG1       62.7620  -22.0600   26.3850 C.3    31  VAL31       0.0020
     11  CG2       63.1060  -19.6190   26.6610 C.3    31  VAL31       0.0020
     12  N         60.9750  -21.1780   23.1420 N.am   32  LYS32      -0.1980
     13  CA        59.9620  -22.0510   22.5680 C.3    32  LYS32       0.1596
     14  C         60.2400  -22.4220   21.1230 C.2    32  LYS32       0.2287
     15  O         59.6380  -23.3490   20.5970 O.2    32  LYS32      -0.2864
     16  CB        58.5660  -21.4230   22.7170 C.3    32  LYS32       0.0298
     17  CG        57.9320  -21.6980   24.0790 C.3    32  LYS32       0.0038
     18  CD        56.8600  -20.6730   24.4480 C.3    32  LYS32       0.0206
     19  CE        55.6210  -21.3400   25.0370 C.3    32  LYS32       0.1093
     20  NZ        54.8430  -20.3240   25.8020 N.3    32  LYS32      -0.1314
     21  N         61.5570  -13.1690   32.7690 N.3   212  LYS212     -0.1231
     22  CA        60.4060  -13.6140   33.5580 C.3   212  LYS212      0.1693
     23  C         59.6570  -12.4560   34.1850 C.2   212  LYS212      0.2592
     24  O         59.3450  -12.4960   35.3660 O.2   212  LYS212     -0.2718
     25  CB        60.8420  -14.6380   34.6050 C.3   212  LYS212      0.0285
     26  CG        61.7340  -15.7100   33.9900 C.3   212  LYS212      0.0035
     27  CD        61.7840  -17.0380   34.7410 C.3   212  LYS212      0.0206
     28  CE        62.8050  -17.9960   34.0560 C.3   212  LYS212      0.1093
     29  NZ        62.2480  -19.3800   33.8090 N.3   212  LYS212     -0.1314
     30  N         59.3700  -11.4290   33.3820 N.am  213  ALA213     -0.1966
     31  CA        58.5790  -10.2720   33.8190 C.3   213  ALA213      0.1728
     32  C         57.1260  -10.6410   34.1330 C.2   213  ALA213      0.2616
     33  O         56.5100  -10.0730   35.0250 O.2   213  ALA213     -0.2715
     34  CB        58.6130   -9.2080   32.7630 C.3   213  ALA213      0.0334
     35  N         56.5880  -11.6050   33.4040 N.am  214  LEU214     -0.1977
     36  CA        55.2300  -12.0860   33.6260 C.3   214  LEU214      0.1596
     37  C         55.3060  -13.3640   34.4530 C.2   214  LEU214      0.2287
     38  O         55.7780  -14.3980   33.9750 O.2   214  LEU214     -0.2864
     39  CB        54.5500  -12.4030   32.2990 C.3   214  LEU214      0.0297
     40  CG        54.8310  -11.4660   31.1200 C.3   214  LEU214      0.0022
     41  CD1       54.0420  -11.9240   29.9070 C.3   214  LEU214      0.0001
     42  CD2       54.4930  -10.0340   31.4580 C.3   214  LEU214      0.0001
     43  N         49.3470   -8.3680   32.3270 N.3   221  VAL221     -0.1245
     44  CA        50.5640   -7.9930   31.5830 C.3   221  VAL221      0.1561
     45  C         50.8930   -6.5130   31.7880 C.2   221  VAL221      0.2260
     46  O         52.0430   -6.1370   31.9310 O.2   221  VAL221     -0.2867
     47  CB        50.4420   -8.3000   30.0750 C.3   221  VAL221      0.0252
     48  CG1       51.6530   -7.7830   29.3160 C.3   221  VAL221      0.0019
     49  CG2       50.2750   -9.7850   29.8480 C.3   221  VAL221      0.0019
     50  N         62.4430   -9.1360   28.2620 N.3   238  ILE238     -0.1231
     51  CA        62.3770  -10.1810   27.2800 C.3   238  ILE238      0.1692
     52  C         61.1550  -10.9970   27.6340 C.2   238  ILE238      0.2592
     53  O         61.0600  -11.5150   28.7560 O.2   238  ILE238     -0.2718
     54  CB        63.6230  -11.0910   27.3450 C.3   238  ILE238      0.0266
     55  CG1       64.9220  -10.2890   27.1520 C.3   238  ILE238      0.0019
     56  CG2       63.5100  -12.2270   26.3150 C.3   238  ILE238      0.0020
     57  CD1       65.2020   -9.8170   25.7330 C.3   238  ILE238      0.0001
     58  N         60.2100  -11.0820   26.6980 N.am  239  VAL239     -0.1966
     59  CA        59.0110  -11.9410   26.8380 C.3   239  VAL239      0.1727
     60  C         58.9590  -13.0010   25.7320 C.2   239  VAL239      0.2617
     61  O         59.0870  -12.6910   24.5540 O.2   239  VAL239     -0.2715
     62  CB        57.6920  -11.1270   26.8310 C.3   239  VAL239      0.0290
     63  CG1       57.8330   -9.9010   27.6900 C.3   239  VAL239      0.0023
     64  CG2       57.2840  -10.7370   25.4190 C.3   239  VAL239      0.0023
     65  N         58.8230  -14.2580   26.1230 N.am  240  GLY240     -0.1940
     66  CA        58.7330  -15.3380   25.1570 C.3   240  GLY240      0.2014
     67  C         57.2680  -15.5280   24.8110 C.2   240  GLY240      0.2640
     68  O         56.4210  -15.5280   25.6840 O.2   240  GLY240     -0.2714
     69  N         56.9450  -15.6310   23.5340 N.am  241  THR241     -0.1936
     70  CA        55.5850  -15.9300   23.1410 C.3   241  THR241      0.2028
     71  C         55.5910  -16.4560   21.7240 C.2   241  THR241      0.2642
     72  O         56.4220  -16.0340   20.9110 O.2   241  THR241     -0.2714
     73  CB        54.6860  -14.6960   23.2160 C.3   241  THR241      0.1808
     74  OG1       53.3570  -15.0620   22.8160 O.3   241  THR241     -0.2208
     75  CG2       55.2070  -13.6200   22.3090 C.3   241  THR241      0.0379
     76  N         54.6950  -17.3950   21.4370 N.am  242  ILE242     -0.1963
     77  CA        54.4850  -17.8380   20.0670 C.3   242  ILE242      0.1727
     78  C         53.0700  -17.4910   19.5750 C.2   242  ILE242      0.2616
     79  O         52.6480  -17.9350   18.5010 O.2   242  ILE242     -0.2715
     80  CB        54.7870  -19.3300   19.8970 C.3   242  ILE242      0.0290
     81  CG1       53.7950  -20.2050   20.6740 C.3   242  ILE242      0.0022
     82  CG2       56.2010  -19.6170   20.3650 C.3   242  ILE242      0.0023
     83  CD1       53.8600  -21.7100   20.3180 C.3   242  ILE242      0.0001
     84  N         52.3520  -16.6860   20.3570 N.am  243  ASN243     -0.1972
     85  CA        50.9730  -16.3270   20.0560 C.3   243  ASN243      0.1688
     86  C         50.9270  -14.8810   19.5630 C.2   243  ASN243      0.2292
     87  O         51.0180  -13.9470   20.3620 O.2   243  ASN243     -0.2864
     88  CB        50.1230  -16.5090   21.3200 C.3   243  ASN243      0.1181
     89  CG        48.6570  -16.1270   21.1240 C.2   243  ASN243      0.2629
     90  OD1       48.3110  -15.3030   20.2720 O.2   243  ASN243     -0.2716
     91  ND2       47.7990  -16.7120   21.9330 N.am  243  ASN243     -0.0877
     92  N         49.0040  -12.4160   21.4650 N.3   246  HIS246     -0.1241
     93  CA        49.6770  -12.0580   22.7140 C.3   246  HIS246      0.1621
     94  C         50.7900  -11.0680   22.4660 C.2   246  HIS246      0.2264
     95  O         50.9280  -10.1020   23.1930 O.2   246  HIS246     -0.2867
     96  CB        50.2440  -13.2820   23.4280 C.3   246  HIS246      0.0745
     97  CG        49.2010  -14.2050   23.9710 C.ar  246  HIS246      0.0817
     98  ND1       49.5120  -15.4540   24.4640 N.ar  246  HIS246     -0.2268
     99  CD2       47.8580  -14.0750   24.0930 C.ar  246  HIS246      0.1154
    100  CE1       48.4070  -16.0480   24.8850 C.ar  246  HIS246      0.1986
    101  NE2       47.3870  -15.2330   24.6660 N.ar  246  HIS246     -0.2212
    102  N         49.3040   -7.6580   21.8760 N.3   249  HIS249     -0.1226
    103  CA        48.8130   -7.1390   23.1470 C.3   249  HIS249      0.1752
    104  C         49.9650   -6.6530   24.0460 C.2   249  HIS249      0.2596
    105  O         49.8940   -5.5590   24.5940 O.2   249  HIS249     -0.2718
    106  CB        47.9630   -8.1920   23.8750 C.3   249  HIS249      0.0759
    107  CG        47.4660   -7.7430   25.2190 C.ar  249  HIS249      0.0818
    108  ND1       47.8750   -8.3300   26.4030 N.ar  249  HIS249     -0.2268
    109  CD2       46.6170   -6.7430   25.5690 C.ar  249  HIS249      0.1154
    110  CE1       47.2760   -7.7330   27.4200 C.ar  249  HIS249      0.1986
    111  NE2       46.5060   -6.7670   26.9430 N.ar  249  HIS249     -0.2212
    112  N         51.0070   -7.4730   24.1880 N.am  250  ASN250     -0.1974
    113  CA        52.1670   -7.1330   25.0150 C.3   250  ASN250      0.1688
    114  C         52.7910   -5.8250   24.5620 C.2   250  ASN250      0.2292
    115  O         53.1130   -4.9580   25.3740 O.2   250  ASN250     -0.2864
    116  CB        53.2240   -8.2470   24.9860 C.3   250  ASN250      0.1181
    117  CG        52.7680   -9.5250   25.6770 C.2   250  ASN250      0.2629
    118  OD1       51.7220   -9.5680   26.3010 O.2   250  ASN250     -0.2716
    119  ND2       53.5540  -10.5690   25.5520 N.am  250  ASN250     -0.0877
@<TRIPOS>BOND
     1    79    78    2
     2    86    85    1
     3    86    87    2
     4    78    77    1
     5    78    84   am
     6    80    77    1
     7    80    82    1
     8    80    81    1
     9    85    84    1
    10    85    88    1
    11    77    76    1
    12    90    89    2
    13    83    81    1
    14    15    14    2
    15    72    71    2
    16    14    13    1
    17    89    88    1
    18    89    91   am
    19    76    71   am
    20    92    93    1
    21    71    70    1
    22   102   103    1
    23     4     3    2
    24    75    73    1
    25    94    93    1
    26    94    95    2
    27    13    16    1
    28    13    12    1
    29    93    96    1
    30    16    17    1
    31    74    73    1
    32     3     2    1
    33    70    73    1
    34    70    69    1
    35    12     7   am
    36   103   106    1
    37   103   104    1
    38     8     7    2
    39    96    97    1
    40     1     2    1
    41    69    67   am
    42     7     6    1
    43     5     6    1
    44   106   107    1
    45    97    99   ar
    46    97    98   ar
    47   104   112   am
    48   104   105    2
    49    17    18    1
    50    99   101   ar
    51   112   113    1
    52     6     9    1
    53    18    19    1
    54    98   100   ar
    55    61    60    2
    56   114   113    1
    57   114   115    2
    58   101   100   ar
    59    67    66    1
    60    67    68    2
    61   116   113    1
    62   116   117    1
    63    19    20    1
    64    66    65    1
    65   107   109   ar
    66   107   108   ar
    67    64    62    1
    68   119   117   am
    69   109   111   ar
    70   117   118    2
    71    60    65   am
    72    60    59    1
    73    57    55    1
    74     9    10    1
    75     9    11    1
    76    56    54    1
    77   108   110   ar
    78    58    59    1
    79    58    52   am
    80    62    59    1
    81    62    63    1
    82   111   110   ar
    83    55    54    1
    84    51    54    1
    85    51    52    1
    86    51    50    1
    87    52    53    2
    88    48    47    1
    89    49    47    1
    90    41    40    1
    91    47    44    1
    92    40    42    1
    93    40    39    1
    94    44    45    1
    95    44    43    1
    96    45    46    2
    97    39    36    1
    98    34    31    1
    99    21    22    1
   100    30    31    1
   101    30    23   am
   102    35    36    1
   103    35    32   am
   104    22    23    1
   105    22    25    1
   106    36    37    1
   107    29    28    1
   108    31    32    1
   109    38    37    2
   110    26    25    1
   111    26    27    1
   112    28    27    1
   113    32    33    2
   114    23    24    2
