@<TRIPOS>MOLECULE
tmp/4exhB00.pdb
 141 136 0 0 0
SMALL
GASTEIGER

@<TRIPOS>ATOM
      1  N          1.9690   -0.8170    4.3030 N.3    22  ASP22      -0.1239
      2  CA         0.7160   -0.7860    5.0480 C.3    22  ASP22       0.1674
      3  C         -0.4640   -1.2450    4.1910 C.2    22  ASP22       0.2266
      4  O         -1.0150   -0.4700    3.4020 O.2    22  ASP22      -0.2867
      5  CB         0.4590    0.6260    5.5930 C.3    22  ASP22       0.1410
      6  CG        -0.7700    0.6930    6.5090 C.2    22  ASP22       0.3668
      7  OD1       -1.3600   -0.3740    6.8140 O.co2  22  ASP22      -0.2456
      8  OD2       -1.1390    1.8080    6.9400 O.co2  22  ASP22      -0.2456
      9  N         -3.2580   -1.7490    5.1720 N.3    24  GLY24      -0.1210
     10  CA        -4.4300   -1.0300    5.6790 C.3    24  GLY24       0.1956
     11  C         -4.5830    0.3720    5.1110 C.2    24  GLY24       0.2612
     12  O         -5.5550    1.0570    5.4170 O.2    24  GLY24      -0.2717
     13  N         -3.6260    0.8120    4.2880 N.am   25  ALA25      -0.1965
     14  CA        -3.7060    2.1330    3.6680 C.3    25  ALA25       0.1728
     15  C         -4.2810    2.0410    2.2710 C.2    25  ALA25       0.2616
     16  O         -3.7060    1.3980    1.4030 O.2    25  ALA25      -0.2715
     17  CB        -2.3470    2.8100    3.6280 C.3    25  ALA25       0.0334
     18  N         -5.4070    2.7060    2.0510 N.am   26  GLN26      -0.1963
     19  CA        -6.0390    2.7620    0.7150 C.3    26  GLN26       0.1733
     20  C         -5.1600    3.4790   -0.3240 C.2    26  GLN26       0.2616
     21  O         -5.0980    3.0670   -1.4750 O.2    26  GLN26      -0.2715
     22  CB        -7.4090    3.4350    0.8210 C.3    26  GLN26       0.0408
     23  CG        -8.2430    3.4700   -0.4650 C.3    26  GLN26       0.0908
     24  CD        -9.6390    4.0620   -0.2190 C.2    26  GLN26       0.2608
     25  OE1      -10.1070    4.1350    0.9230 O.2    26  GLN26      -0.2717
     26  NE2      -10.3060    4.4750   -1.2900 N.am   26  GLN26      -0.0878
     27  N         -4.4720    4.5400    0.0950 N.am   27  HIS27      -0.1973
     28  CA        -3.5340    5.2340   -0.7740 C.3    27  HIS27       0.1656
     29  C         -2.2370    5.5100   -0.0200 C.2    27  HIS27       0.2291
     30  O         -2.2190    5.5210    1.2120 O.2    27  HIS27      -0.2864
     31  CB        -4.0600    6.5810   -1.2930 C.3    27  HIS27       0.0771
     32  CG        -3.5670    6.9210   -2.6700 C.ar   27  HIS27       0.0820
     33  ND1       -4.1170    6.3760   -3.8150 N.ar   27  HIS27      -0.2267
     34  CD2       -2.5610    7.7290   -3.0840 C.ar   27  HIS27       0.1154
     35  CE1       -3.4800    6.8450   -4.8730 C.ar   27  HIS27       0.1986
     36  NE2       -2.5330    7.6710   -4.4580 N.ar   27  HIS27      -0.2212
     37  N          1.2160    7.5590    1.3090 N.3    29  VAL29      -0.1245
     38  CA         1.2910    8.7460    2.1470 C.3    29  VAL29       0.1561
     39  C          2.7430    9.1980    2.3030 C.2    29  VAL29       0.2260
     40  O          3.6300    8.3750    2.5490 O.2    29  VAL29      -0.2867
     41  CB         0.6640    8.4500    3.5520 C.3    29  VAL29       0.0252
     42  CG1        1.0950    9.4910    4.6060 C.3    29  VAL29       0.0019
     43  CG2       -0.8930    8.3240    3.4720 C.3    29  VAL29       0.0019
     44  N         -8.0390   15.2110   -0.1640 N.3    42  ALA42      -0.1231
     45  CA        -8.8900   14.0830    0.1810 C.3    42  ALA42       0.1694
     46  C         -9.3410   14.1150    1.6570 C.2    42  ALA42       0.2592
     47  O         -8.6360   14.6200    2.5290 O.2    42  ALA42      -0.2718
     48  CB        -8.1370   12.7890   -0.0990 C.3    42  ALA42       0.0304
     49  N        -10.5090   13.5660    1.9360 N.am   43  TRP43      -0.1962
     50  CA       -10.8610   13.2440    3.3080 C.3    43  TRP43       0.1771
     51  C        -10.1520   11.9400    3.6680 C.2    43  TRP43       0.2619
     52  O        -10.3170   10.9510    2.9770 O.2    43  TRP43      -0.2715
     53  CB       -12.3440   13.0330    3.4530 C.3    43  TRP43       0.0590
     54  CG       -12.7200   12.7520    4.8770 C.ar   43  TRP43       0.0006
     55  CD1      -12.8130   11.5200    5.4860 C.ar   43  TRP43       0.0946
     56  CD2      -13.0520   13.7220    5.8740 C.ar   43  TRP43       0.0152
     57  NE1      -13.1950   11.6730    6.7990 N.ar   43  TRP43      -0.2442
     58  CE2      -13.3480   13.0130    7.0650 C.ar   43  TRP43       0.0810
     59  CE3      -13.1520   15.1230    5.8720 C.ar   43  TRP43       0.0012
     60  CZ2      -13.7270   13.6640    8.2540 C.ar   43  TRP43       0.0191
     61  CZ3      -13.5240   15.7720    7.0570 C.ar   43  TRP43       0.0001
     62  CH2      -13.8080   15.0330    8.2340 C.ar   43  TRP43       0.0015
     63  N         -9.3450   11.9590    4.7220 N.am   44  VAL44      -0.1963
     64  CA        -8.6360   10.7630    5.1730 C.3    44  VAL44       0.1727
     65  C         -9.2660   10.3300    6.4950 C.2    44  VAL44       0.2616
     66  O         -9.2910   11.1020    7.4430 O.2    44  VAL44      -0.2715
     67  CB        -7.1440   11.0430    5.3820 C.3    44  VAL44       0.0290
     68  CG1       -6.4480    9.8540    6.0750 C.3    44  VAL44       0.0023
     69  CG2       -6.4650   11.3770    4.0420 C.3    44  VAL44       0.0023
     70  N         -9.8070    9.1190    6.5380 N.am   45  GLN45      -0.1963
     71  CA       -10.3360    8.5580    7.7770 C.3    45  GLN45       0.1733
     72  C         -9.2750    7.6250    8.3470 C.2    45  GLN45       0.2617
     73  O         -8.9210    6.6230    7.7170 O.2    45  GLN45      -0.2715
     74  CB       -11.6350    7.7850    7.5140 C.3    45  GLN45       0.0408
     75  CG       -12.4130    7.4050    8.7740 C.3    45  GLN45       0.0908
     76  CD       -13.2160    8.5810    9.3230 C.2    45  GLN45       0.2608
     77  OE1      -13.1960    8.8560   10.5260 O.2    45  GLN45      -0.2717
     78  NE2      -13.9140    9.2940    8.4350 N.am   45  GLN45      -0.0878
     79  N         -8.7520    7.9750    9.5200 N.am   46  GLY46      -0.1940
     80  CA        -7.7620    7.1500   10.2140 C.3    46  GLY46       0.2014
     81  C         -8.4360    6.3320   11.3040 C.2    46  GLY46       0.2638
     82  O         -9.6620    6.3000   11.3970 O.2    46  GLY46      -0.2714
     83  N         -7.6370    5.6790   12.1410 N.am   47  ALA47      -0.1977
     84  CA        -8.1970    4.8480   13.1910 C.3    47  ALA47       0.1597
     85  C         -8.9510    5.6610   14.2440 C.2    47  ALA47       0.2287
     86  O         -9.9020    5.1590   14.8320 O.2    47  ALA47      -0.2864
     87  CB        -7.1240    4.0090   13.8360 C.3    47  ALA47       0.0319
     88  N         -3.3660   16.3700   -1.7780 N.3    55  TRP55      -0.1241
     89  CA        -2.6450   15.5430   -2.7530 C.3    55  TRP55       0.1605
     90  C         -1.3720   16.2500   -3.2050 C.2    55  TRP55       0.2264
     91  O         -1.3730   17.4620   -3.3920 O.2    55  TRP55      -0.2867
     92  CB        -3.5100   15.2720   -4.0020 C.3    55  TRP55       0.0550
     93  CG        -4.6430   14.3380   -3.7370 C.ar   55  TRP55       0.0003
     94  CD1       -5.9780   14.6620   -3.5980 C.ar   55  TRP55       0.0946
     95  CD2       -4.5520   12.9250   -3.5560 C.ar   55  TRP55       0.0152
     96  NE1       -6.7130   13.5290   -3.3580 N.ar   55  TRP55      -0.2442
     97  CE2       -5.8620   12.4500   -3.3080 C.ar   55  TRP55       0.0810
     98  CE3       -3.4840   12.0060   -3.5760 C.ar   55  TRP55       0.0012
     99  CZ2       -6.1360   11.0910   -3.0800 C.ar   55  TRP55       0.0191
    100  CZ3       -3.7600   10.6530   -3.3420 C.ar   55  TRP55       0.0001
    101  CH2       -5.0720   10.2120   -3.0940 C.ar   55  TRP55       0.0015
    102  N         -0.7790   11.2770   -0.7900 N.3    73  LEU73      -0.1245
    103  CA        -1.3500   12.1680    0.2120 C.3    73  LEU73       0.1561
    104  C         -0.2250   12.6920    1.0800 C.2    73  LEU73       0.2260
    105  O          0.7090   11.9550    1.4210 O.2    73  LEU73      -0.2867
    106  CB        -2.3490   11.4250    1.0960 C.3    73  LEU73       0.0270
    107  CG        -3.6450   10.9550    0.4240 C.3    73  LEU73       0.0019
    108  CD1       -4.3190    9.8920    1.3010 C.3    73  LEU73       0.0001
    109  CD2       -4.5490   12.1380    0.1690 C.3    73  LEU73       0.0001
    110  N          0.2910   13.7350    4.6560 N.3    75  VAL75      -0.1245
    111  CA        -0.3490   13.6100    5.9650 C.3    75  VAL75       0.1561
    112  C          0.7270   13.8450    7.0290 C.2    75  VAL75       0.2260
    113  O          1.3750   12.8940    7.4750 O.2    75  VAL75      -0.2867
    114  CB        -0.9860   12.1990    6.1750 C.3    75  VAL75       0.0252
    115  CG1       -1.8790   12.2000    7.4000 C.3    75  VAL75       0.0019
    116  CG2       -1.7930   11.7810    4.9670 C.3    75  VAL75       0.0019
    117  N          0.8970   11.8530   10.3530 N.3    78  CYS78      -0.1235
    118  CA         1.2640   10.4420   10.2950 C.3    78  CYS78       0.1677
    119  C          2.7430   10.2770   10.6480 C.2    78  CYS78       0.2270
    120  O          3.5860   11.0160   10.1450 O.2    78  CYS78      -0.2867
    121  CB         0.9580    9.9150    8.8920 C.3    78  CYS78       0.0956
    122  SG         0.9760    8.1350    8.7340 S.3    78  CYS78      -0.0801
    123  N          3.7560    5.8780    4.2040 N.3    82  LEU82      -0.1245
    124  CA         3.0770    4.5900    4.1290 C.3    82  LEU82       0.1561
    125  C          2.9830    4.1870    2.6880 C.2    82  LEU82       0.2260
    126  O          2.6110    4.9880    1.8420 O.2    82  LEU82      -0.2867
    127  CB         1.6560    4.6840    4.6970 C.3    82  LEU82       0.0270
    128  CG         1.4750    5.3040    6.0740 C.3    82  LEU82       0.0019
    129  CD1       -0.0030    5.3100    6.4170 C.3    82  LEU82       0.0001
    130  CD2        2.2710    4.5310    7.1270 C.3    82  LEU82       0.0001
    131  N         -2.1110    0.1770   -0.5400 N.3    85  ARG85      -0.1245
    132  CA        -2.5830   -0.8280   -1.4860 C.3    85  ARG85       0.1563
    133  C         -2.4670   -0.3950   -2.9470 C.2    85  ARG85       0.2260
    134  O         -2.3440   -1.2530   -3.8270 O.2    85  ARG85      -0.2867
    135  CB        -4.0180   -1.2500   -1.1650 C.3    85  ARG85       0.0307
    136  CG        -4.1400   -2.0070    0.1550 C.3    85  ARG85       0.0489
    137  CD        -5.5090   -2.6570    0.2950 C.3    85  ARG85       0.2205
    138  NE        -6.6370   -1.7250    0.1690 N.pl3  85  ARG85      -0.0865
    139  CZ        -7.1110   -0.9590    1.1480 C.cat  85  ARG85       0.5346
    140  NH1       -6.5640   -0.9640    2.3630 N.pl3  85  ARG85       0.1354
    141  NH2       -8.1370   -0.1620    0.9090 N.pl3  85  ARG85       0.1354
@<TRIPOS>BOND
     1    35    36   ar
     2    35    33   ar
     3    36    34   ar
     4    92    93    1
     5    92    89    1
     6   134   133    2
     7    33    32   ar
     8    93    94   ar
     9    93    95   ar
    10    94    96   ar
    11    98    95   ar
    12    98   100   ar
    13    95    97   ar
    14    91    90    2
    15    96    97   ar
    16   100   101   ar
    17    97    99   ar
    18    90    89    1
    19   101    99   ar
    20    34    32   ar
    21   133   132    1
    22    89    88    1
    23    32    31    1
    24   132   135    1
    25   132   131    1
    26    21    20    2
    27    31    28    1
    28    26    24   am
    29   135   136    1
    30   102   103    1
    31    28    29    1
    32    28    27    1
    33    23    24    1
    34    23    22    1
    35    20    27   am
    36    20    19    1
    37    24    25    2
    38    44    45    1
    39    48    45    1
    40    29    30    2
    41   136   137    1
    42   109   107    1
    43   138   137    1
    44   138   139    2
    45    45    46    1
    46   103   104    1
    47   103   106    1
    48   107   106    1
    49   107   108    1
    50    19    22    1
    51    19    18    1
    52   141   139    1
    53   104   105    2
    54   139   140    1
    55    37    38    1
    56    16    15    2
    57    46    49   am
    58    46    47    2
    59   126   125    2
    60    49    50    1
    61    18    15   am
    62    38    39    1
    63    38    41    1
    64    15    14    1
    65    39    40    2
    66   125   124    1
    67    52    51    2
    68    50    53    1
    69    50    51    1
    70     4     3    2
    71    53    54    1
    72    43    41    1
    73    41    42    1
    74    17    14    1
    75    51    63   am
    76    14    13    1
    77    69    67    1
    78   124   123    1
    79   124   127    1
    80     3     2    1
    81    13    11   am
    82     1     2    1
    83   110   111    1
    84   127   128    1
    85    63    64    1
    86    54    55   ar
    87    54    56   ar
    88   116   114    1
    89     2     5    1
    90    11    12    2
    91    11    10    1
    92     9    10    1
    93    64    67    1
    94    64    65    1
    95    67    68    1
    96    55    57   ar
    97     5     6    1
    98    59    56   ar
    99    59    61   ar
   100    56    58   ar
   101   111   114    1
   102   111   112    1
   103   128   129    1
   104   128   130    1
   105   114   115    1
   106    65    70   am
   107    65    66    2
   108     6     7   ar
   109     6     8   ar
   110    70    71    1
   111    57    58   ar
   112   112   113    2
   113    61    62   ar
   114    58    60   ar
   115    74    71    1
   116    74    75    1
   117    73    72    2
   118    71    72    1
   119    62    60   ar
   120    72    79   am
   121    78    76   am
   122   122   121    1
   123    75    76    1
   124   121   118    1
   125    76    77    2
   126    79    80    1
   127   120   119    2
   128    80    81    1
   129   118   117    1
   130   118   119    1
   131    81    82    2
   132    81    83   am
   133    83    84    1
   134    84    87    1
   135    84    85    1
   136    85    86    2
