@<TRIPOS>MOLECULE
tmp/4exhB02.pdb
 147 143 0 0 0
SMALL
GASTEIGER

@<TRIPOS>ATOM
      1  N          6.8070    2.5340    5.6500 N.3    20  LEU20      -0.1245
      2  CA         6.1180    1.4260    6.2790 C.3    20  LEU20       0.1561
      3  C          5.1480    0.8420    5.2520 C.2    20  LEU20       0.2260
      4  O          4.2850    1.5530    4.7180 O.2    20  LEU20      -0.2867
      5  CB         5.3500    1.8970    7.5230 C.3    20  LEU20       0.0270
      6  CG         4.3880    0.9210    8.2070 C.3    20  LEU20       0.0019
      7  CD1        5.0650   -0.3620    8.6360 C.3    20  LEU20       0.0001
      8  CD2        3.7150    1.5970    9.4140 C.3    20  LEU20       0.0001
      9  N          1.9690   -0.8170    4.3030 N.3    22  ASP22      -0.1239
     10  CA         0.7160   -0.7860    5.0480 C.3    22  ASP22       0.1674
     11  C         -0.4640   -1.2450    4.1910 C.2    22  ASP22       0.2266
     12  O         -1.0150   -0.4700    3.4020 O.2    22  ASP22      -0.2867
     13  CB         0.4590    0.6260    5.5930 C.3    22  ASP22       0.1410
     14  CG        -0.7700    0.6930    6.5090 C.2    22  ASP22       0.3668
     15  OD1       -1.3600   -0.3740    6.8140 O.co2  22  ASP22      -0.2456
     16  OD2       -1.1390    1.8080    6.9400 O.co2  22  ASP22      -0.2456
     17  N         -3.2580   -1.7490    5.1720 N.3    24  GLY24      -0.1210
     18  CA        -4.4300   -1.0300    5.6790 C.3    24  GLY24       0.1956
     19  C         -4.5830    0.3720    5.1110 C.2    24  GLY24       0.2612
     20  O         -5.5550    1.0570    5.4170 O.2    24  GLY24      -0.2717
     21  N         -3.6260    0.8120    4.2880 N.am   25  ALA25      -0.1965
     22  CA        -3.7060    2.1330    3.6680 C.3    25  ALA25       0.1728
     23  C         -4.2810    2.0410    2.2710 C.2    25  ALA25       0.2616
     24  O         -3.7060    1.3980    1.4030 O.2    25  ALA25      -0.2715
     25  CB        -2.3470    2.8100    3.6280 C.3    25  ALA25       0.0334
     26  N         -5.4070    2.7060    2.0510 N.am   26  GLN26      -0.1963
     27  CA        -6.0390    2.7620    0.7150 C.3    26  GLN26       0.1733
     28  C         -5.1600    3.4790   -0.3240 C.2    26  GLN26       0.2616
     29  O         -5.0980    3.0670   -1.4750 O.2    26  GLN26      -0.2715
     30  CB        -7.4090    3.4350    0.8210 C.3    26  GLN26       0.0408
     31  CG        -8.2430    3.4700   -0.4650 C.3    26  GLN26       0.0908
     32  CD        -9.6390    4.0620   -0.2190 C.2    26  GLN26       0.2608
     33  OE1      -10.1070    4.1350    0.9230 O.2    26  GLN26      -0.2717
     34  NE2      -10.3060    4.4750   -1.2900 N.am   26  GLN26      -0.0878
     35  N         -4.4720    4.5400    0.0950 N.am   27  HIS27      -0.1973
     36  CA        -3.5340    5.2340   -0.7740 C.3    27  HIS27       0.1656
     37  C         -2.2370    5.5100   -0.0200 C.2    27  HIS27       0.2291
     38  O         -2.2190    5.5210    1.2120 O.2    27  HIS27      -0.2864
     39  CB        -4.0600    6.5810   -1.2930 C.3    27  HIS27       0.0771
     40  CG        -3.5670    6.9210   -2.6700 C.ar   27  HIS27       0.0820
     41  ND1       -4.1170    6.3760   -3.8150 N.ar   27  HIS27      -0.2267
     42  CD2       -2.5610    7.7290   -3.0840 C.ar   27  HIS27       0.1154
     43  CE1       -3.4800    6.8450   -4.8730 C.ar   27  HIS27       0.1986
     44  NE2       -2.5330    7.6710   -4.4580 N.ar   27  HIS27      -0.2212
     45  N          1.2160    7.5590    1.3090 N.3    29  VAL29      -0.1245
     46  CA         1.2910    8.7460    2.1470 C.3    29  VAL29       0.1561
     47  C          2.7430    9.1980    2.3030 C.2    29  VAL29       0.2260
     48  O          3.6300    8.3750    2.5490 O.2    29  VAL29      -0.2867
     49  CB         0.6640    8.4500    3.5520 C.3    29  VAL29       0.0252
     50  CG1        1.0950    9.4910    4.6060 C.3    29  VAL29       0.0019
     51  CG2       -0.8930    8.3240    3.4720 C.3    29  VAL29       0.0019
     52  N         -8.0390   15.2110   -0.1640 N.3    42  ALA42      -0.1231
     53  CA        -8.8900   14.0830    0.1810 C.3    42  ALA42       0.1694
     54  C         -9.3410   14.1150    1.6570 C.2    42  ALA42       0.2592
     55  O         -8.6360   14.6200    2.5290 O.2    42  ALA42      -0.2718
     56  CB        -8.1370   12.7890   -0.0990 C.3    42  ALA42       0.0304
     57  N        -10.5090   13.5660    1.9360 N.am   43  TRP43      -0.1962
     58  CA       -10.8610   13.2440    3.3080 C.3    43  TRP43       0.1771
     59  C        -10.1520   11.9400    3.6680 C.2    43  TRP43       0.2619
     60  O        -10.3170   10.9510    2.9770 O.2    43  TRP43      -0.2715
     61  CB       -12.3440   13.0330    3.4530 C.3    43  TRP43       0.0590
     62  CG       -12.7200   12.7520    4.8770 C.ar   43  TRP43       0.0006
     63  CD1      -12.8130   11.5200    5.4860 C.ar   43  TRP43       0.0946
     64  CD2      -13.0520   13.7220    5.8740 C.ar   43  TRP43       0.0152
     65  NE1      -13.1950   11.6730    6.7990 N.ar   43  TRP43      -0.2442
     66  CE2      -13.3480   13.0130    7.0650 C.ar   43  TRP43       0.0810
     67  CE3      -13.1520   15.1230    5.8720 C.ar   43  TRP43       0.0012
     68  CZ2      -13.7270   13.6640    8.2540 C.ar   43  TRP43       0.0191
     69  CZ3      -13.5240   15.7720    7.0570 C.ar   43  TRP43       0.0001
     70  CH2      -13.8080   15.0330    8.2340 C.ar   43  TRP43       0.0015
     71  N         -9.3450   11.9590    4.7220 N.am   44  VAL44      -0.1963
     72  CA        -8.6360   10.7630    5.1730 C.3    44  VAL44       0.1727
     73  C         -9.2660   10.3300    6.4950 C.2    44  VAL44       0.2616
     74  O         -9.2910   11.1020    7.4430 O.2    44  VAL44      -0.2715
     75  CB        -7.1440   11.0430    5.3820 C.3    44  VAL44       0.0290
     76  CG1       -6.4480    9.8540    6.0750 C.3    44  VAL44       0.0023
     77  CG2       -6.4650   11.3770    4.0420 C.3    44  VAL44       0.0023
     78  N         -9.8070    9.1190    6.5380 N.am   45  GLN45      -0.1963
     79  CA       -10.3360    8.5580    7.7770 C.3    45  GLN45       0.1733
     80  C         -9.2750    7.6250    8.3470 C.2    45  GLN45       0.2617
     81  O         -8.9210    6.6230    7.7170 O.2    45  GLN45      -0.2715
     82  CB       -11.6350    7.7850    7.5140 C.3    45  GLN45       0.0408
     83  CG       -12.4130    7.4050    8.7740 C.3    45  GLN45       0.0908
     84  CD       -13.2160    8.5810    9.3230 C.2    45  GLN45       0.2608
     85  OE1      -13.1960    8.8560   10.5260 O.2    45  GLN45      -0.2717
     86  NE2      -13.9140    9.2940    8.4350 N.am   45  GLN45      -0.0878
     87  N         -8.7520    7.9750    9.5200 N.am   46  GLY46      -0.1940
     88  CA        -7.7620    7.1500   10.2140 C.3    46  GLY46       0.2014
     89  C         -8.4360    6.3320   11.3040 C.2    46  GLY46       0.2638
     90  O         -9.6620    6.3000   11.3970 O.2    46  GLY46      -0.2714
     91  N         -7.6370    5.6790   12.1410 N.am   47  ALA47      -0.1977
     92  CA        -8.1970    4.8480   13.1910 C.3    47  ALA47       0.1597
     93  C         -8.9510    5.6610   14.2440 C.2    47  ALA47       0.2287
     94  O         -9.9020    5.1590   14.8320 O.2    47  ALA47      -0.2864
     95  CB        -7.1240    4.0090   13.8360 C.3    47  ALA47       0.0319
     96  N         -0.7790   11.2770   -0.7900 N.3    73  LEU73      -0.1245
     97  CA        -1.3500   12.1680    0.2120 C.3    73  LEU73       0.1561
     98  C         -0.2250   12.6920    1.0800 C.2    73  LEU73       0.2260
     99  O          0.7090   11.9550    1.4210 O.2    73  LEU73      -0.2867
    100  CB        -2.3490   11.4250    1.0960 C.3    73  LEU73       0.0270
    101  CG        -3.6450   10.9550    0.4240 C.3    73  LEU73       0.0019
    102  CD1       -4.3190    9.8920    1.3010 C.3    73  LEU73       0.0001
    103  CD2       -4.5490   12.1380    0.1690 C.3    73  LEU73       0.0001
    104  N          0.8970   11.8530   10.3530 N.3    78  CYS78      -0.1221
    105  CA         1.2640   10.4420   10.2950 C.3    78  CYS78       0.1794
    106  C          2.7430   10.2770   10.6480 C.2    78  CYS78       0.2443
    107  O          3.5860   11.0160   10.1450 O.2    78  CYS78      -0.2733
    108  CB         0.9580    9.9150    8.8920 C.3    78  CYS78       0.0970
    109  SG         0.9760    8.1350    8.7340 S.3    78  CYS78      -0.0800
    110  N          3.0720    9.2990   11.5090 N.am   79  PRO79      -0.2718
    111  CA         4.4600    9.1750   11.9610 C.3    79  PRO79       0.1535
    112  C          5.4440    8.6920   10.8900 C.2    79  PRO79       0.2598
    113  O          6.6170    9.0150   10.9840 O.2    79  PRO79      -0.2715
    114  CB         4.3720    8.1360   13.0850 C.3    79  PRO79       0.0310
    115  CG         3.0930    7.3790   12.8290 C.3    79  PRO79       0.0237
    116  CD         2.1650    8.4050   12.2530 C.3    79  PRO79       0.0939
    117  N          4.9740    7.9310    9.8940 N.am   80  TYR80      -0.1974
    118  CA         5.8470    7.4030    8.8410 C.3    80  TYR80       0.1639
    119  C          5.1970    7.4920    7.4850 C.2    80  TYR80       0.2290
    120  O          3.9830    7.4100    7.3900 O.2    80  TYR80      -0.2864
    121  CB         6.1570    5.9030    9.0470 C.3    80  TYR80       0.0560
    122  CG         6.3800    5.4510   10.4620 C.ar   80  TYR80      -0.0198
    123  CD1        7.5820    5.6840   11.1050 C.ar   80  TYR80      -0.0009
    124  CD2        5.3870    4.7600   11.1430 C.ar   80  TYR80      -0.0009
    125  CE1        7.7860    5.2620   12.4080 C.ar   80  TYR80       0.0417
    126  CE2        5.5780    4.3400   12.4380 C.ar   80  TYR80       0.0417
    127  CZ         6.7760    4.5920   13.0640 C.ar   80  TYR80       0.1957
    128  OH         6.9610    4.1500   14.3530 O.3    80  TYR80      -0.2866
    129  N          3.7560    5.8780    4.2040 N.3    82  LEU82      -0.1245
    130  CA         3.0770    4.5900    4.1290 C.3    82  LEU82       0.1561
    131  C          2.9830    4.1870    2.6880 C.2    82  LEU82       0.2260
    132  O          2.6110    4.9880    1.8420 O.2    82  LEU82      -0.2867
    133  CB         1.6560    4.6840    4.6970 C.3    82  LEU82       0.0270
    134  CG         1.4750    5.3040    6.0740 C.3    82  LEU82       0.0019
    135  CD1       -0.0030    5.3100    6.4170 C.3    82  LEU82       0.0001
    136  CD2        2.2710    4.5310    7.1270 C.3    82  LEU82       0.0001
    137  N         -2.1110    0.1770   -0.5400 N.3    85  ARG85      -0.1245
    138  CA        -2.5830   -0.8280   -1.4860 C.3    85  ARG85       0.1563
    139  C         -2.4670   -0.3950   -2.9470 C.2    85  ARG85       0.2260
    140  O         -2.3440   -1.2530   -3.8270 O.2    85  ARG85      -0.2867
    141  CB        -4.0180   -1.2500   -1.1650 C.3    85  ARG85       0.0307
    142  CG        -4.1400   -2.0070    0.1550 C.3    85  ARG85       0.0489
    143  CD        -5.5090   -2.6570    0.2950 C.3    85  ARG85       0.2205
    144  NE        -6.6370   -1.7250    0.1690 N.pl3  85  ARG85      -0.0865
    145  CZ        -7.1110   -0.9590    1.1480 C.cat  85  ARG85       0.5346
    146  NH1       -6.5640   -0.9640    2.3630 N.pl3  85  ARG85       0.1354
    147  NH2       -8.1370   -0.1620    0.9090 N.pl3  85  ARG85       0.1354
@<TRIPOS>BOND
     1    43    44   ar
     2    43    41   ar
     3    44    42   ar
     4   140   139    2
     5    41    40   ar
     6    42    40   ar
     7   139   138    1
     8    40    39    1
     9   138   141    1
    10   138   137    1
    11    29    28    2
    12    39    36    1
    13    34    32   am
    14   141   142    1
    15    96    97    1
    16    36    37    1
    17    36    35    1
    18    31    32    1
    19    31    30    1
    20    28    35   am
    21    28    27    1
    22    32    33    2
    23    52    53    1
    24    56    53    1
    25    37    38    2
    26   142   143    1
    27   103   101    1
    28   144   143    1
    29   144   145    2
    30    53    54    1
    31    97    98    1
    32    97   100    1
    33   101   100    1
    34   101   102    1
    35    27    30    1
    36    27    26    1
    37   147   145    1
    38    98    99    2
    39   145   146    1
    40    45    46    1
    41    24    23    2
    42    54    57   am
    43    54    55    2
    44   132   131    2
    45    57    58    1
    46    26    23   am
    47    46    47    1
    48    46    49    1
    49    23    22    1
    50    47    48    2
    51   131   130    1
    52    60    59    2
    53    58    61    1
    54    58    59    1
    55    12    11    2
    56    61    62    1
    57    51    49    1
    58    49    50    1
    59    25    22    1
    60    22    21    1
    61    59    71   am
    62    77    75    1
    63   130   129    1
    64   130   133    1
    65    11    10    1
    66    21    19   am
    67     9    10    1
    68   133   134    1
    69     4     3    2
    70    71    72    1
    71    62    63   ar
    72    62    64   ar
    73    10    13    1
    74    19    20    2
    75    19    18    1
    76    17    18    1
    77    72    75    1
    78    72    73    1
    79     3     2    1
    80    75    76    1
    81    63    65   ar
    82    13    14    1
    83     1     2    1
    84    67    64   ar
    85    67    69   ar
    86    64    66   ar
    87   134   135    1
    88   134   136    1
    89     2     5    1
    90    73    78   am
    91    73    74    2
    92    14    15   ar
    93    14    16   ar
    94    78    79    1
    95    65    66   ar
    96    69    70   ar
    97    66    68   ar
    98   120   119    2
    99   119   118    1
   100    82    79    1
   101    82    83    1
   102     5     6    1
   103    81    80    2
   104    79    80    1
   105     6     7    1
   106     6     8    1
   107    70    68   ar
   108    80    87   am
   109    86    84   am
   110   109   108    1
   111    83    84    1
   112   118   121    1
   113   118   117    1
   114   108   105    1
   115   121   122    1
   116    84    85    2
   117    87    88    1
   118   117   112   am
   119   107   106    2
   120    88    89    1
   121   105   104    1
   122   105   106    1
   123   122   123   ar
   124   122   124   ar
   125   106   110   am
   126   112   113    2
   127   112   111    1
   128   123   125   ar
   129   124   126   ar
   130    89    90    2
   131    89    91   am
   132   110   111    1
   133   110   116    1
   134   111   114    1
   135    91    92    1
   136   116   115    1
   137   125   127   ar
   138   126   127   ar
   139   115   114    1
   140   127   128    1
   141    92    95    1
   142    92    93    1
   143    93    94    2
