@<TRIPOS>MOLECULE
tmp/4exsB00.pdb
 113 109 0 0 0
SMALL
GASTEIGER

@<TRIPOS>ATOM
      1  N        -56.4660    9.0240  -39.2600 N.3    34  MET34      -0.1245
      2  CA       -55.9680    7.8870  -38.4800 C.3    34  MET34       0.1570
      3  C        -56.8540    6.6890  -38.8240 C.2    34  MET34       0.2261
      4  O        -58.0690    6.7590  -38.6250 O.2    34  MET34      -0.2867
      5  CB       -56.0140    8.1690  -36.9710 C.3    34  MET34       0.0387
      6  CG       -55.1470    9.3460  -36.5130 C.3    34  MET34       0.0595
      7  SD       -55.4140    9.8890  -34.8090 S.3    34  MET34      -0.1393
      8  CE       -54.7500    8.5300  -33.8560 C.3    34  MET34       0.0692
      9  N        -59.2160   12.7910  -38.1080 N.3    40  VAL40      -0.1245
     10  CA       -59.2300   13.4550  -36.8180 C.3    40  VAL40       0.1561
     11  C        -58.9240   14.9530  -36.8740 C.2    40  VAL40       0.2260
     12  O        -57.8430   15.3710  -37.2360 O.2    40  VAL40      -0.2867
     13  CB       -58.2840   12.7640  -35.8480 C.3    40  VAL40       0.0252
     14  CG1      -58.4100   13.3450  -34.4510 C.3    40  VAL40       0.0019
     15  CG2      -58.5740   11.2800  -35.8390 C.3    40  VAL40       0.0019
     16  N        -51.4320   19.3830  -38.0690 N.3    60  TRP60      -0.1241
     17  CA       -50.8000   18.0610  -38.0880 C.3    60  TRP60       0.1605
     18  C        -49.5080   17.9720  -38.9290 C.2    60  TRP60       0.2264
     19  O        -48.5600   17.2140  -38.5800 O.2    60  TRP60      -0.2867
     20  CB       -51.7920   17.0600  -38.6550 C.3    60  TRP60       0.0550
     21  CG       -52.9990   16.8430  -37.8630 C.ar   60  TRP60       0.0003
     22  CD1      -54.2290   17.3940  -38.0770 C.ar   60  TRP60       0.0946
     23  CD2      -53.1520   15.9290  -36.7490 C.ar   60  TRP60       0.0152
     24  NE1      -55.1360   16.8870  -37.1680 N.ar   60  TRP60      -0.2442
     25  CE2      -54.5030   15.9740  -36.3590 C.ar   60  TRP60       0.0810
     26  CE3      -52.2760   15.0800  -36.0580 C.ar   60  TRP60       0.0012
     27  CZ2      -54.9950   15.2230  -35.2840 C.ar   60  TRP60       0.0191
     28  CZ3      -52.7710   14.2950  -35.0290 C.ar   60  TRP60       0.0001
     29  CH2      -54.1200   14.3900  -34.6360 C.ar   60  TRP60       0.0015
     30  N        -48.3810   21.5730  -26.6780 N.3    87  HIS87      -0.1241
     31  CA       -47.5790   20.4870  -26.1190 C.3    87  HIS87       0.1621
     32  C        -46.9520   19.7320  -27.2430 C.2    87  HIS87       0.2264
     33  O        -47.3000   19.9150  -28.4090 O.2    87  HIS87      -0.2867
     34  CB       -48.3640   19.5390  -25.1990 C.3    87  HIS87       0.0745
     35  CG       -49.5050   18.8370  -25.8790 C.ar   87  HIS87       0.0817
     36  ND1      -50.7320   19.4380  -26.0780 N.ar   87  HIS87      -0.2268
     37  CD2      -49.6140   17.5780  -26.3810 C.ar   87  HIS87       0.1154
     38  CE1      -51.5330   18.5920  -26.7040 C.ar   87  HIS87       0.1986
     39  NE2      -50.8740   17.4650  -26.9160 N.ar   87  HIS87      -0.2212
     40  N        -47.0840   17.0640  -29.0430 N.3    89  HIS89      -0.1226
     41  CA       -47.7460   16.0190  -29.8610 C.3    89  HIS89       0.1752
     42  C        -47.9540   16.5130  -31.3010 C.2    89  HIS89       0.2596
     43  O        -47.9480   17.7130  -31.5400 O.2    89  HIS89      -0.2718
     44  CB       -49.0810   15.6090  -29.2770 C.3    89  HIS89       0.0759
     45  CG       -48.9860   14.5780  -28.1990 C.ar   89  HIS89       0.0818
     46  ND1      -50.0300   14.3160  -27.3320 N.ar   89  HIS89      -0.2268
     47  CD2      -47.9750   13.7540  -27.8280 C.ar   89  HIS89       0.1154
     48  CE1      -49.6640   13.3750  -26.4820 C.ar   89  HIS89       0.1986
     49  NE2      -48.4150   13.0410  -26.7380 N.ar   89  HIS89      -0.2212
     50  N        -48.1860   15.5930  -32.2370 N.am   90  GLN90      -0.1965
     51  CA       -48.1160   15.9400  -33.6590 C.3    90  GLN90       0.1733
     52  C        -49.1620   16.9740  -34.0880 C.2    90  GLN90       0.2616
     53  O        -48.8800   17.8440  -34.9350 O.2    90  GLN90      -0.2715
     54  CB       -48.1600   14.6930  -34.5710 C.3    90  GLN90       0.0408
     55  CG       -48.0440   15.0670  -36.0330 C.3    90  GLN90       0.0908
     56  CD       -48.4340   13.9460  -36.9890 C.2    90  GLN90       0.2608
     57  OE1      -48.5240   12.7600  -36.6140 O.2    90  GLN90      -0.2717
     58  NE2      -48.6190   14.3150  -38.2520 N.am   90  GLN90      -0.0878
     59  N        -50.3520   16.8980  -33.4820 N.am   91  ASP91      -0.1971
     60  CA       -51.4050   17.8470  -33.8200 C.3    91  ASP91       0.1709
     61  C        -51.0620   19.2640  -33.4400 C.2    91  ASP91       0.2293
     62  O        -51.6720   20.1750  -33.9910 O.2    91  ASP91      -0.2864
     63  CB       -52.7970   17.4730  -33.2720 C.3    91  ASP91       0.1436
     64  CG       -52.8010   17.2350  -31.7910 C.2    91  ASP91       0.3671
     65  OD1      -51.7080   17.1220  -31.1920 O.co2  91  ASP91      -0.2456
     66  OD2      -53.9100   17.1230  -31.2190 O.co2  91  ASP91      -0.2456
     67  N        -53.4920   15.8940  -19.7280 N.3   156  HIS156     -0.1241
     68  CA       -53.3800   15.1880  -21.0040 C.3   156  HIS156      0.1621
     69  C        -51.9250   14.7890  -21.2070 C.2   156  HIS156      0.2264
     70  O        -51.6240   13.6210  -21.4690 O.2   156  HIS156     -0.2867
     71  CB       -53.9040   16.0470  -22.1680 C.3   156  HIS156      0.0745
     72  CG       -53.5330   15.5370  -23.5370 C.ar  156  HIS156      0.0817
     73  ND1      -54.1880   14.4930  -24.1560 N.ar  156  HIS156     -0.2268
     74  CD2      -52.6070   15.9710  -24.4270 C.ar  156  HIS156      0.1154
     75  CE1      -53.6510   14.2680  -25.3420 C.ar  156  HIS156      0.1986
     76  NE2      -52.6800   15.1460  -25.5250 N.ar  156  HIS156     -0.2212
     77  N        -55.5660   20.1350  -25.7500 N.3   175  CYS175     -0.1235
     78  CA       -56.0410   18.7900  -25.5600 C.3   175  CYS175      0.1677
     79  C        -56.3300   18.4530  -24.0880 C.2   175  CYS175      0.2270
     80  O        -56.7530   17.3350  -23.8000 O.2   175  CYS175     -0.2867
     81  CB       -55.0920   17.7730  -26.1750 C.3   175  CYS175      0.0956
     82  SG       -54.6560   18.0990  -27.8820 S.3   175  CYS175     -0.0801
     83  N        -61.9240   18.2740  -22.8020 N.3   178  LYS178     -0.1245
     84  CA       -62.8230   17.6420  -23.7620 C.3   178  LYS178      0.1561
     85  C        -64.2230   18.2380  -23.5860 C.2   178  LYS178      0.2260
     86  O        -64.5160   18.8460  -22.5460 O.2   178  LYS178     -0.2867
     87  CB       -62.8790   16.1500  -23.4810 C.3   178  LYS178      0.0271
     88  CG       -61.5310   15.5020  -23.1180 C.3   178  LYS178      0.0035
     89  CD       -60.7590   15.0510  -24.3700 C.3   178  LYS178      0.0206
     90  CE       -59.2500   14.8960  -24.0910 C.3   178  LYS178      0.1093
     91  NZ       -58.4150   15.4100  -25.2450 N.3   178  LYS178     -0.1314
     92  N        -60.3020    9.8580  -23.8130 N.3   186  GLY186     -0.1210
     93  CA       -59.5600    9.3280  -24.9680 C.3   186  GLY186      0.1956
     94  C        -58.1980    8.7500  -24.5910 C.2   186  GLY186      0.2611
     95  O        -58.0250    8.1910  -23.5030 O.2   186  GLY186     -0.2717
     96  N        -57.2340    8.9090  -25.4910 N.am  187  ASN187     -0.1974
     97  CA       -55.9380    8.2520  -25.3870 C.3   187  ASN187      0.1688
     98  C        -55.1640    8.6920  -24.1460 C.2   187  ASN187      0.2292
     99  O        -54.7940    9.8710  -23.9940 O.2   187  ASN187     -0.2864
    100  CB       -55.0990    8.5010  -26.6600 C.3   187  ASN187      0.1181
    101  CG       -53.9380    7.5200  -26.8050 C.2   187  ASN187      0.2629
    102  OD1      -53.0900    7.3980  -25.9060 O.2   187  ASN187     -0.2716
    103  ND2      -53.8910    6.8160  -27.9450 N.am  187  ASN187     -0.0877
    104  N        -59.9990   19.1060  -29.9080 N.3   217  HIS217     -0.1241
    105  CA       -60.6350   17.9510  -30.5240 C.3   217  HIS217      0.1621
    106  C        -62.1650   17.9680  -30.4510 C.2   217  HIS217      0.2264
    107  O        -62.8180   16.9370  -30.6600 O.2   217  HIS217     -0.2867
    108  CB       -60.0370   16.6360  -29.9580 C.3   217  HIS217      0.0745
    109  CG       -58.5650   16.4970  -30.2080 C.ar  217  HIS217      0.0817
    110  ND1      -58.0240   16.4950  -31.4790 N.ar  217  HIS217     -0.2268
    111  CD2      -57.5150   16.4000  -29.3530 C.ar  217  HIS217      0.1154
    112  CE1      -56.7110   16.3740  -31.3960 C.ar  217  HIS217      0.1986
    113  NE2      -56.3770   16.3150  -30.1170 N.ar  217  HIS217     -0.2212
@<TRIPOS>BOND
     1     1     2    1
     2    18    19    2
     3    18    17    1
     4     3     4    2
     5     3     2    1
     6    20    17    1
     7    20    21    1
     8     2     5    1
     9    58    56   am
    10     9    10    1
    11    17    16    1
    12    22    21   ar
    13    22    24   ar
    14    21    23   ar
    15    12    11    2
    16    24    25   ar
    17    56    57    2
    18    56    55    1
    19     5     6    1
    20    11    10    1
    21    10    13    1
    22    23    25   ar
    23    23    26   ar
    24     6     7    1
    25    25    27   ar
    26    26    28   ar
    27    55    54    1
    28    13    15    1
    29    13    14    1
    30    27    29   ar
    31    28    29   ar
    32    53    52    2
    33     7     8    1
    34    54    51    1
    35    52    51    1
    36    52    59   am
    37    62    61    2
    38    60    59    1
    39    60    61    1
    40    60    63    1
    41    51    50    1
    42    63    64    1
    43    50    42   am
    44    64    66   ar
    45    64    65   ar
    46    43    42    2
    47   110   112   ar
    48   110   109   ar
    49   112   113   ar
    50    42    41    1
    51   107   106    2
    52   105   106    1
    53   105   108    1
    54   105   104    1
    55   109   108    1
    56   109   111   ar
    57   113   111   ar
    58    41    44    1
    59    41    40    1
    60    44    45    1
    61    33    32    2
    62    45    47   ar
    63    45    46   ar
    64   103   101   am
    65    82    81    1
    66    47    49   ar
    67    46    48   ar
    68    32    31    1
    69    39    38   ar
    70    39    37   ar
    71   101   100    1
    72   101   102    2
    73    49    48   ar
    74    38    36   ar
    75    30    31    1
    76   100    97    1
    77    37    35   ar
    78    81    78    1
    79    31    34    1
    80    36    35   ar
    81    35    34    1
    82    77    78    1
    83    78    79    1
    84    76    75   ar
    85    76    74   ar
    86    96    97    1
    87    96    94   am
    88    97    98    1
    89    75    73   ar
    90    91    90    1
    91    93    94    1
    92    93    92    1
    93    94    95    2
    94    74    72   ar
    95    89    90    1
    96    89    88    1
    97    73    72   ar
    98    98    99    2
    99    79    80    2
   100    84    85    1
   101    84    87    1
   102    84    83    1
   103    85    86    2
   104    72    71    1
   105    87    88    1
   106    71    68    1
   107    70    69    2
   108    69    68    1
   109    68    67    1
