@<TRIPOS>MOLECULE
tmp/4ey2A00.pdb
 136 128 0 0 0
SMALL
GASTEIGER

@<TRIPOS>ATOM
      1  N          4.0190   17.9800   30.3930 N.3     6  ILE6       -0.1245
      2  CA         4.5440   16.8220   29.6230 C.3     6  ILE6        0.1561
      3  C          4.5900   17.2610   28.1500 C.2     6  ILE6        0.2260
      4  O          3.5950   17.7610   27.6620 O.2     6  ILE6       -0.2867
      5  CB         3.6720   15.5460   29.7920 C.3     6  ILE6        0.0252
      6  CG1        3.7110   15.0080   31.2090 C.3     6  ILE6        0.0019
      7  CG2        4.0910   14.5090   28.7680 C.3     6  ILE6        0.0019
      8  CD1        5.0300   14.4010   31.6390 C.3     6  ILE6        0.0001
      9  N         -3.6790   19.0470   26.3360 N.3    36  LEU36      -0.1245
     10  CA        -4.7830   18.6480   27.2120 C.3    36  LEU36       0.1561
     11  C         -4.4460   19.0240   28.6390 C.2    36  LEU36       0.2260
     12  O         -3.4460   18.5360   29.1650 O.2    36  LEU36      -0.2867
     13  CB        -4.9640   17.1260   27.1360 C.3    36  LEU36       0.0270
     14  CG        -6.1230   16.6170   27.9580 C.3    36  LEU36       0.0019
     15  CD1       -7.4640   17.0100   27.3180 C.3    36  LEU36       0.0001
     16  CD2       -6.0080   15.1060   28.2290 C.3    36  LEU36       0.0001
     17  N         -4.8370   18.5320   32.3760 N.3    38  MET38      -0.1245
     18  CA        -5.3550   17.5210   33.2860 C.3    38  MET38       0.1570
     19  C         -5.4410   18.1460   34.6770 C.2    38  MET38       0.2261
     20  O         -4.5050   18.8020   35.1140 O.2    38  MET38      -0.2867
     21  CB        -4.4490   16.3180   33.3230 C.3    38  MET38       0.0387
     22  CG        -4.3840   15.6560   31.9100 C.3    38  MET38       0.0595
     23  SD        -3.6480   14.0060   31.9920 S.3    38  MET38      -0.1393
     24  CE        -4.9450   13.1170   32.8210 C.3    38  MET38       0.0692
     25  N         -0.6070   18.4830   28.8330 N.3    44  VAL44      -0.1245
     26  CA         0.1200   17.4180   28.1430 C.3    44  VAL44       0.1561
     27  C          0.0780   17.7220   26.6170 C.2    44  VAL44       0.2260
     28  O         -1.0150   17.7610   26.0300 O.2    44  VAL44      -0.2867
     29  CB        -0.5570   16.0560   28.3780 C.3    44  VAL44       0.0252
     30  CG1        0.2830   14.9200   27.6920 C.3    44  VAL44       0.0019
     31  CG2       -0.6980   15.7310   29.9140 C.3    44  VAL44       0.0019
     32  N         -6.1880   16.6800   20.5730 N.3    64  TRP64      -0.1241
     33  CA        -6.8830   16.0030   21.6440 C.3    64  TRP64       0.1605
     34  C         -8.3840   16.2190   21.5720 C.2    64  TRP64       0.2264
     35  O         -9.1580   15.3690   22.0170 O.2    64  TRP64      -0.2867
     36  CB        -6.4910   16.6160   23.0000 C.3    64  TRP64       0.0550
     37  CG        -5.0900   16.3450   23.4460 C.ar   64  TRP64       0.0003
     38  CD1       -4.0220   17.1830   23.3430 C.ar   64  TRP64       0.0946
     39  CD2       -4.6440   15.1780   24.1710 C.ar   64  TRP64       0.0152
     40  NE1       -2.9290   16.6430   24.0050 N.ar   64  TRP64      -0.2442
     41  CE2       -3.2910   15.4180   24.5230 C.ar   64  TRP64       0.0810
     42  CE3       -5.2800   14.0250   24.6580 C.ar   64  TRP64       0.0012
     43  CZ2       -2.5290   14.5280   25.3080 C.ar   64  TRP64       0.0191
     44  CZ3       -4.5100   13.1510   25.4510 C.ar   64  TRP64       0.0001
     45  CH2       -3.1740   13.4110   25.7760 C.ar   64  TRP64       0.0015
     46  N         -6.7880    6.3000   20.7300 N.3    93  HIS93      -0.1226
     47  CA        -6.6510    7.0180   21.9770 C.3    93  HIS93       0.1752
     48  C         -6.9960    8.4870   21.7190 C.2    93  HIS93       0.2596
     49  O         -6.9030    8.9520   20.5850 O.2    93  HIS93      -0.2718
     50  CB        -5.2860    6.8870   22.6730 C.3    93  HIS93       0.0759
     51  CG        -5.1020    5.5710   23.3990 C.ar   93  HIS93       0.0818
     52  ND1       -3.8570    5.0710   23.7410 N.ar   93  HIS93      -0.2268
     53  CD2       -6.0020    4.6820   23.9030 C.ar   93  HIS93       0.1154
     54  CE1       -4.0260    3.9670   24.4480 C.ar   93  HIS93       0.1986
     55  NE2       -5.2990    3.6950   24.5430 N.ar   93  HIS93      -0.2212
     56  N         -7.3230    9.2100   22.7860 N.am   94  GLN94      -0.1965
     57  CA        -7.7890   10.6070   22.6220 C.3    94  GLN94       0.1733
     58  C         -6.7540   11.5330   21.9710 C.2    94  GLN94       0.2616
     59  O         -7.1170   12.4380   21.2300 O.2    94  GLN94      -0.2715
     60  CB        -8.2370   11.1650   23.9590 C.3    94  GLN94       0.0408
     61  CG        -8.9780   12.4720   23.7730 C.3    94  GLN94       0.0908
     62  CD        -9.2910   13.2180   25.0300 C.2    94  GLN94       0.2608
     63  OE1       -9.4730   12.6030   26.0510 O.2    94  GLN94      -0.2717
     64  NE2       -9.4970   14.4920   24.9430 N.am   94  GLN94      -0.0878
     65  N         -5.4650   11.3550   22.3370 N.am   95  ASP95      -0.1971
     66  CA        -4.4490   12.2560   21.7450 C.3    95  ASP95       0.1709
     67  C         -4.3970   12.1690   20.2190 C.2    95  ASP95       0.2293
     68  O         -4.0120   13.1180   19.5620 O.2    95  ASP95      -0.2864
     69  CB        -3.0700   12.1610   22.4050 C.3    95  ASP95       0.1436
     70  CG        -2.4930   10.7690   22.5240 C.2    95  ASP95       0.3671
     71  OD1       -3.1430    9.7500   22.2170 O.co2  95  ASP95      -0.2456
     72  OD2       -1.2780   10.7260   22.9890 O.co2  95  ASP95      -0.2456
     73  N        -13.1050    2.9870   23.4360 N.3   123  GLU123     -0.1245
     74  CA       -12.0780    3.9400   23.9100 C.3   123  GLU123      0.1567
     75  C        -12.7270    5.3190   23.9360 C.2   123  GLU123      0.2260
     76  O        -12.0150    6.3390   24.1790 O.2   123  GLU123     -0.2867
     77  CB       -10.8490    3.9360   22.9890 C.3   123  GLU123      0.0388
     78  CG        -9.9830    2.6940   23.0400 C.3   123  GLU123      0.1160
     79  CD        -9.3560    2.5210   24.4570 C.2   123  GLU123      0.3649
     80  OE1       -9.0500    3.5570   25.1020 O.co2 123  GLU123     -0.2457
     81  OE2       -9.1480    1.4010   24.9580 O.co2 123  GLU123     -0.2457
     82  N        -14.0030    6.9340   21.4070 N.3   125  MET125     -0.1245
     83  CA       -13.6130    7.6190   20.1470 C.3   125  MET125      0.1570
     84  C        -14.7910    7.3690   19.0980 C.2   125  MET125      0.2261
     85  O        -15.5740    6.3850   19.1150 O.2   125  MET125     -0.2867
     86  CB       -12.2460    7.1660   19.5720 C.3   125  MET125      0.0387
     87  CG       -11.0490    7.3700   20.5860 C.3   125  MET125      0.0595
     88  SD       -10.7920    9.1040   20.9060 S.3   125  MET125     -0.1393
     89  CE       -11.2340    9.2950   22.6170 C.3   125  MET125      0.0692
     90  N          2.9560    0.1770   21.9810 N.3   160  HIS160     -0.1241
     91  CA         2.1910    1.1020   22.8030 C.3   160  HIS160      0.1621
     92  C          0.7250    0.6420   22.9320 C.2   160  HIS160      0.2264
     93  O          0.1400    0.6840   24.0210 O.2   160  HIS160     -0.2867
     94  CB         2.3440    2.5160   22.2230 C.3   160  HIS160      0.0745
     95  CG         1.3680    3.5010   22.8260 C.ar  160  HIS160      0.0817
     96  ND1        1.4960    3.9650   24.1110 N.ar  160  HIS160     -0.2268
     97  CD2        0.2100    3.9710   22.3500 C.ar  160  HIS160      0.1154
     98  CE1        0.4330    4.7120   24.3600 C.ar  160  HIS160      0.1986
     99  NE2       -0.3910    4.7510   23.3090 N.ar  160  HIS160     -0.2212
    100  N          2.8010    7.4840   19.3110 N.3   179  CYS179     -0.1235
    101  CA         3.0550    7.2480   20.7490 C.3   179  CYS179      0.1677
    102  C          3.9440    6.0350   20.9920 C.2   179  CYS179      0.2270
    103  O          4.3950    5.7730   22.0990 O.2   179  CYS179     -0.2867
    104  CB         1.7800    7.1430   21.5350 C.3   179  CYS179      0.0956
    105  SG         0.6780    8.5470   21.3710 S.3   179  CYS179     -0.0801
    106  N          9.4010    7.0360   21.9140 N.3   182  LYS182     -0.1245
    107  CA         9.7500    8.0910   22.8520 C.3   182  LYS182      0.1565
    108  C         11.1090    8.6650   22.5620 C.2   182  LYS182      0.2260
    109  O         11.9180    8.0430   21.8560 O.2   182  LYS182     -0.2867
    110  CB         9.7160    7.5950   24.3130 C.3   182  LYS182      0.0317
    111  CG         8.3420    7.7750   24.8720 C.3   182  LYS182      0.0294
    112  CD         7.1360    7.2150   24.2900 C.2   182  LYS182     -0.0067
    113  CE         5.8460    7.5270   24.9920 C.2   182  LYS182      0.1012
    114  NZ         4.6430    6.9650   24.5890 N.pl3 182  LYS182     -0.1270
    115  N          5.9320    5.9450   28.8000 N.3   190  GLY190     -0.1210
    116  CA         4.6220    6.5750   28.7410 C.3   190  GLY190      0.1956
    117  C          3.5630    5.6880   29.3480 C.2   190  GLY190      0.2611
    118  O          3.8490    4.8900   30.2280 O.2   190  GLY190     -0.2717
    119  N          2.3180    5.8160   28.8840 N.am  191  ASN191     -0.1974
    120  CA         1.2480    4.9760   29.3990 C.3   191  ASN191      0.1688
    121  C          1.3390    3.5810   28.7980 C.2   191  ASN191      0.2292
    122  O          1.1770    3.4590   27.5810 O.2   191  ASN191     -0.2864
    123  CB        -0.1150    5.6110   29.1120 C.3   191  ASN191      0.1181
    124  CG        -1.2480    5.0020   29.9350 C.2   191  ASN191      0.2629
    125  OD1       -1.0380    4.0130   30.6460 O.2   191  ASN191     -0.2716
    126  ND2       -2.4020    5.6200   29.9250 N.am  191  ASN191     -0.0877
    127  N          5.0400   13.0280   21.8510 N.3   221  HIS221     -0.1241
    128  CA         5.1510   13.8360   23.0670 C.3   221  HIS221      0.1621
    129  C          6.5380   14.4020   23.3070 C.2   221  HIS221      0.2264
    130  O          6.8100   14.8380   24.4150 O.2   221  HIS221     -0.2867
    131  CB         4.6320   13.0520   24.2780 C.3   221  HIS221      0.0745
    132  CG         3.2520   12.4890   24.0690 C.ar  221  HIS221      0.0817
    133  ND1        2.1160   13.2500   23.9260 N.ar  221  HIS221     -0.2268
    134  CD2        2.8660   11.2040   23.8910 C.ar  221  HIS221      0.1154
    135  CE1        1.0940   12.4300   23.7110 C.ar  221  HIS221      0.1986
    136  NE2        1.5120   11.1670   23.6650 N.ar  221  HIS221     -0.2212
@<TRIPOS>BOND
     1    84    85    2
     2    84    83    1
     3   100   101    1
     4    68    67    2
     5    86    83    1
     6    86    87    1
     7    83    82    1
     8    67    66    1
     9    32    33    1
    10    49    48    2
    11    87    88    1
    12    46    47    1
    13   101   102    1
    14   101   104    1
    15    88    89    1
    16   102   103    2
    17    59    58    2
    18   105   104    1
    19    34    33    1
    20    34    35    2
    21    33    36    1
    22    48    47    1
    23    48    56   am
    24    66    65    1
    25    66    69    1
    26   127   128    1
    27   109   108    2
    28   106   107    1
    29    58    65   am
    30    58    57    1
    31    47    50    1
    32    90    91    1
    33    71    70   ar
    34    94    91    1
    35    94    95    1
    36    97    95   ar
    37    97    99   ar
    38    69    70    1
    39    70    72   ar
    40   108   107    1
    41    57    56    1
    42    57    60    1
    43    50    51    1
    44    91    92    1
    45    95    96   ar
    46   107   110    1
    47    92    93    2
    48    77    78    1
    49    77    74    1
    50    36    37    1
    51    78    79    1
    52   128   129    1
    53   128   131    1
    54   129   130    2
    55    99    98   ar
    56    38    37   ar
    57    38    40   ar
    58    51    52   ar
    59    51    53   ar
    60    73    74    1
    61    37    39   ar
    62   136   135   ar
    63   136   134   ar
    64   135   133   ar
    65    52    54   ar
    66    61    60    1
    67    61    62    1
    68   134   132   ar
    69    53    55   ar
    70    74    75    1
    71   133   132   ar
    72    75    76    2
    73    40    41   ar
    74   132   131    1
    75    96    98   ar
    76    39    41   ar
    77    39    42   ar
    78   112   111    1
    79   112   113    2
    80   110   111    1
    81    54    55   ar
    82    79    81   ar
    83    79    80   ar
    84    41    43   ar
    85   114   113    1
    86    42    44   ar
    87    64    62   am
    88    62    63    2
    89    43    45   ar
    90    44    45   ar
    91    28    27    2
    92     9    10    1
    93    27    26    1
    94    13    10    1
    95    13    14    1
    96    10    11    1
    97    15    14    1
    98   122   121    2
    99     4     3    2
   100    30    29    1
   101    14    16    1
   102    26    29    1
   103    26    25    1
   104     3     2    1
   105    29    31    1
   106    11    12    2
   107   116   115    1
   108   116   117    1
   109     7     5    1
   110   121   120    1
   111   119   117   am
   112   119   120    1
   113   123   120    1
   114   123   124    1
   115   117   118    2
   116     2     5    1
   117     2     1    1
   118     5     6    1
   119   126   124   am
   120   124   125    2
   121     6     8    1
   122    22    23    1
   123    22    21    1
   124    23    24    1
   125    17    18    1
   126    18    21    1
   127    18    19    1
   128    19    20    2
