@<TRIPOS>MOLECULE
tmp/4ey3A00.pdb
 129 123 0 0 0
SMALL
GASTEIGER

@<TRIPOS>ATOM
      1  N         11.2260   26.0510   83.7430 N.3    16  GLN16      -0.1245
      2  CA        12.2660   25.4120   82.9350 C.3    16  GLN16       0.1566
      3  C         11.7380   24.4630   81.8550 C.2    16  GLN16       0.2260
      4  O         12.4850   23.6100   81.3620 O.2    16  GLN16      -0.2867
      5  CB        13.2710   24.6810   83.8360 C.3    16  GLN16       0.0367
      6  CG        13.9020   25.5500   84.9140 C.3    16  GLN16       0.0905
      7  CD        14.4960   26.8300   84.3600 C.2    16  GLN16       0.2608
      8  OE1       13.9670   27.9150   84.5890 O.2    16  GLN16      -0.2717
      9  NE2       15.5880   26.7080   83.6150 N.am   16  GLN16      -0.0878
     10  N         13.8060   23.3730   78.7910 N.3    19  THR19      -0.1218
     11  CA        14.8450   22.3610   78.9980 C.3    19  THR19       0.1862
     12  C         14.3140   20.9600   78.6860 C.2    19  THR19       0.2287
     13  O         14.8830   20.2430   77.8560 O.2    19  THR19      -0.2866
     14  CB        15.4110   22.4100   80.4380 C.3    19  THR19       0.1770
     15  OG1       16.1210   23.6400   80.6330 O.3    19  THR19      -0.2211
     16  CG2       16.3600   21.2450   80.6980 C.3    19  THR19       0.0375
     17  N         16.6360   18.5660   84.9960 N.3    77  GLY77      -0.1210
     18  CA        16.7700   19.9100   84.4350 C.3    77  GLY77       0.1956
     19  C         17.5430   20.9100   85.2740 C.2    77  GLY77       0.2612
     20  O         18.2400   21.7680   84.7330 O.2    77  GLY77      -0.2717
     21  N         17.4070   20.8110   86.5940 N.am   78  ILE78      -0.1965
     22  CA        18.1150   21.7010   87.5130 C.3    78  ILE78       0.1727
     23  C         18.9540   20.8980   88.5110 C.2    78  ILE78       0.2616
     24  O         18.7850   19.6820   88.6380 O.2    78  ILE78      -0.2715
     25  CB        17.1590   22.6900   88.2360 C.3    78  ILE78       0.0290
     26  CG1       16.1700   21.9530   89.1470 C.3    78  ILE78       0.0022
     27  CG2       16.4210   23.5650   87.2270 C.3    78  ILE78       0.0023
     28  CD1       15.4440   22.8540   90.1280 C.3    78  ILE78       0.0001
     29  N         19.8660   21.5770   89.2020 N.am   79  THR79      -0.1951
     30  CA        20.7570   20.9250   90.1640 C.3    79  THR79       0.1897
     31  C         20.0150   20.2200   91.3210 C.2    79  THR79       0.2313
     32  O         20.2940   19.0490   91.5890 O.2    79  THR79      -0.2863
     33  CB        21.8770   21.8850   90.6460 C.3    79  THR79       0.1794
     34  OG1       22.8660   22.0020   89.6170 O.3    79  THR79      -0.2208
     35  CG2       22.5440   21.3850   91.9290 C.3    79  THR79       0.0378
     36  N         21.3510   17.8330   81.9390 N.3    99  ALA99      -0.1231
     37  CA        21.1280   19.2730   82.0220 C.3    99  ALA99       0.1694
     38  C         21.9230   19.9700   83.1330 C.2    99  ALA99       0.2592
     39  O         22.7690   20.8130   82.8480 O.2    99  ALA99      -0.2718
     40  CB        19.6400   19.5660   82.1540 C.3    99  ALA99       0.0304
     41  N         21.6450   19.6120   84.3860 N.am  100  ALA100     -0.1966
     42  CA        22.2260   20.2760   85.5640 C.3   100  ALA100      0.1728
     43  C         23.7500   20.4630   85.5030 C.2   100  ALA100      0.2616
     44  O         24.4770   19.5560   85.1040 O.2   100  ALA100     -0.2715
     45  CB        21.8270   19.5260   86.8250 C.3   100  ALA100      0.0334
     46  N         24.2250   21.6380   85.9130 N.am  101  GLY101     -0.1955
     47  CA        25.6380   22.0010   85.7330 C.3   101  GLY101      0.1869
     48  C         26.4620   22.4140   86.9440 C.2   101  GLY101      0.2309
     49  O         27.4640   23.1150   86.7980 O.2   101  GLY101     -0.2863
     50  N         27.3510   19.6030   81.1440 N.3   117  PHE117     -0.1241
     51  CA        28.4310   20.5640   81.3780 C.3   117  PHE117      0.1605
     52  C         28.5730   20.8170   82.8680 C.2   117  PHE117      0.2264
     53  O         27.7380   20.3850   83.6610 O.2   117  PHE117     -0.2867
     54  CB        28.1120   21.9020   80.6830 C.3   117  PHE117      0.0534
     55  CG        26.7190   22.4210   80.9660 C.ar  117  PHE117     -0.0203
     56  CD1       26.4320   23.0920   82.1530 C.ar  117  PHE117     -0.0042
     57  CD2       25.6920   22.2330   80.0450 C.ar  117  PHE117     -0.0042
     58  CE1       25.1490   23.5580   82.4160 C.ar  117  PHE117     -0.0003
     59  CE2       24.4060   22.6960   80.3030 C.ar  117  PHE117     -0.0003
     60  CZ        24.1350   23.3630   81.4880 C.ar  117  PHE117     -0.0000
     61  N         29.2140   24.5490   85.0380 N.3   119  LEU119     -0.1245
     62  CA        29.3640   25.9960   84.8990 C.3   119  LEU119      0.1561
     63  C         30.8130   26.4570   85.0160 C.2   119  LEU119      0.2260
     64  O         31.2130   27.4120   84.3540 O.2   119  LEU119     -0.2867
     65  CB        28.4820   26.7370   85.9100 C.3   119  LEU119      0.0270
     66  CG        27.1330   27.2430   85.3900 C.3   119  LEU119      0.0019
     67  CD1       27.3280   28.1960   84.2150 C.3   119  LEU119      0.0001
     68  CD2       26.2090   26.0930   85.0030 C.3   119  LEU119      0.0001
     69  N         21.3090   30.2010   93.2130 N.3   145  TYR145     -0.1241
     70  CA        21.4430   28.7980   93.6220 C.3   145  TYR145      0.1605
     71  C         22.7350   28.1890   93.0660 C.2   145  TYR145      0.2264
     72  O         23.4930   28.8640   92.3660 O.2   145  TYR145     -0.2867
     73  CB        20.1820   27.9640   93.2930 C.3   145  TYR145      0.0534
     74  CG        19.9520   27.5950   91.8360 C.ar  145  TYR145     -0.0201
     75  CD1       19.6740   26.2740   91.4750 C.ar  145  TYR145     -0.0009
     76  CD2       19.9790   28.5600   90.8280 C.ar  145  TYR145     -0.0009
     77  CE1       19.4530   25.9230   90.1510 C.ar  145  TYR145      0.0417
     78  CE2       19.7580   28.2170   89.5010 C.ar  145  TYR145      0.0417
     79  CZ        19.4970   26.9000   89.1700 C.ar  145  TYR145      0.1957
     80  OH        19.2800   26.5620   87.8550 O.3   145  TYR145     -0.2866
     81  N         24.4300   26.3950   90.7120 N.3   147  PRO147     -0.2116
     82  CA        25.1950   26.6140   89.4710 C.3   147  PRO147      0.1372
     83  C         25.6120   28.0720   89.2760 C.2   147  PRO147      0.2244
     84  O         26.6700   28.3430   88.6940 O.2   147  PRO147     -0.2868
     85  CB        24.2170   26.1870   88.3690 C.3   147  PRO147      0.0268
     86  CG        22.8680   26.3510   88.9720 C.3   147  PRO147      0.0207
     87  CD        23.0380   25.9960   90.4220 C.3   147  PRO147      0.0892
     88  N         24.8160   35.0520   84.4600 N.3   195  PHE195     -0.1241
     89  CA        24.3290   33.6800   84.3800 C.3   195  PHE195      0.1605
     90  C         22.8520   33.5870   84.7300 C.2   195  PHE195      0.2264
     91  O         22.4300   33.9630   85.8260 O.2   195  PHE195     -0.2867
     92  CB        25.1090   32.6920   85.2600 C.3   195  PHE195      0.0534
     93  CG        24.4090   31.3580   85.4110 C.ar  195  PHE195     -0.0203
     94  CD1       24.4180   30.4290   84.3710 C.ar  195  PHE195     -0.0042
     95  CD2       23.6920   31.0510   86.5680 C.ar  195  PHE195     -0.0042
     96  CE1       23.7500   29.2150   84.4920 C.ar  195  PHE195     -0.0003
     97  CE2       23.0260   29.8400   86.6940 C.ar  195  PHE195     -0.0003
     98  CZ        23.0560   28.9220   85.6570 C.ar  195  PHE195     -0.0000
     99  N         19.7950   30.3600   83.9590 N.3   197  PRO197     -0.2102
    100  CA        19.6190   29.0220   83.3930 C.3   197  PRO197      0.1504
    101  C         18.9370   29.0640   82.0310 C.2   197  PRO197      0.2575
    102  O         18.2220   30.0270   81.7280 O.2   197  PRO197     -0.2718
    103  CB        18.7020   28.3320   84.4090 C.3   197  PRO197      0.0282
    104  CG        17.9840   29.4450   85.0900 C.3   197  PRO197      0.0208
    105  CD        19.0140   30.5270   85.1980 C.3   197  PRO197      0.0893
    106  N         19.1670   28.0320   81.2210 N.am  198  ALA198     -0.1980
    107  CA        18.4850   27.8810   79.9380 C.3   198  ALA198      0.1597
    108  C         17.0200   28.2690   80.0730 C.2   198  ALA198      0.2287
    109  O         16.3810   27.9600   81.0800 O.2   198  ALA198     -0.2864
    110  CB        18.6010   26.4500   79.4430 C.3   198  ALA198      0.0319
    111  N         24.7270   30.1040   78.7070 N.3   224  ASP224     -0.1239
    112  CA        23.3380   29.8550   79.1190 C.3   224  ASP224      0.1674
    113  C         22.3710   30.9910   78.7560 C.2   224  ASP224      0.2266
    114  O         21.2740   30.7410   78.2460 O.2   224  ASP224     -0.2867
    115  CB        23.2650   29.5390   80.6180 C.3   224  ASP224      0.1410
    116  CG        24.2100   28.4230   81.0250 C.2   224  ASP224      0.3668
    117  OD1       23.7320   27.3050   81.3090 O.co2 224  ASP224     -0.2456
    118  OD2       25.4350   28.6620   81.0450 O.co2 224  ASP224     -0.2456
    119  N         21.5240   24.0660   73.6180 N.3   269  PHE269     -0.1241
    120  CA        22.5180   23.2460   74.3140 C.3   269  PHE269      0.1605
    121  C         21.9160   22.1690   75.2290 C.2   269  PHE269      0.2264
    122  O         22.5710   21.1690   75.5250 O.2   269  PHE269     -0.2867
    123  CB        23.5390   24.1220   75.0550 C.3   269  PHE269      0.0534
    124  CG        22.9640   24.9040   76.2020 C.ar  269  PHE269     -0.0203
    125  CD1       22.9850   24.3860   77.4950 C.ar  269  PHE269     -0.0042
    126  CD2       22.4280   26.1700   75.9990 C.ar  269  PHE269     -0.0042
    127  CE1       22.4630   25.1090   78.5540 C.ar  269  PHE269     -0.0003
    128  CE2       21.9050   26.8970   77.0570 C.ar  269  PHE269     -0.0003
    129  CZ        21.9260   26.3670   78.3360 C.ar  269  PHE269     -0.0000
@<TRIPOS>BOND
     1   119   120    1
     2   120   123    1
     3   120   121    1
     4   123   124    1
     5   121   122    2
     6   126   124   ar
     7   126   128   ar
     8   124   125   ar
     9   128   129   ar
    10   125   127   ar
    11    13    12    2
    12   114   113    2
    13   129   127   ar
    14    12    11    1
    15   111   112    1
    16   113   112    1
    17    10    11    1
    18    11    14    1
    19   112   115    1
    20   110   107    1
    21   107   108    1
    22   107   106    1
    23    57    59   ar
    24    57    55   ar
    25   108   109    2
    26    59    60   ar
    27    14    15    1
    28    14    16    1
    29   115   116    1
    30    54    55    1
    31    54    51    1
    32    55    56   ar
    33   116   118   ar
    34   116   117   ar
    35    50    51    1
    36   106   101   am
    37     4     3    2
    38    51    52    1
    39    60    58   ar
    40   102   101    2
    41     3     2    1
    42    36    37    1
    43    37    40    1
    44    37    38    1
    45   101   100    1
    46    56    58   ar
    47    39    38    2
    48    52    53    2
    49     2     1    1
    50     2     5    1
    51    38    41   am
    52   100    99    1
    53   100   103    1
    54     9     7   am
    55     5     6    1
    56    99   105    1
    57    67    66    1
    58    64    63    2
    59     7     8    2
    60     7     6    1
    61    94    96   ar
    62    94    93   ar
    63    89    88    1
    64    89    90    1
    65    89    92    1
    66    41    42    1
    67   103   104    1
    68    18    17    1
    69    18    19    1
    70    96    98   ar
    71    90    91    2
    72    20    19    2
    73    62    63    1
    74    62    61    1
    75    62    65    1
    76    68    66    1
    77   104   105    1
    78    44    43    2
    79    92    93    1
    80    19    21   am
    81    66    65    1
    82    93    95   ar
    83    43    42    1
    84    43    46   am
    85    42    45    1
    86    98    97   ar
    87    47    46    1
    88    47    48    1
    89    95    97   ar
    90    21    22    1
    91    49    48    2
    92    27    25    1
    93    22    25    1
    94    22    23    1
    95    80    79    1
    96    25    26    1
    97    85    86    1
    98    85    82    1
    99    23    24    2
   100    23    29   am
   101    84    83    2
   102    86    87    1
   103    26    28    1
   104    79    78   ar
   105    79    77   ar
   106    29    30    1
   107    83    82    1
   108    82    81    1
   109    78    76   ar
   110    34    33    1
   111    77    75   ar
   112    30    33    1
   113    30    31    1
   114    87    81    1
   115    33    35    1
   116    76    74   ar
   117    31    32    2
   118    75    74   ar
   119    74    73    1
   120    72    71    2
   121    71    70    1
   122    69    70    1
   123    73    70    1
