@<TRIPOS>MOLECULE
tmp/4ey4B01.pdb
 67 64 0 0 0
SMALL
GASTEIGER

@<TRIPOS>ATOM
      1  N         -8.1970  -43.8340  -34.4360 N.3   159  PRO159     -0.2102
      2  CA        -9.5840  -44.2800  -34.2360 C.3   159  PRO159      0.1504
      3  C        -10.6150  -43.4290  -35.0050 C.2   159  PRO159      0.2576
      4  O        -10.4920  -42.2000  -35.0860 O.2   159  PRO159     -0.2718
      5  CB        -9.7680  -44.1920  -32.7110 C.3   159  PRO159      0.0282
      6  CG        -8.3670  -44.3530  -32.1590 C.3   159  PRO159      0.0208
      7  CD        -7.4960  -43.6080  -33.1580 C.3   159  PRO159      0.0893
      8  N        -11.5940  -44.1000  -35.6060 N.am  160  GLY160     -0.1957
      9  CA       -12.5520  -43.4390  -36.4720 C.3   160  GLY160      0.1869
     10  C        -12.2480  -43.6010  -37.9560 C.2   160  GLY160      0.2309
     11  O        -13.1660  -43.7250  -38.7650 O.2   160  GLY160     -0.2863
     12  N         -7.7800  -48.3570  -38.6900 N.3   165  PRO165     -0.2116
     13  CA        -8.7950  -48.4690  -37.6360 C.3   165  PRO165      0.1372
     14  C         -8.2530  -49.0560  -36.3340 C.2   165  PRO165      0.2244
     15  O         -8.8850  -48.8770  -35.2890 O.2   165  PRO165     -0.2868
     16  CB        -9.8420  -49.4020  -38.2570 C.3   165  PRO165      0.0268
     17  CG        -9.0600  -50.2460  -39.2340 C.3   165  PRO165      0.0207
     18  CD        -8.0230  -49.3070  -39.7930 C.3   165  PRO165      0.0892
     19  N         -8.5260  -44.6010  -26.8790 N.3   238  MET238     -0.1245
     20  CA        -8.5130  -44.0310  -28.2340 C.3   238  MET238      0.1570
     21  C         -7.5870  -42.8240  -28.3820 C.2   238  MET238      0.2261
     22  O         -6.8530  -42.6940  -29.3800 O.2   238  MET238     -0.2867
     23  CB        -9.9270  -43.6490  -28.6620 C.3   238  MET238      0.0387
     24  CG       -10.7620  -44.8310  -29.1150 C.3   238  MET238      0.0595
     25  SD       -12.4810  -44.3920  -29.4150 S.3   238  MET238     -0.1393
     26  CE       -12.9090  -43.6990  -27.8380 C.3   238  MET238      0.0692
     27  N         -9.2330  -49.8580  -27.2040 N.3   298  VAL298     -0.1231
     28  CA       -10.6530  -49.9330  -26.8540 C.3   298  VAL298      0.1692
     29  C        -11.4420  -48.8430  -27.6070 C.2   298  VAL298      0.2592
     30  O        -11.3710  -47.6700  -27.2520 O.2   298  VAL298     -0.2718
     31  CB       -10.8540  -49.7410  -25.3330 C.3   298  VAL298      0.0266
     32  CG1      -12.3330  -49.9160  -24.9540 C.3   298  VAL298      0.0020
     33  CG2       -9.9620  -50.7080  -24.5550 C.3   298  VAL298      0.0020
     34  N        -12.1880  -49.2190  -28.6410 N.am  299  ASP299     -0.1960
     35  CA       -12.8780  -48.2120  -29.4450 C.3   299  ASP299      0.1840
     36  C        -14.3560  -48.5480  -29.7030 C.2   299  ASP299      0.2623
     37  O        -15.0040  -47.9510  -30.5670 O.2   299  ASP299     -0.2715
     38  CB       -12.1250  -47.9860  -30.7670 C.3   299  ASP299      0.1450
     39  CG       -12.2080  -49.1790  -31.6960 C.2   299  ASP299      0.3671
     40  OD1      -12.6130  -50.2760  -31.2370 O.co2 299  ASP299     -0.2456
     41  OD2      -11.8670  -49.0250  -32.8920 O.co2 299  ASP299     -0.2456
     42  N        -14.8760  -49.5210  -28.9630 N.am  300  GLY300     -0.1940
     43  CA       -16.2650  -49.9030  -29.0940 C.3   300  GLY300      0.2014
     44  C        -16.5030  -50.9780  -30.1370 C.2   300  GLY300      0.2638
     45  O        -17.5850  -51.5780  -30.1840 O.2   300  GLY300     -0.2714
     46  N        -15.5000  -51.2420  -30.9720 N.am  301  ASP301     -0.1971
     47  CA       -15.6900  -52.1710  -32.0950 C.3   301  ASP301      0.1709
     48  C        -15.3140  -53.6150  -31.7160 C.2   301  ASP301      0.2293
     49  O        -16.1830  -54.4130  -31.3690 O.2   301  ASP301     -0.2864
     50  CB       -14.9190  -51.6890  -33.3400 C.3   301  ASP301      0.1436
     51  CG       -15.3020  -52.4510  -34.6030 C.2   301  ASP301      0.3671
     52  OD1      -16.1500  -53.3690  -34.5140 O.co2 301  ASP301     -0.2456
     53  OD2      -14.7480  -52.1300  -35.6780 O.co2 301  ASP301     -0.2456
     54  N        -16.1120  -53.6950  -27.0670 N.3   304  SER304     -0.1202
     55  CA       -17.1720  -52.6960  -26.8540 C.3   304  SER304      0.2020
     56  C        -16.9780  -51.8580  -25.5780 C.2   304  SER304      0.2618
     57  O        -17.5070  -50.7600  -25.4650 O.2   304  SER304     -0.2717
     58  CB       -18.5690  -53.3360  -26.9090 C.3   304  SER304      0.2103
     59  OG       -18.7260  -54.3570  -25.9400 O.3   304  SER304     -0.2182
     60  N        -16.1870  -52.3710  -24.6410 N.am  305  ASP305     -0.1973
     61  CA       -15.8220  -51.6410  -23.4250 C.3   305  ASP305      0.1709
     62  C        -14.4650  -52.1810  -22.9680 C.2   305  ASP305      0.2293
     63  O        -13.9490  -53.1290  -23.5690 O.2   305  ASP305     -0.2864
     64  CB       -16.8750  -51.8610  -22.3230 C.3   305  ASP305      0.1436
     65  CG       -16.9240  -50.7160  -21.2870 C.2   305  ASP305      0.3671
     66  OD1      -15.8750  -50.1270  -20.9320 O.co2 305  ASP305     -0.2456
     67  OD2      -18.0420  -50.4170  -20.8170 O.co2 305  ASP305     -0.2456
@<TRIPOS>BOND
     1    18    17    1
     2    18    12    1
     3    17    16    1
     4    11    10    2
     5    12    13    1
     6    16    13    1
     7    10     9    1
     8    13    14    1
     9     9     8    1
    10    14    15    2
    11    53    51   ar
    12     8     3   am
    13     4     3    2
    14     3     2    1
    15    51    52   ar
    16    51    50    1
    17     1     2    1
    18     1     7    1
    19     2     5    1
    20    50    47    1
    21     7     6    1
    22    41    39   ar
    23     5     6    1
    24    47    48    1
    25    47    46    1
    26    48    49    2
    27    39    40   ar
    28    39    38    1
    29    46    44   am
    30    38    35    1
    31    37    36    2
    32    45    44    2
    33    44    43    1
    34    36    35    1
    35    36    42   am
    36    35    34    1
    37    25    24    1
    38    25    26    1
    39    22    21    2
    40    24    23    1
    41    43    42    1
    42    23    20    1
    43    34    29   am
    44    21    20    1
    45    20    19    1
    46    29    30    2
    47    29    28    1
    48    27    28    1
    49    54    55    1
    50    58    55    1
    51    58    59    1
    52    55    56    1
    53    28    31    1
    54    56    57    2
    55    56    60   am
    56    31    32    1
    57    31    33    1
    58    60    61    1
    59    63    62    2
    60    61    62    1
    61    61    64    1
    62    64    65    1
    63    65    66   ar
    64    65    67   ar
