@<TRIPOS>MOLECULE
tmp/4ey5B01.pdb
 159 158 0 0 0
SMALL
GASTEIGER

@<TRIPOS>ATOM
      1  N         15.5040  -57.2630  -30.4490 N.3    71  ASP71      -0.1239
      2  CA        16.0830  -56.9760  -29.1350 C.3    71  ASP71       0.1674
      3  C         17.6130  -57.0250  -29.1670 C.2    71  ASP71       0.2266
      4  O         18.2070  -58.0540  -29.4860 O.2    71  ASP71      -0.2867
      5  CB        15.5310  -57.9590  -28.0950 C.3    71  ASP71       0.1410
      6  CG        15.8660  -57.5650  -26.6620 C.2    71  ASP71       0.3668
      7  OD1       16.9140  -56.9290  -26.4190 O.co2  71  ASP71      -0.2456
      8  OD2       15.0680  -57.9120  -25.7710 O.co2  71  ASP71      -0.2456
      9  N         14.0910  -65.0320  -28.3890 N.3    83  TRP83      -0.1241
     10  CA        12.8300  -64.3700  -28.7190 C.3    83  TRP83       0.1605
     11  C         12.9030  -63.5650  -30.0320 C.2    83  TRP83       0.2264
     12  O         11.8790  -63.1240  -30.5510 O.2    83  TRP83      -0.2867
     13  CB        12.3940  -63.4500  -27.5700 C.3    83  TRP83       0.0550
     14  CG        12.3610  -64.1290  -26.2320 C.ar   83  TRP83       0.0003
     15  CD1       13.2650  -63.9870  -25.2140 C.ar   83  TRP83       0.0946
     16  CD2       11.3830  -65.0690  -25.7700 C.ar   83  TRP83       0.0152
     17  NE1       12.9040  -64.7730  -24.1510 N.ar   83  TRP83      -0.2442
     18  CE2       11.7530  -65.4490  -24.4660 C.ar   83  TRP83       0.0810
     19  CE3       10.2270  -65.6230  -26.3320 C.ar   83  TRP83       0.0012
     20  CZ2       11.0080  -66.3580  -23.7100 C.ar   83  TRP83       0.0191
     21  CZ3        9.4900  -66.5270  -25.5840 C.ar   83  TRP83       0.0001
     22  CH2        9.8860  -66.8870  -24.2840 C.ar   83  TRP83       0.0015
     23  N          1.4080  -66.1710  -29.8450 N.3   116  TYR116     -0.1227
     24  CA         2.6090  -65.6450  -29.1860 C.3   116  TYR116      0.1736
     25  C          2.3610  -64.2490  -28.6320 C.2   116  TYR116      0.2596
     26  O          1.4270  -63.5670  -29.0620 O.2   116  TYR116     -0.2718
     27  CB         3.8080  -65.6260  -30.1380 C.3   116  TYR116      0.0548
     28  CG         3.6090  -64.8160  -31.4120 C.ar  116  TYR116     -0.0200
     29  CD1        3.6750  -63.4210  -31.3990 C.ar  116  TYR116     -0.0009
     30  CD2        3.3750  -65.4470  -32.6230 C.ar  116  TYR116     -0.0009
     31  CE1        3.4930  -62.6800  -32.5520 C.ar  116  TYR116      0.0417
     32  CE2        3.1960  -64.7120  -33.8000 C.ar  116  TYR116      0.0417
     33  CZ         3.2610  -63.3300  -33.7550 C.ar  116  TYR116      0.1957
     34  OH         3.0770  -62.5990  -34.9080 O.3   116  TYR116     -0.2866
     35  N          3.2040  -63.8010  -27.7040 N.am  117  GLY117     -0.1942
     36  CA         2.9730  -62.4980  -27.1090 C.3   117  GLY117      0.2014
     37  C          4.1160  -61.6400  -26.6040 C.2   117  GLY117      0.2639
     38  O          4.1580  -61.3040  -25.4180 O.2   117  GLY117     -0.2714
     39  N          5.0180  -61.2380  -27.4890 N.am  118  GLY118     -0.1939
     40  CA         6.0410  -60.2740  -27.1170 C.3   118  GLY118      0.2014
     41  C          5.5260  -58.8400  -27.0900 C.2   118  GLY118      0.2639
     42  O          5.9050  -58.0100  -27.9320 O.2   118  GLY118     -0.2714
     43  N          4.6450  -58.5530  -26.1310 N.am  119  GLY119     -0.1954
     44  CA         4.2080  -57.1940  -25.8470 C.3   119  GLY119      0.1869
     45  C          3.5200  -56.4640  -26.9830 C.2   119  GLY119      0.2309
     46  O          3.5060  -55.2320  -27.0090 O.2   119  GLY119     -0.2863
     47  N          4.6310  -56.0950  -29.7590 N.3   121  TYR121     -0.1227
     48  CA         5.6810  -55.5080  -30.5990 C.3   121  TYR121      0.1736
     49  C          6.6520  -56.5260  -31.2110 C.2   121  TYR121      0.2596
     50  O          7.4780  -56.1620  -32.0390 O.2   121  TYR121     -0.2718
     51  CB         6.4810  -54.4430  -29.8370 C.3   121  TYR121      0.0548
     52  CG         7.4340  -54.9810  -28.7740 C.ar  121  TYR121     -0.0200
     53  CD1        8.7520  -55.3180  -29.0860 C.ar  121  TYR121     -0.0009
     54  CD2        7.0180  -55.1230  -27.4570 C.ar  121  TYR121     -0.0009
     55  CE1        9.6190  -55.7930  -28.1210 C.ar  121  TYR121      0.0417
     56  CE2        7.8780  -55.6050  -26.4800 C.ar  121  TYR121      0.0417
     57  CZ         9.1690  -55.9370  -26.8170 C.ar  121  TYR121      0.1957
     58  OH        10.0000  -56.4080  -25.8410 O.3   121  TYR121     -0.2866
     59  N          6.5650  -57.7850  -30.7900 N.am  122  SER122     -0.1938
     60  CA         7.4990  -58.8110  -31.2420 C.3   122  SER122      0.2055
     61  C          6.9120  -60.2000  -31.0720 C.2   122  SER122      0.2643
     62  O          5.8350  -60.3660  -30.5030 O.2   122  SER122     -0.2714
     63  CB         8.8060  -58.7300  -30.4600 C.3   122  SER122      0.2130
     64  OG         8.5480  -58.7910  -29.0690 O.3   122  SER122     -0.2179
     65  N          7.6440  -61.1950  -31.5570 N.am  123  GLY123     -0.1954
     66  CA         7.1840  -62.5670  -31.5530 C.3   123  GLY123      0.1869
     67  C          6.9270  -63.0870  -32.9520 C.2   123  GLY123      0.2309
     68  O          6.7570  -62.3110  -33.9040 O.2   123  GLY123     -0.2863
     69  N          9.3680  -69.2590  -33.7940 N.3   127  LEU127     -0.1245
     70  CA        10.3530  -69.3830  -32.7200 C.3   127  LEU127      0.1561
     71  C         10.5240  -70.8430  -32.3010 C.2   127  LEU127      0.2260
     72  O          9.5560  -71.6050  -32.2770 O.2   127  LEU127     -0.2867
     73  CB         9.9700  -68.5080  -31.5230 C.3   127  LEU127      0.0270
     74  CG         9.9340  -66.9980  -31.7860 C.3   127  LEU127      0.0019
     75  CD1        9.7630  -66.2330  -30.4710 C.3   127  LEU127      0.0001
     76  CD2       11.1810  -66.5390  -32.5260 C.3   127  LEU127      0.0001
     77  N          8.2660  -72.4610  -29.7940 N.3   130  TYR130     -0.1241
     78  CA         6.8520  -72.6580  -30.1310 C.3   130  TYR130      0.1605
     79  C          6.6720  -73.8380  -31.0860 C.2   130  TYR130      0.2264
     80  O          5.6260  -73.9820  -31.7170 O.2   130  TYR130     -0.2867
     81  CB         6.2510  -71.4020  -30.7800 C.3   130  TYR130      0.0534
     82  CG         6.3420  -70.1270  -29.9640 C.ar  130  TYR130     -0.0201
     83  CD1        6.2870  -70.1510  -28.5750 C.ar  130  TYR130     -0.0009
     84  CD2        6.4770  -68.8920  -30.5930 C.ar  130  TYR130     -0.0009
     85  CE1        6.3680  -68.9810  -27.8370 C.ar  130  TYR130      0.0417
     86  CE2        6.5640  -67.7250  -29.8700 C.ar  130  TYR130      0.0417
     87  CZ         6.5020  -67.7710  -28.4890 C.ar  130  TYR130      0.1957
     88  OH         6.5820  -66.6070  -27.7620 O.3   130  TYR130     -0.2866
     89  N          0.5220  -66.5990  -24.2260 N.3   199  GLU199     -0.1231
     90  CA         1.3430  -66.1870  -23.1040 C.3   199  GLU199      0.1699
     91  C          1.6900  -64.7280  -23.3080 C.2   199  GLU199      0.2592
     92  O          1.8940  -64.2990  -24.4430 O.2   199  GLU199     -0.2718
     93  CB         2.6030  -67.0510  -23.0150 C.3   199  GLU199      0.0402
     94  CG         3.4870  -66.7810  -21.8100 C.3   199  GLU199      0.1161
     95  CD         4.5020  -65.6770  -22.0570 C.2   199  GLU199      0.3649
     96  OE1        4.6520  -65.2520  -23.2240 O.co2 199  GLU199     -0.2457
     97  OE2        5.1390  -65.2240  -21.0780 O.co2 199  GLU199     -0.2457
     98  N          1.7390  -63.9800  -22.2070 N.am  200  SER200     -0.1952
     99  CA         1.9850  -62.5350  -22.2170 C.3   200  SER200      0.1924
    100  C          0.9600  -61.7980  -23.0940 C.2   200  SER200      0.2314
    101  O         -0.2450  -61.9180  -22.8660 O.2   200  SER200     -0.2863
    102  CB         3.4220  -62.2460  -22.6440 C.3   200  SER200      0.2116
    103  OG         3.8920  -61.0400  -22.0800 O.3   200  SER200     -0.2180
    104  N          4.4900  -50.7550  -23.8370 N.3   292  PHE292     -0.1241
    105  CA         4.7280  -50.9520  -25.2670 C.3   292  PHE292      0.1605
    106  C          3.9490  -49.9270  -26.0980 C.2   292  PHE292      0.2264
    107  O          2.8070  -49.6050  -25.7840 O.2   292  PHE292     -0.2867
    108  CB         4.3680  -52.3910  -25.6460 C.3   292  PHE292      0.0534
    109  CG         4.7540  -53.4020  -24.5870 C.ar  292  PHE292     -0.0203
    110  CD1        6.0850  -53.7280  -24.3740 C.ar  292  PHE292     -0.0042
    111  CD2        3.7870  -54.0040  -23.7860 C.ar  292  PHE292     -0.0042
    112  CE1        6.4450  -54.6500  -23.3870 C.ar  292  PHE292     -0.0003
    113  CE2        4.1420  -54.9220  -22.8040 C.ar  292  PHE292     -0.0003
    114  CZ         5.4710  -55.2450  -22.6100 C.ar  292  PHE292     -0.0000
    115  N         12.4650  -60.2730  -15.3440 N.3   332  TYR332     -0.1227
    116  CA        12.9110  -60.0620  -16.7180 C.3   332  TYR332      0.1736
    117  C         12.8290  -58.6040  -17.1450 C.2   332  TYR332      0.2595
    118  O         13.7260  -58.0960  -17.8130 O.2   332  TYR332     -0.2718
    119  CB        12.0890  -60.9280  -17.6640 C.3   332  TYR332      0.0548
    120  CG        12.2110  -60.5590  -19.1190 C.ar  332  TYR332     -0.0200
    121  CD1       13.3670  -60.8370  -19.8320 C.ar  332  TYR332     -0.0009
    122  CD2       11.1580  -59.9480  -19.7880 C.ar  332  TYR332     -0.0009
    123  CE1       13.4730  -60.5150  -21.1750 C.ar  332  TYR332      0.0417
    124  CE2       11.2600  -59.6120  -21.1190 C.ar  332  TYR332      0.0417
    125  CZ        12.4180  -59.9020  -21.8120 C.ar  332  TYR332      0.1957
    126  OH        12.5080  -59.5710  -23.1470 O.3   332  TYR332     -0.2866
    127  N         11.7710  -57.9210  -16.7240 N.am  333  PHE333     -0.1976
    128  CA        11.5220  -56.5550  -17.1760 C.3   333  PHE333      0.1639
    129  C         12.4400  -55.4940  -16.5810 C.2   333  PHE333      0.2290
    130  O         12.6740  -54.4530  -17.1990 O.2   333  PHE333     -0.2864
    131  CB        10.0480  -56.2050  -16.9870 C.3   333  PHE333      0.0560
    132  CG         9.1470  -57.0290  -17.8480 C.ar  333  PHE333     -0.0200
    133  CD1        8.6340  -58.2300  -17.3840 C.ar  333  PHE333     -0.0042
    134  CD2        8.8720  -56.6400  -19.1550 C.ar  333  PHE333     -0.0042
    135  CE1        7.8340  -59.0090  -18.1960 C.ar  333  PHE333     -0.0003
    136  CE2        8.0670  -57.4140  -19.9740 C.ar  333  PHE333     -0.0003
    137  CZ         7.5480  -58.5960  -19.4980 C.ar  333  PHE333     -0.0000
    138  N          9.3380  -64.3480  -16.4410 N.3   442  HIS442     -0.1241
    139  CA         8.2660  -64.2560  -17.4240 C.3   442  HIS442      0.1621
    140  C          8.6710  -65.0280  -18.6750 C.2   442  HIS442      0.2264
    141  O          9.7950  -64.9030  -19.1370 O.2   442  HIS442     -0.2867
    142  CB         8.0690  -62.7760  -17.7600 C.3   442  HIS442      0.0745
    143  CG         6.8310  -62.4730  -18.5400 C.ar  442  HIS442      0.0817
    144  ND1        5.5640  -62.6750  -18.0350 N.ar  442  HIS442     -0.2268
    145  CD2        6.6650  -61.9410  -19.7740 C.ar  442  HIS442      0.1154
    146  CE1        4.6720  -62.2980  -18.9330 C.ar  442  HIS442      0.1986
    147  NE2        5.3140  -61.8500  -19.9960 N.ar  442  HIS442     -0.2212
    148  N          9.0790  -68.3530  -19.1330 N.3   444  TYR444     -0.1241
    149  CA         9.8850  -69.5730  -19.0500 C.3   444  TYR444      0.1605
    150  C          9.1590  -70.8580  -18.6790 C.2   444  TYR444      0.2264
    151  O          9.7830  -71.8900  -18.4550 O.2   444  TYR444     -0.2867
    152  CB        11.2010  -69.3370  -18.2950 C.3   444  TYR444      0.0534
    153  CG        12.0980  -68.5110  -19.1850 C.ar  444  TYR444     -0.0201
    154  CD1       12.8350  -69.1140  -20.1990 C.ar  444  TYR444     -0.0009
    155  CD2       12.1300  -67.1220  -19.0880 C.ar  444  TYR444     -0.0009
    156  CE1       13.6270  -68.3720  -21.0530 C.ar  444  TYR444      0.0417
    157  CE2       12.9240  -66.3660  -19.9410 C.ar  444  TYR444      0.0417
    158  CZ        13.6680  -67.0020  -20.9300 C.ar  444  TYR444      0.1957
    159  OH        14.4580  -66.2710  -21.7970 O.3   444  TYR444     -0.2866
@<TRIPOS>BOND
     1    34    33    1
     2    68    67    2
     3    32    33   ar
     4    32    30   ar
     5    69    70    1
     6    33    31   ar
     7    67    66    1
     8    70    71    1
     9    70    73    1
    10    30    28   ar
    11    31    29   ar
    12    76    74    1
    13    71    72    2
    14    50    49    2
    15    74    73    1
    16    74    75    1
    17    80    79    2
    18    65    66    1
    19    65    61   am
    20    28    29   ar
    21    28    27    1
    22    60    61    1
    23    60    59    1
    24    60    63    1
    25    49    59   am
    26    49    48    1
    27    79    78    1
    28    61    62    2
    29    81    78    1
    30    81    82    1
    31    48    51    1
    32    48    47    1
    33    84    82   ar
    34    84    86   ar
    35    12    11    2
    36    63    64    1
    37     1     2    1
    38    27    24    1
    39    78    77    1
    40    11    10    1
    41    82    83   ar
    42    86    87   ar
    43    23    24    1
    44    51    52    1
    45     4     3    2
    46    24    25    1
    47     3     2    1
    48     2     5    1
    49    53    52   ar
    50    53    55   ar
    51    26    25    2
    52    52    54   ar
    53    10     9    1
    54    10    13    1
    55    25    35   am
    56    83    85   ar
    57    87    85   ar
    58    87    88    1
    59    55    57   ar
    60     5     6    1
    61    42    41    2
    62    35    36    1
    63    13    14    1
    64    39    40    1
    65    39    37   am
    66    54    56   ar
    67    40    41    1
    68    36    37    1
    69    41    43   am
    70    46    45    2
    71    45    44    1
    72    57    56   ar
    73    57    58    1
    74     6     7   ar
    75     6     8   ar
    76    37    38    2
    77    19    16   ar
    78    19    21   ar
    79    14    16   ar
    80    14    15   ar
    81    43    44    1
    82   106   107    2
    83   106   105    1
    84    16    18   ar
    85   108   105    1
    86   108   109    1
    87    21    22   ar
    88   105   104    1
    89    15    17   ar
    90   109   110   ar
    91   109   111   ar
    92    18    17   ar
    93    18    20   ar
    94    92    91    2
    95   110   112   ar
    96    22    20   ar
    97    89    90    1
    98   111   113   ar
    99   112   114   ar
   100    91    90    1
   101    91    98   am
   102    96    95   ar
   103   126   125    1
   104    90    93    1
   105   100   101    2
   106   100    99    1
   107    93    94    1
   108   113   114   ar
   109   102    99    1
   110   102   103    1
   111    99    98    1
   112    95    94    1
   113    95    97   ar
   114   125   123   ar
   115   125   124   ar
   116   159   158    1
   117   123   121   ar
   118   124   122   ar
   119   156   158   ar
   120   156   154   ar
   121   158   157   ar
   122   154   153   ar
   123   147   145   ar
   124   147   146   ar
   125   136   137   ar
   126   136   134   ar
   127   157   155   ar
   128   121   120   ar
   129   122   120   ar
   130   145   143   ar
   131   137   135   ar
   132   153   155   ar
   133   153   152    1
   134   134   132   ar
   135   141   140    2
   136   148   149    1
   137   120   119    1
   138   149   150    1
   139   149   152    1
   140   146   144   ar
   141   150   151    2
   142   140   139    1
   143   143   144   ar
   144   143   142    1
   145   135   133   ar
   146   132   133   ar
   147   132   131    1
   148   118   117    2
   149   142   139    1
   150   119   116    1
   151   139   138    1
   152   130   129    2
   153   128   131    1
   154   128   127    1
   155   128   129    1
   156   117   127   am
   157   117   116    1
   158   116   115    1
