@<TRIPOS>MOLECULE
tmp/4ey6B02.pdb
 74 71 0 0 0
SMALL
GASTEIGER

@<TRIPOS>ATOM
      1  N         -7.8970  -43.1860  -34.3260 N.3   159  PRO159     -0.2102
      2  CA        -9.2720  -43.6380  -34.1000 C.3   159  PRO159      0.1504
      3  C        -10.2450  -42.7710  -34.8790 C.2   159  PRO159      0.2576
      4  O        -10.0330  -41.5600  -34.9730 O.2   159  PRO159     -0.2718
      5  CB        -9.4480  -43.4730  -32.5880 C.3   159  PRO159      0.0282
      6  CG        -8.0500  -43.5890  -32.0430 C.3   159  PRO159      0.0208
      7  CD        -7.1750  -42.9330  -33.0660 C.3   159  PRO159      0.0893
      8  N        -11.2600  -43.3950  -35.4690 N.am  160  GLY160     -0.1957
      9  CA       -12.1770  -42.6920  -36.3440 C.3   160  GLY160      0.1869
     10  C        -11.8810  -42.8900  -37.8250 C.2   160  GLY160      0.2309
     11  O        -12.7950  -43.1420  -38.6160 O.2   160  GLY160     -0.2863
     12  N         -7.4920  -47.5860  -38.6260 N.3   165  PRO165     -0.2116
     13  CA        -8.5020  -47.7230  -37.5710 C.3   165  PRO165      0.1372
     14  C         -7.9690  -48.3100  -36.2640 C.2   165  PRO165      0.2244
     15  O         -8.6210  -48.1880  -35.2240 O.2   165  PRO165     -0.2868
     16  CB        -9.5340  -48.6680  -38.2050 C.3   165  PRO165      0.0268
     17  CG        -8.7480  -49.4780  -39.1770 C.3   165  PRO165      0.0207
     18  CD        -7.7310  -48.5190  -39.7420 C.3   165  PRO165      0.0892
     19  N         -8.2490  -43.8530  -26.7440 N.3   238  MET238     -0.1245
     20  CA        -8.2920  -43.3190  -28.1070 C.3   238  MET238      0.1570
     21  C         -7.3730  -42.1200  -28.3120 C.2   238  MET238      0.2261
     22  O         -6.6850  -42.0230  -29.3280 O.2   238  MET238     -0.2867
     23  CB        -9.7220  -42.9430  -28.4980 C.3   238  MET238      0.0387
     24  CG       -10.5260  -44.0690  -29.1240 C.3   238  MET238      0.0595
     25  SD       -12.2660  -43.6280  -29.3260 S.3   238  MET238     -0.1393
     26  CE       -12.7320  -43.3550  -27.6240 C.3   238  MET238      0.0692
     27  N         -8.8060  -48.9900  -27.0700 N.3   298  VAL298     -0.1231
     28  CA       -10.2130  -49.0680  -26.6910 C.3   298  VAL298      0.1692
     29  C        -10.9720  -47.9910  -27.4530 C.2   298  VAL298      0.2592
     30  O        -10.9390  -46.8210  -27.0700 O.2   298  VAL298     -0.2718
     31  CB       -10.4210  -48.8530  -25.1750 C.3   298  VAL298      0.0266
     32  CG1      -11.8870  -49.0710  -24.8120 C.3   298  VAL298      0.0020
     33  CG2       -9.5300  -49.7870  -24.3810 C.3   298  VAL298      0.0020
     34  N        -11.6470  -48.3810  -28.5300 N.am  299  ASP299     -0.1960
     35  CA       -12.2850  -47.4060  -29.4090 C.3   299  ASP299      0.1840
     36  C        -13.7780  -47.6740  -29.6400 C.2   299  ASP299      0.2623
     37  O        -14.4090  -47.0230  -30.4680 O.2   299  ASP299     -0.2715
     38  CB       -11.5370  -47.3180  -30.7480 C.3   299  ASP299      0.1450
     39  CG       -11.7520  -48.5420  -31.6290 C.2   299  ASP299      0.3671
     40  OD1      -12.1730  -49.6030  -31.1120 O.co2 299  ASP299     -0.2456
     41  OD2      -11.4910  -48.4470  -32.8490 O.co2 299  ASP299     -0.2456
     42  N        -14.3330  -48.6360  -28.9150 N.am  300  GLY300     -0.1940
     43  CA       -15.7490  -48.9290  -29.0160 C.3   300  GLY300      0.2014
     44  C        -16.0570  -50.0050  -30.0370 C.2   300  GLY300      0.2638
     45  O        -17.1680  -50.5370  -30.0770 O.2   300  GLY300     -0.2714
     46  N        -15.0740  -50.3420  -30.8630 N.am  301  ASP301     -0.1971
     47  CA       -15.3080  -51.3090  -31.9270 C.3   301  ASP301      0.1709
     48  C        -14.9350  -52.7360  -31.5080 C.2   301  ASP301      0.2293
     49  O        -15.7920  -53.4830  -31.0330 O.2   301  ASP301     -0.2864
     50  CB       -14.5870  -50.8900  -33.2100 C.3   301  ASP301      0.1436
     51  CG       -15.0380  -51.6860  -34.4070 C.2   301  ASP301      0.3671
     52  OD1      -15.9710  -52.5010  -34.2490 O.co2 301  ASP301     -0.2456
     53  OD2      -14.4710  -51.4910  -35.5050 O.co2 301  ASP301     -0.2456
     54  N        -15.7820  -52.8260  -26.8890 N.3   304  SER304     -0.1202
     55  CA       -16.8500  -51.8390  -26.6940 C.3   304  SER304      0.2020
     56  C        -16.5850  -50.8970  -25.5090 C.2   304  SER304      0.2619
     57  O        -17.0750  -49.7730  -25.4770 O.2   304  SER304     -0.2717
     58  CB       -18.2030  -52.5360  -26.5460 C.3   304  SER304      0.2103
     59  OG       -18.2280  -53.3630  -25.3950 O.3   304  SER304     -0.2182
     60  N        -15.7880  -51.3660  -24.5570 N.am  305  ASP305     -0.1959
     61  CA       -15.4060  -50.5980  -23.3780 C.3   305  ASP305      0.1840
     62  C        -14.0430  -51.1390  -22.9440 C.2   305  ASP305      0.2622
     63  O        -13.5130  -52.0520  -23.5820 O.2   305  ASP305     -0.2715
     64  CB       -16.4420  -50.7970  -22.2600 C.3   305  ASP305      0.1450
     65  CG       -16.4220  -49.6770  -21.2100 C.2   305  ASP305      0.3671
     66  OD1      -15.3480  -49.1130  -20.9150 O.co2 305  ASP305     -0.2456
     67  OD2      -17.5000  -49.3660  -20.6650 O.co2 305  ASP305     -0.2456
     68  N        -13.4800  -50.5900  -21.8670 N.am  306  THR306     -0.1951
     69  CA       -12.2190  -51.0870  -21.3390 C.3   306  THR306      0.1897
     70  C        -12.3870  -52.5560  -20.9690 C.2   306  THR306      0.2313
     71  O        -13.4890  -52.9900  -20.6090 O.2   306  THR306     -0.2863
     72  CB       -11.7610  -50.2900  -20.0970 C.3   306  THR306      0.1794
     73  OG1      -12.4470  -50.7660  -18.9310 O.3   306  THR306     -0.2208
     74  CG2      -12.0300  -48.8100  -20.2790 C.3   306  THR306      0.0378
@<TRIPOS>BOND
     1    18    17    1
     2    18    12    1
     3    17    16    1
     4    12    13    1
     5    11    10    2
     6    16    13    1
     7    10     9    1
     8    13    14    1
     9     9     8    1
    10    14    15    2
    11    53    51   ar
    12     8     3   am
    13     4     3    2
    14     3     2    1
    15    51    52   ar
    16    51    50    1
    17     1     2    1
    18     1     7    1
    19     2     5    1
    20    50    47    1
    21     7     6    1
    22    41    39   ar
    23     5     6    1
    24    47    48    1
    25    47    46    1
    26    39    40   ar
    27    39    38    1
    28    48    49    2
    29    46    44   am
    30    38    35    1
    31    37    36    2
    32    45    44    2
    33    44    43    1
    34    36    35    1
    35    36    42   am
    36    35    34    1
    37    22    21    2
    38    25    24    1
    39    25    26    1
    40    24    23    1
    41    43    42    1
    42    34    29   am
    43    23    20    1
    44    21    20    1
    45    20    19    1
    46    29    30    2
    47    29    28    1
    48    27    28    1
    49    54    55    1
    50    55    58    1
    51    55    56    1
    52    28    31    1
    53    58    59    1
    54    56    57    2
    55    56    60   am
    56    31    32    1
    57    31    33    1
    58    60    61    1
    59    63    62    2
    60    61    62    1
    61    61    64    1
    62    62    68   am
    63    64    65    1
    64    68    69    1
    65    69    70    1
    66    69    72    1
    67    65    66   ar
    68    65    67   ar
    69    70    71    2
    70    74    72    1
    71    72    73    1
