@<TRIPOS>MOLECULE
tmp/4ey6B01.pdb
 191 189 0 0 0
SMALL
GASTEIGER

@<TRIPOS>ATOM
      1  N         15.7690  -56.9810  -30.6350 N.3    71  ASP71      -0.1239
      2  CA        16.4670  -56.7010  -29.3810 C.3    71  ASP71       0.1674
      3  C         17.9700  -56.9260  -29.4850 C.2    71  ASP71       0.2266
      4  O         18.4220  -57.9750  -29.9610 O.2    71  ASP71      -0.2867
      5  CB        15.8920  -57.5440  -28.2370 C.3    71  ASP71       0.1410
      6  CG        16.3890  -57.0910  -26.8680 C.2    71  ASP71       0.3668
      7  OD1       17.0330  -57.9040  -26.1740 O.co2  71  ASP71      -0.2456
      8  OD2       16.1340  -55.9200  -26.4930 O.co2  71  ASP71      -0.2456
      9  N         18.1730  -63.5230  -25.0740 N.3    80  THR80      -0.1218
     10  CA        17.6080  -62.5560  -26.0060 C.3    80  THR80       0.1862
     11  C         17.3470  -63.1730  -27.3830 C.2    80  THR80       0.2287
     12  O         16.2730  -62.9840  -27.9530 O.2    80  THR80      -0.2866
     13  CB        18.4670  -61.2680  -26.1490 C.3    80  THR80       0.1770
     14  OG1       19.4440  -61.4380  -27.1800 O.3    80  THR80      -0.2211
     15  CG2       19.1530  -60.9220  -24.8490 C.3    80  THR80       0.0375
     16  N         14.1150  -65.0880  -28.6670 N.3    83  TRP83      -0.1227
     17  CA        12.8860  -64.3480  -28.9530 C.3    83  TRP83       0.1737
     18  C         12.9710  -63.5300  -30.2430 C.2    83  TRP83       0.2595
     19  O         11.9530  -63.0860  -30.7790 O.2    83  TRP83      -0.2718
     20  CB        12.5490  -63.4090  -27.7940 C.3    83  TRP83       0.0564
     21  CG        12.5280  -64.0660  -26.4550 C.ar   83  TRP83       0.0003
     22  CD1       13.4590  -63.9350  -25.4610 C.ar   83  TRP83       0.0946
     23  CD2       11.5270  -64.9590  -25.9500 C.ar   83  TRP83       0.0152
     24  NE1       13.1000  -64.6880  -24.3750 N.ar   83  TRP83      -0.2442
     25  CE2       11.9150  -65.3240  -24.6450 C.ar   83  TRP83       0.0810
     26  CE3       10.3400  -65.4800  -26.4730 C.ar   83  TRP83       0.0012
     27  CZ2       11.1550  -66.1890  -23.8540 C.ar   83  TRP83       0.0191
     28  CZ3        9.5860  -66.3390  -25.6860 C.ar   83  TRP83       0.0001
     29  CH2        9.9990  -66.6860  -24.3910 C.ar   83  TRP83       0.0015
     30  N         14.1900  -63.3140  -30.7200 N.am   84  ASN84      -0.1974
     31  CA        14.4250  -62.5590  -31.9390 C.3    84  ASN84       0.1688
     32  C         13.9910  -63.3320  -33.1930 C.2    84  ASN84       0.2292
     33  O         13.9630  -64.5610  -33.1910 O.2    84  ASN84      -0.2864
     34  CB        15.9030  -62.1650  -32.0300 C.3    84  ASN84       0.1181
     35  CG        16.2330  -60.9440  -31.2020 C.2    84  ASN84       0.2629
     36  OD1       15.3540  -60.1500  -30.8640 O.2    84  ASN84      -0.2716
     37  ND2       17.5100  -60.7800  -30.8750 N.am   84  ASN84      -0.0877
     38  N          3.2850  -63.9180  -27.7210 N.3   117  GLY117     -0.1210
     39  CA         3.4540  -62.5850  -27.1680 C.3   117  GLY117      0.1956
     40  C          4.6790  -61.8660  -27.7190 C.2   117  GLY117      0.2612
     41  O          5.2800  -62.3010  -28.7060 O.2   117  GLY117     -0.2717
     42  N          5.0480  -60.7590  -27.0780 N.am  118  GLY118     -0.1942
     43  CA         6.1520  -59.9270  -27.5240 C.3   118  GLY118      0.2014
     44  C          5.8240  -58.4530  -27.3330 C.2   118  GLY118      0.2639
     45  O          6.2820  -57.5930  -28.0960 O.2   118  GLY118     -0.2714
     46  N          5.0120  -58.1650  -26.3180 N.am  119  GLY119     -0.1954
     47  CA         4.6620  -56.8000  -25.9630 C.3   119  GLY119      0.1869
     48  C          3.8650  -56.0620  -27.0250 C.2   119  GLY119      0.2309
     49  O          3.8280  -54.8320  -27.0360 O.2   119  GLY119     -0.2863
     50  N          4.7120  -55.6700  -29.9170 N.3   121  TYR121     -0.1227
     51  CA         5.6330  -55.0500  -30.8670 C.3   121  TYR121      0.1736
     52  C          6.6310  -56.0230  -31.4980 C.2   121  TYR121      0.2596
     53  O          7.4160  -55.6310  -32.3550 O.2   121  TYR121     -0.2718
     54  CB         6.3930  -53.8840  -30.2240 C.3   121  TYR121      0.0548
     55  CG         7.4740  -54.2850  -29.2330 C.ar  121  TYR121     -0.0200
     56  CD1        8.7560  -54.6130  -29.6610 C.ar  121  TYR121     -0.0009
     57  CD2        7.2230  -54.2860  -27.8650 C.ar  121  TYR121     -0.0009
     58  CE1        9.7450  -54.9630  -28.7620 C.ar  121  TYR121      0.0417
     59  CE2        8.2100  -54.6320  -26.9540 C.ar  121  TYR121      0.0417
     60  CZ         9.4680  -54.9670  -27.4080 C.ar  121  TYR121      0.1957
     61  OH        10.4490  -55.3120  -26.5070 O.3   121  TYR121     -0.2866
     62  N          6.6210  -57.2730  -31.0510 N.am  122  SER122     -0.1938
     63  CA         7.5550  -58.2660  -31.5590 C.3   122  SER122      0.2055
     64  C          6.9330  -59.6350  -31.4400 C.2   122  SER122      0.2643
     65  O          5.7940  -59.7610  -30.9960 O.2   122  SER122     -0.2714
     66  CB         8.8620  -58.2440  -30.7710 C.3   122  SER122      0.2130
     67  OG         8.6250  -58.5080  -29.4030 O.3   122  SER122     -0.2179
     68  N          7.6910  -60.6550  -31.8270 N.am  123  GLY123     -0.1954
     69  CA         7.2310  -62.0290  -31.7730 C.3   123  GLY123      0.1869
     70  C          6.9890  -62.6390  -33.1390 C.2   123  GLY123      0.2309
     71  O          6.9410  -61.9340  -34.1590 O.2   123  GLY123     -0.2863
     72  N          9.2440  -69.1680  -34.0220 N.3   127  LEU127     -0.1245
     73  CA        10.2740  -69.3670  -33.0070 C.3   127  LEU127      0.1561
     74  C         10.3770  -70.8280  -32.5700 C.2   127  LEU127      0.2260
     75  O          9.3690  -71.5320  -32.4950 O.2   127  LEU127     -0.2867
     76  CB        10.0100  -68.4770  -31.7910 C.3   127  LEU127      0.0270
     77  CG         9.9430  -66.9620  -32.0150 C.3   127  LEU127      0.0019
     78  CD1        9.8820  -66.2300  -30.6720 C.3   127  LEU127      0.0001
     79  CD2       11.1060  -66.4580  -32.8580 C.3   127  LEU127      0.0001
     80  N          8.1060  -72.2150  -29.8780 N.3   130  TYR130     -0.1241
     81  CA         6.6790  -72.4310  -30.1660 C.3   130  TYR130      0.1605
     82  C          6.4500  -73.6260  -31.0910 C.2   130  TYR130      0.2264
     83  O          5.3500  -73.8100  -31.6180 O.2   130  TYR130     -0.2867
     84  CB         6.0360  -71.1850  -30.7950 C.3   130  TYR130      0.0534
     85  CG         6.2110  -69.9110  -29.9940 C.ar  130  TYR130     -0.0201
     86  CD1        6.2300  -69.9320  -28.6060 C.ar  130  TYR130     -0.0009
     87  CD2        6.3680  -68.6890  -30.6310 C.ar  130  TYR130     -0.0009
     88  CE1        6.3930  -68.7660  -27.8810 C.ar  130  TYR130      0.0417
     89  CE2        6.5420  -67.5230  -29.9140 C.ar  130  TYR130      0.0417
     90  CZ         6.5480  -67.5660  -28.5470 C.ar  130  TYR130      0.1957
     91  OH         6.7110  -66.4010  -27.8460 O.3   130  TYR130     -0.2866
     92  N          0.6240  -66.3500  -24.3270 N.3   199  GLU199     -0.1231
     93  CA         1.4050  -65.9490  -23.1770 C.3   199  GLU199      0.1699
     94  C          1.7220  -64.4720  -23.3220 C.2   199  GLU199      0.2592
     95  O          1.9800  -64.0020  -24.4330 O.2   199  GLU199     -0.2718
     96  CB         2.6750  -66.8040  -23.0780 C.3   199  GLU199      0.0402
     97  CG         3.5630  -66.5240  -21.8900 C.3   199  GLU199      0.1161
     98  CD         4.5840  -65.4310  -22.1650 C.2   199  GLU199      0.3649
     99  OE1        4.6910  -64.9940  -23.3300 O.co2 199  GLU199     -0.2457
    100  OE2        5.2730  -65.0010  -21.2100 O.co2 199  GLU199     -0.2457
    101  N          1.6690  -63.7520  -22.1990 N.am  200  SER200     -0.1952
    102  CA         1.9410  -62.3150  -22.1490 C.3   200  SER200      0.1924
    103  C          1.0010  -61.5380  -23.0750 C.2   200  SER200      0.2314
    104  O         -0.2140  -61.6320  -22.9390 O.2   200  SER200     -0.2863
    105  CB         3.4060  -62.0490  -22.4940 C.3   200  SER200      0.2116
    106  OG         3.8560  -60.8300  -21.9350 O.3   200  SER200     -0.2180
    107  N         -0.7950  -52.1630  -19.4720 N.3   233  TRP233     -0.1241
    108  CA         0.1070  -52.0070  -20.6170 C.3   233  TRP233      0.1605
    109  C         -0.5450  -52.4760  -21.9140 C.2   233  TRP233      0.2264
    110  O         -0.0960  -52.1250  -23.0060 O.2   233  TRP233     -0.2867
    111  CB         1.3880  -52.8120  -20.3860 C.3   233  TRP233      0.0550
    112  CG         1.1020  -54.2400  -20.0230 C.ar  233  TRP233      0.0003
    113  CD1        0.8950  -54.7350  -18.7720 C.ar  233  TRP233      0.0946
    114  CD2        0.9630  -55.3530  -20.9190 C.ar  233  TRP233      0.0152
    115  NE1        0.6520  -56.0840  -18.8260 N.ar  233  TRP233     -0.2442
    116  CE2        0.6830  -56.4900  -20.1320 C.ar  233  TRP233      0.0810
    117  CE3        1.0540  -55.5010  -22.3060 C.ar  233  TRP233      0.0012
    118  CZ2        0.5010  -57.7530  -20.6800 C.ar  233  TRP233      0.0191
    119  CZ3        0.8620  -56.7610  -22.8510 C.ar  233  TRP233      0.0001
    120  CH2        0.5970  -57.8690  -22.0410 C.ar  233  TRP233      0.0015
    121  N          7.9190  -52.1450  -19.0540 N.3   290  PHE290     -0.1241
    122  CA         6.6150  -52.7580  -19.2690 C.3   290  PHE290      0.1605
    123  C          5.5970  -51.7820  -19.9000 C.2   290  PHE290      0.2264
    124  O          4.4040  -51.8500  -19.6160 O.2   290  PHE290     -0.2867
    125  CB         6.0910  -53.3540  -17.9450 C.3   290  PHE290      0.0534
    126  CG         5.5070  -54.7350  -18.0870 C.ar  290  PHE290     -0.0203
    127  CD1        4.5500  -55.0040  -19.0580 C.ar  290  PHE290     -0.0042
    128  CD2        5.9270  -55.7660  -17.2580 C.ar  290  PHE290     -0.0042
    129  CE1        4.0070  -56.2690  -19.1890 C.ar  290  PHE290     -0.0003
    130  CE2        5.3920  -57.0390  -17.3850 C.ar  290  PHE290     -0.0003
    131  CZ         4.4370  -57.2940  -18.3530 C.ar  290  PHE290     -0.0000
    132  N          4.6080  -50.2250  -23.8910 N.3   292  PHE292     -0.1241
    133  CA         4.8880  -50.4120  -25.3020 C.3   292  PHE292      0.1605
    134  C          4.0310  -49.4580  -26.1290 C.2   292  PHE292      0.2264
    135  O          2.8770  -49.1970  -25.7970 O.2   292  PHE292     -0.2867
    136  CB         4.6570  -51.8770  -25.6650 C.3   292  PHE292      0.0534
    137  CG         5.1370  -52.8300  -24.5990 C.ar  292  PHE292     -0.0203
    138  CD1        6.4920  -53.0350  -24.3960 C.ar  292  PHE292     -0.0042
    139  CD2        4.2350  -53.4930  -23.7760 C.ar  292  PHE292     -0.0042
    140  CE1        6.9410  -53.8970  -23.3940 C.ar  292  PHE292     -0.0003
    141  CE2        4.6740  -54.3610  -22.7920 C.ar  292  PHE292     -0.0003
    142  CZ         6.0310  -54.5590  -22.6010 C.ar  292  PHE292     -0.0000
    143  N         12.5140  -59.9910  -15.1590 N.3   332  TYR332     -0.1227
    144  CA        13.0100  -59.8150  -16.5210 C.3   332  TYR332      0.1736
    145  C         12.9640  -58.3580  -16.9530 C.2   332  TYR332      0.2595
    146  O         13.8660  -57.8730  -17.6220 O.2   332  TYR332     -0.2718
    147  CB        12.2210  -60.6800  -17.5010 C.3   332  TYR332      0.0548
    148  CG        12.5080  -60.3690  -18.9460 C.ar  332  TYR332     -0.0200
    149  CD1       13.6970  -60.7620  -19.5380 C.ar  332  TYR332     -0.0009
    150  CD2       11.5860  -59.6760  -19.7230 C.ar  332  TYR332     -0.0009
    151  CE1       13.9590  -60.4830  -20.8690 C.ar  332  TYR332      0.0417
    152  CE2       11.8400  -59.3830  -21.0490 C.ar  332  TYR332      0.0417
    153  CZ        13.0280  -59.7920  -21.6200 C.ar  332  TYR332      0.1957
    154  OH        13.2810  -59.5100  -22.9460 O.3   332  TYR332     -0.2866
    155  N         11.9240  -57.6530  -16.5330 N.am  333  PHE333     -0.1976
    156  CA        11.7000  -56.2900  -16.9890 C.3   333  PHE333      0.1639
    157  C         12.6040  -55.2540  -16.3360 C.2   333  PHE333      0.2290
    158  O         12.8190  -54.1750  -16.8890 O.2   333  PHE333     -0.2864
    159  CB        10.2200  -55.9460  -16.8610 C.3   333  PHE333      0.0560
    160  CG         9.3510  -56.8320  -17.6990 C.ar  333  PHE333     -0.0200
    161  CD1        8.8170  -58.0020  -17.1730 C.ar  333  PHE333     -0.0042
    162  CD2        9.1310  -56.5390  -19.0360 C.ar  333  PHE333     -0.0042
    163  CE1        8.0430  -58.8390  -17.9540 C.ar  333  PHE333     -0.0003
    164  CE2        8.3570  -57.3750  -19.8380 C.ar  333  PHE333     -0.0003
    165  CZ         7.8130  -58.5250  -19.2970 C.ar  333  PHE333     -0.0000
    166  N         15.8210  -54.1160  -18.1480 N.3   336  TYR336     -0.1241
    167  CA        15.5800  -53.3450  -19.3610 C.3   336  TYR336      0.1605
    168  C         15.2100  -51.8950  -19.0710 C.2   336  TYR336      0.2264
    169  O         14.3770  -51.3240  -19.7760 O.2   336  TYR336     -0.2867
    170  CB        14.4710  -53.9870  -20.1960 C.3   336  TYR336      0.0534
    171  CG        14.9350  -55.1700  -21.0050 C.ar  336  TYR336     -0.0201
    172  CD1       15.2110  -55.0430  -22.3640 C.ar  336  TYR336     -0.0009
    173  CD2       15.1070  -56.4140  -20.4110 C.ar  336  TYR336     -0.0009
    174  CE1       15.6440  -56.1290  -23.1130 C.ar  336  TYR336      0.0417
    175  CE2       15.5440  -57.5060  -21.1470 C.ar  336  TYR336      0.0417
    176  CZ        15.8130  -57.3590  -22.4970 C.ar  336  TYR336      0.1957
    177  OH        16.2490  -58.4460  -23.2230 O.3   336  TYR336     -0.2866
    178  N          9.5610  -64.0010  -16.5260 N.3   442  HIS442     -0.1226
    179  CA         8.5020  -63.9170  -17.5150 C.3   442  HIS442      0.1752
    180  C          8.8690  -64.6570  -18.8090 C.2   442  HIS442      0.2596
    181  O          9.9140  -64.4100  -19.4110 O.2   442  HIS442     -0.2718
    182  CB         8.2500  -62.4410  -17.8120 C.3   442  HIS442      0.0759
    183  CG         6.9560  -62.1690  -18.5050 C.ar  442  HIS442      0.0818
    184  ND1        5.7340  -62.4210  -17.9220 N.ar  442  HIS442     -0.2268
    185  CD2        6.6930  -61.6530  -19.7270 C.ar  442  HIS442      0.1154
    186  CE1        4.7720  -62.0760  -18.7580 C.ar  442  HIS442      0.1986
    187  NE2        5.3290  -61.6000  -19.8570 N.ar  442  HIS442     -0.2212
    188  N          8.0110  -65.5860  -19.2130 N.am  443  GLY443     -0.1957
    189  CA         8.1720  -66.2680  -20.4770 C.3   443  GLY443      0.1869
    190  C          8.8150  -67.6380  -20.4260 C.2   443  GLY443      0.2309
    191  O          8.9130  -68.3140  -21.4450 O.2   443  GLY443     -0.2863
@<TRIPOS>BOND
     1    71    70    2
     2    72    73    1
     3    32    33    2
     4    32    31    1
     5    70    69    1
     6    73    74    1
     7    73    76    1
     8    79    77    1
     9    74    75    2
    10    53    52    2
    11    34    31    1
    12    34    35    1
    13    77    76    1
    14    77    78    1
    15    31    30    1
    16    68    69    1
    17    68    64   am
    18    83    82    2
    19    63    64    1
    20    63    62    1
    21    63    66    1
    22    52    62   am
    23    52    51    1
    24    64    65    2
    25    35    37   am
    26    35    36    2
    27    82    81    1
    28    51    54    1
    29    51    50    1
    30    84    81    1
    31    84    85    1
    32    19    18    2
    33    66    67    1
    34    30    18   am
    35     1     2    1
    36    87    85   ar
    37    87    89   ar
    38    18    17    1
    39    54    55    1
    40    81    80    1
    41    85    86   ar
    42     4     3    2
    43    89    90   ar
    44    56    55   ar
    45    56    58   ar
    46     3     2    1
    47     2     5    1
    48    55    57   ar
    49    17    16    1
    50    17    20    1
    51    58    60   ar
    52    41    40    2
    53    86    88   ar
    54    90    88   ar
    55    90    91    1
    56     5     6    1
    57    45    44    2
    58    12    11    2
    59    57    59   ar
    60    20    21    1
    61    38    39    1
    62    40    39    1
    63    40    42   am
    64    43    44    1
    65    43    42    1
    66    60    59   ar
    67    60    61    1
    68    11    10    1
    69    44    46   am
    70    14    13    1
    71    49    48    2
    72    48    47    1
    73     6     8   ar
    74     6     7   ar
    75    26    23   ar
    76    26    28   ar
    77    21    23   ar
    78    21    22   ar
    79    46    47    1
    80    13    10    1
    81    13    15    1
    82   134   135    2
    83   134   133    1
    84    10     9    1
    85    23    25   ar
    86    28    29   ar
    87   136   133    1
    88   136   137    1
    89    22    24   ar
    90   133   132    1
    91    25    24   ar
    92    25    27   ar
    93   137   138   ar
    94   137   139   ar
    95    95    94    2
    96   138   140   ar
    97    29    27   ar
    98    92    93    1
    99   139   141   ar
   100   140   142   ar
   101    99    98   ar
   102    94    93    1
   103    94   101   am
   104   177   176    1
   105    93    96    1
   106   174   176   ar
   107   174   172   ar
   108    96    97    1
   109   103   104    2
   110   103   102    1
   111   110   109    2
   112   154   153    1
   113   119   117   ar
   114   119   120   ar
   115   141   142   ar
   116   176   175   ar
   117   105   102    1
   118   105   106    1
   119   172   171   ar
   120   117   114   ar
   121   101   102    1
   122    98    97    1
   123    98   100   ar
   124   120   118   ar
   125   109   108    1
   126   153   152   ar
   127   153   151   ar
   128   191   190    2
   129   175   173   ar
   130   152   150   ar
   131   171   173   ar
   132   171   170    1
   133   114   116   ar
   134   114   112   ar
   135   151   149   ar
   136   118   116   ar
   137   108   111    1
   138   108   107    1
   139   189   190    1
   140   189   188    1
   141   111   112    1
   142   170   167    1
   143   116   115   ar
   144   112   113   ar
   145   123   124    2
   146   123   122    1
   147   187   185   ar
   148   187   186   ar
   149   164   165   ar
   150   164   162   ar
   151   169   168    2
   152   185   183   ar
   153   150   148   ar
   154   149   148   ar
   155   181   180    2
   156   167   168    1
   157   167   166    1
   158   165   163   ar
   159   122   121    1
   160   122   125    1
   161   188   180   am
   162   129   127   ar
   163   129   131   ar
   164   127   126   ar
   165   162   160   ar
   166   148   147    1
   167   115   113   ar
   168   180   179    1
   169   186   184   ar
   170   183   184   ar
   171   183   182    1
   172   131   130   ar
   173   126   125    1
   174   126   128   ar
   175   163   161   ar
   176   182   179    1
   177   160   161   ar
   178   160   159    1
   179   146   145    2
   180   179   178    1
   181   147   144    1
   182   130   128   ar
   183   156   159    1
   184   156   155    1
   185   156   157    1
   186   145   155   am
   187   145   144    1
   188   158   157    2
   189   144   143    1
