@<TRIPOS>MOLECULE
tmp/4ey7B01.pdb
 208 208 0 0 0
SMALL
GASTEIGER

@<TRIPOS>ATOM
      1  N         10.6370  -54.6680  -34.1170 N.3    69  TYR69      -0.1241
      2  CA        11.8640  -54.3250  -33.4370 C.3    69  TYR69       0.1605
      3  C         12.6340  -55.6000  -33.0870 C.2    69  TYR69       0.2264
      4  O         12.0370  -56.6230  -32.7500 O.2    69  TYR69      -0.2867
      5  CB        11.5190  -53.5300  -32.1760 C.3    69  TYR69       0.0534
      6  CG        12.6860  -53.2950  -31.2490 C.ar   69  TYR69      -0.0201
      7  CD1       13.6410  -52.3240  -31.5350 C.ar   69  TYR69      -0.0009
      8  CD2       12.8300  -54.0360  -30.0860 C.ar   69  TYR69      -0.0009
      9  CE1       14.7110  -52.1010  -30.6840 C.ar   69  TYR69       0.0417
     10  CE2       13.8960  -53.8250  -29.2360 C.ar   69  TYR69       0.0417
     11  CZ        14.8350  -52.8550  -29.5380 C.ar   69  TYR69       0.1957
     12  OH        15.9020  -52.6430  -28.6910 O.3    69  TYR69      -0.2866
     13  N         15.4470  -57.1490  -30.5030 N.3    71  ASP71      -0.1239
     14  CA        16.0150  -56.8560  -29.1850 C.3    71  ASP71       0.1674
     15  C         17.5410  -56.9150  -29.1980 C.2    71  ASP71       0.2266
     16  O         18.1260  -57.9600  -29.4680 O.2    71  ASP71      -0.2867
     17  CB        15.4680  -57.8460  -28.1460 C.3    71  ASP71       0.1410
     18  CG        15.8470  -57.4800  -26.7150 C.2    71  ASP71       0.3668
     19  OD1       16.7560  -56.6520  -26.5010 O.co2  71  ASP71      -0.2456
     20  OD2       15.2260  -58.0360  -25.7910 O.co2  71  ASP71      -0.2456
     21  N         14.1860  -64.9650  -28.4920 N.3    83  TRP83      -0.1241
     22  CA        12.8790  -64.3350  -28.6890 C.3    83  TRP83       0.1605
     23  C         12.8540  -63.5000  -29.9620 C.2    83  TRP83       0.2264
     24  O         11.7980  -63.0730  -30.4280 O.2    83  TRP83      -0.2867
     25  CB        12.5360  -63.4420  -27.4870 C.3    83  TRP83       0.0550
     26  CG        12.5640  -64.1650  -26.1860 C.ar   83  TRP83       0.0003
     27  CD1       13.5440  -64.1120  -25.2340 C.ar   83  TRP83       0.0946
     28  CD2       11.5780  -65.0780  -25.6960 C.ar   83  TRP83       0.0152
     29  NE1       13.2200  -64.9240  -24.1780 N.ar   83  TRP83      -0.2442
     30  CE2       12.0180  -65.5310  -24.4370 C.ar   83  TRP83       0.0810
     31  CE3       10.3590  -65.5470  -26.1950 C.ar   83  TRP83       0.0012
     32  CZ2       11.2760  -66.4250  -23.6650 C.ar   83  TRP83       0.0191
     33  CZ3        9.6290  -66.4430  -25.4310 C.ar   83  TRP83       0.0001
     34  CH2       10.0900  -66.8710  -24.1800 C.ar   83  TRP83       0.0015
     35  N          3.0430  -64.2820  -27.5740 N.3   117  GLY117     -0.1210
     36  CA         3.1840  -62.9870  -26.9280 C.3   117  GLY117      0.1956
     37  C          4.3580  -62.1960  -27.4860 C.2   117  GLY117      0.2612
     38  O          4.8600  -62.4880  -28.5790 O.2   117  GLY117     -0.2717
     39  N          4.7970  -61.1850  -26.7410 N.am  118  GLY118     -0.1956
     40  CA         5.8310  -60.2840  -27.2210 C.3   118  GLY118      0.1869
     41  C          5.4010  -58.8240  -27.1850 C.2   118  GLY118      0.2309
     42  O          5.8330  -58.0190  -28.0170 O.2   118  GLY118     -0.2863
     43  N          4.4580  -55.9540  -29.8600 N.3   121  TYR121     -0.1227
     44  CA         5.4330  -55.2720  -30.7230 C.3   121  TYR121      0.1736
     45  C          6.3910  -56.2530  -31.4010 C.2   121  TYR121      0.2596
     46  O          7.2070  -55.8500  -32.2310 O.2   121  TYR121     -0.2718
     47  CB         6.2620  -54.2350  -29.9410 C.3   121  TYR121      0.0548
     48  CG         7.2360  -54.8670  -28.9720 C.ar  121  TYR121     -0.0200
     49  CD1        8.5360  -55.1840  -29.3580 C.ar  121  TYR121     -0.0009
     50  CD2        6.8480  -55.1700  -27.6770 C.ar  121  TYR121     -0.0009
     51  CE1        9.4110  -55.7870  -28.4850 C.ar  121  TYR121      0.0417
     52  CE2        7.7180  -55.7680  -26.7910 C.ar  121  TYR121      0.0417
     53  CZ         8.9960  -56.0760  -27.2000 C.ar  121  TYR121      0.1957
     54  OH         9.8530  -56.6740  -26.3140 O.3   121  TYR121     -0.2866
     55  N          6.3130  -57.5230  -31.0160 N.am  122  SER122     -0.1952
     56  CA         7.2700  -58.5300  -31.4640 C.3   122  SER122      0.1924
     57  C          6.6490  -59.9100  -31.3610 C.2   122  SER122      0.2314
     58  O          5.5250  -60.0530  -30.8880 O.2   122  SER122     -0.2863
     59  CB         8.5320  -58.4980  -30.5940 C.3   122  SER122      0.2116
     60  OG         8.2250  -58.7740  -29.2310 O.3   122  SER122     -0.2180
     61  N          7.9720  -72.4460  -29.7430 N.3   130  TYR130     -0.1241
     62  CA         6.5380  -72.6570  -30.0380 C.3   130  TYR130      0.1605
     63  C          6.3070  -73.8300  -30.9930 C.2   130  TYR130      0.2264
     64  O          5.2330  -73.9590  -31.5840 O.2   130  TYR130     -0.2867
     65  CB         5.8730  -71.3980  -30.6320 C.3   130  TYR130      0.0534
     66  CG         6.0770  -70.1190  -29.8430 C.ar  130  TYR130     -0.0201
     67  CD1        6.1190  -70.1300  -28.4560 C.ar  130  TYR130     -0.0009
     68  CD2        6.2360  -68.9010  -30.4940 C.ar  130  TYR130     -0.0009
     69  CE1        6.3180  -68.9590  -27.7380 C.ar  130  TYR130      0.0417
     70  CE2        6.4380  -67.7280  -29.7900 C.ar  130  TYR130      0.0417
     71  CZ         6.4800  -67.7620  -28.4130 C.ar  130  TYR130      0.1957
     72  OH         6.6780  -66.6040  -27.7060 O.3   130  TYR130     -0.2866
     73  N          0.4100  -66.5890  -24.3020 N.3   199  GLU199     -0.1231
     74  CA         1.2120  -66.1830  -23.1610 C.3   199  GLU199      0.1699
     75  C          1.5180  -64.7080  -23.3360 C.2   199  GLU199      0.2592
     76  O          1.6600  -64.2520  -24.4640 O.2   199  GLU199     -0.2718
     77  CB         2.4920  -67.0290  -23.0780 C.3   199  GLU199      0.0402
     78  CG         3.3800  -66.7520  -21.8950 C.3   199  GLU199      0.1161
     79  CD         4.3430  -65.5930  -22.1200 C.2   199  GLU199      0.3649
     80  OE1        4.4860  -65.1450  -23.2780 O.co2 199  GLU199     -0.2457
     81  OE2        4.9500  -65.1200  -21.1280 O.co2 199  GLU199     -0.2457
     82  N          1.6270  -63.9880  -22.2160 N.am  200  SER200     -0.1952
     83  CA         1.7170  -62.5250  -22.1810 C.3   200  SER200      0.1924
     84  C          0.7280  -61.8330  -23.1270 C.2   200  SER200      0.2314
     85  O         -0.4810  -61.9610  -22.9570 O.2   200  SER200     -0.2863
     86  CB         3.1570  -62.0320  -22.3820 C.3   200  SER200      0.2116
     87  OG         3.6440  -62.3420  -23.6710 O.3   200  SER200     -0.2180
     88  N          9.9630  -46.9030  -30.1050 N.3   281  TRP281     -0.1241
     89  CA        10.0910  -46.7040  -28.6640 C.3   281  TRP281      0.1605
     90  C         10.0670  -45.2370  -28.2430 C.2   281  TRP281      0.2264
     91  O          9.8620  -44.9290  -27.0650 O.2   281  TRP281     -0.2867
     92  CB        11.3330  -47.4210  -28.1320 C.3   281  TRP281      0.0550
     93  CG        11.2190  -48.9070  -28.3150 C.ar  281  TRP281      0.0003
     94  CD1       11.7040  -49.6470  -29.3570 C.ar  281  TRP281      0.0946
     95  CD2       10.5400  -49.8290  -27.4500 C.ar  281  TRP281      0.0152
     96  NE1       11.3830  -50.9760  -29.1880 N.ar  281  TRP281     -0.2442
     97  CE2       10.6700  -51.1150  -28.0260 C.ar  281  TRP281      0.0810
     98  CE3        9.8450  -49.6950  -26.2430 C.ar  281  TRP281      0.0012
     99  CZ2       10.1270  -52.2600  -27.4340 C.ar  281  TRP281      0.0191
    100  CZ3        9.3050  -50.8370  -25.6500 C.ar  281  TRP281      0.0001
    101  CH2        9.4510  -52.1010  -26.2460 C.ar  281  TRP281      0.0015
    102  N          6.6830  -43.4570  -26.4770 N.3   284  LEU284     -0.1245
    103  CA         6.2730  -43.6660  -25.0910 C.3   284  LEU284      0.1561
    104  C          6.4850  -42.3720  -24.3080 C.2   284  LEU284      0.2260
    105  O          7.5810  -41.8110  -24.3080 O.2   284  LEU284     -0.2867
    106  CB         7.0230  -44.8380  -24.4490 C.3   284  LEU284      0.0270
    107  CG         6.6520  -46.2370  -24.9690 C.3   284  LEU284      0.0019
    108  CD1        7.4290  -47.3250  -24.2480 C.3   284  LEU284      0.0001
    109  CD2        5.1550  -46.5080  -24.8840 C.3   284  LEU284      0.0001
    110  N          9.9770  -46.0050  -18.7710 N.3   288  SER288     -0.1202
    111  CA         9.1850  -47.1300  -18.2890 C.3   288  SER288      0.2020
    112  C          9.8370  -48.4830  -18.5640 C.2   288  SER288      0.2619
    113  O         10.8450  -48.5620  -19.2610 O.2   288  SER288     -0.2717
    114  CB         7.8030  -47.1080  -18.9450 C.3   288  SER288      0.2103
    115  OG         7.8950  -47.4310  -20.3270 O.3   288  SER288     -0.2182
    116  N          9.2630  -49.5380  -17.9840 N.am  289  VAL289     -0.1965
    117  CA         9.4500  -50.9060  -18.4640 C.3   289  VAL289      0.1727
    118  C          8.0610  -51.5310  -18.5370 C.2   289  VAL289      0.2616
    119  O          7.1180  -51.0260  -17.9100 O.2   289  VAL289     -0.2715
    120  CB        10.3510  -51.7620  -17.5550 C.3   289  VAL289      0.0290
    121  CG1       11.7830  -51.2350  -17.5680 C.3   289  VAL289      0.0023
    122  CG2        9.7890  -51.8190  -16.1300 C.3   289  VAL289      0.0023
    123  N          7.9270  -52.6040  -19.3140 N.am  290  PHE290     -0.1960
    124  CA         6.6410  -53.2820  -19.4750 C.3   290  PHE290      0.1771
    125  C          5.5810  -52.3490  -20.0680 C.2   290  PHE290      0.2619
    126  O          4.3930  -52.4670  -19.7540 O.2   290  PHE290     -0.2715
    127  CB         6.1510  -53.8730  -18.1340 C.3   290  PHE290      0.0574
    128  CG         5.4960  -55.2210  -18.2680 C.ar  290  PHE290     -0.0200
    129  CD1        4.6520  -55.5000  -19.3420 C.ar  290  PHE290     -0.0042
    130  CD2        5.7440  -56.2190  -17.3390 C.ar  290  PHE290     -0.0042
    131  CE1        4.0540  -56.7490  -19.4790 C.ar  290  PHE290     -0.0003
    132  CE2        5.1460  -57.4700  -17.4630 C.ar  290  PHE290     -0.0003
    133  CZ         4.3060  -57.7360  -18.5370 C.ar  290  PHE290     -0.0000
    134  N          6.0170  -51.4130  -20.9060 N.am  291  ARG291     -0.1963
    135  CA         5.0940  -50.5830  -21.6770 C.3   291  ARG291      0.1729
    136  C          5.4920  -50.6220  -23.1390 C.2   291  ARG291      0.2616
    137  O          6.6820  -50.5500  -23.4720 O.2   291  ARG291     -0.2715
    138  CB         5.0900  -49.1380  -21.1920 C.3   291  ARG291      0.0348
    139  CG         4.4330  -48.9340  -19.8390 C.3   291  ARG291      0.0492
    140  CD         2.9770  -49.4110  -19.8120 C.3   291  ARG291      0.2205
    141  NE         2.4020  -49.1450  -18.4930 N.pl3 291  ARG291     -0.0865
    142  CZ         2.4410  -49.9910  -17.4650 C.cat 291  ARG291      0.5346
    143  NH1        3.0050  -51.1910  -17.5910 N.pl3 291  ARG291      0.1354
    144  NH2        1.9050  -49.6380  -16.3100 N.pl3 291  ARG291      0.1354
    145  N          4.4930  -50.7240  -24.0090 N.am  292  PHE292     -0.1974
    146  CA         4.7410  -50.9270  -25.4320 C.3   292  PHE292      0.1639
    147  C          3.9180  -49.9340  -26.2520 C.2   292  PHE292      0.2290
    148  O          2.7540  -49.6770  -25.9530 O.2   292  PHE292     -0.2864
    149  CB         4.4270  -52.3800  -25.8110 C.3   292  PHE292      0.0560
    150  CG         4.8090  -53.3690  -24.7410 C.ar  292  PHE292     -0.0200
    151  CD1        6.1410  -53.6440  -24.4770 C.ar  292  PHE292     -0.0042
    152  CD2        3.8350  -54.0010  -23.9750 C.ar  292  PHE292     -0.0042
    153  CE1        6.5000  -54.5420  -23.4750 C.ar  292  PHE292     -0.0003
    154  CE2        4.1870  -54.8950  -22.9760 C.ar  292  PHE292     -0.0003
    155  CZ         5.5240  -55.1680  -22.7310 C.ar  292  PHE292     -0.0000
    156  N         12.3610  -60.1200  -14.9360 N.3   332  TYR332     -0.1227
    157  CA        12.8490  -60.0150  -16.3130 C.3   332  TYR332      0.1736
    158  C         12.8810  -58.5710  -16.7770 C.2   332  TYR332      0.2595
    159  O         13.8410  -58.1220  -17.4050 O.2   332  TYR332     -0.2718
    160  CB        11.9110  -60.7970  -17.2260 C.3   332  TYR332      0.0548
    161  CG        12.5070  -61.3420  -18.5010 C.ar  332  TYR332     -0.0200
    162  CD1       13.5100  -60.6600  -19.1930 C.ar  332  TYR332     -0.0009
    163  CD2       12.0510  -62.5490  -19.0230 C.ar  332  TYR332     -0.0009
    164  CE1       14.0400  -61.1730  -20.3700 C.ar  332  TYR332      0.0417
    165  CE2       12.5780  -63.0740  -20.1880 C.ar  332  TYR332      0.0417
    166  CZ        13.5670  -62.3860  -20.8620 C.ar  332  TYR332      0.1957
    167  OH        14.0740  -62.9260  -22.0240 O.3   332  TYR332     -0.2866
    168  N         11.8250  -57.8400  -16.4460 N.am  333  PHE333     -0.1976
    169  CA        11.6330  -56.4950  -16.9700 C.3   333  PHE333      0.1639
    170  C         12.5600  -55.4450  -16.3770 C.2   333  PHE333      0.2290
    171  O         12.7600  -54.3840  -16.9750 O.2   333  PHE333     -0.2864
    172  CB        10.1700  -56.1000  -16.8290 C.3   333  PHE333      0.0560
    173  CG         9.2750  -56.9070  -17.7000 C.ar  333  PHE333     -0.0200
    174  CD1        8.8110  -58.1420  -17.2750 C.ar  333  PHE333     -0.0042
    175  CD2        8.9620  -56.4750  -18.9800 C.ar  333  PHE333     -0.0042
    176  CE1        8.0120  -58.9140  -18.0990 C.ar  333  PHE333     -0.0003
    177  CE2        8.1610  -57.2400  -19.8120 C.ar  333  PHE333     -0.0003
    178  CZ         7.6890  -58.4660  -19.3680 C.ar  333  PHE333     -0.0000
    179  N         15.5910  -53.8290  -18.2280 N.3   336  TYR336     -0.1227
    180  CA        15.2860  -53.0170  -19.3920 C.3   336  TYR336      0.1736
    181  C         15.0580  -51.5490  -19.0420 C.2   336  TYR336      0.2596
    182  O         14.4680  -50.8110  -19.8370 O.2   336  TYR336     -0.2718
    183  CB        14.0750  -53.5900  -20.1360 C.3   336  TYR336      0.0548
    184  CG        14.4110  -54.8070  -20.9770 C.ar  336  TYR336     -0.0200
    185  CD1       14.6630  -54.6850  -22.3450 C.ar  336  TYR336     -0.0009
    186  CD2       14.4900  -56.0730  -20.4060 C.ar  336  TYR336     -0.0009
    187  CE1       14.9770  -55.7870  -23.1180 C.ar  336  TYR336      0.0417
    188  CE2       14.8060  -57.1870  -21.1700 C.ar  336  TYR336      0.0417
    189  CZ        15.0500  -57.0370  -22.5270 C.ar  336  TYR336      0.1957
    190  OH        15.3690  -58.1370  -23.2890 O.3   336  TYR336     -0.2866
    191  N         15.5040  -51.1160  -17.8620 N.am  337  GLY337     -0.1957
    192  CA        15.3460  -49.7140  -17.5040 C.3   337  GLY337      0.1869
    193  C         15.3130  -49.3090  -16.0380 C.2   337  GLY337      0.2309
    194  O         15.4380  -48.1290  -15.7300 O.2   337  GLY337     -0.2863
    195  N          9.3550  -64.2790  -16.5080 N.3   442  HIS442     -0.1226
    196  CA         8.3210  -64.1650  -17.5200 C.3   442  HIS442      0.1752
    197  C          8.7110  -64.9140  -18.8050 C.2   442  HIS442      0.2596
    198  O          9.8160  -64.7340  -19.3250 O.2   442  HIS442     -0.2718
    199  CB         8.1510  -62.6780  -17.8110 C.3   442  HIS442      0.0759
    200  CG         6.9420  -62.3460  -18.6170 C.ar  442  HIS442      0.0818
    201  ND1        5.6630  -62.5220  -18.1420 N.ar  442  HIS442     -0.2268
    202  CD2        6.8200  -61.8200  -19.8600 C.ar  442  HIS442      0.1154
    203  CE1        4.8000  -62.1240  -19.0620 C.ar  442  HIS442      0.1986
    204  NE2        5.4780  -61.6980  -20.1120 N.ar  442  HIS442     -0.2212
    205  N          7.8170  -65.7700  -19.2940 N.am  443  GLY443     -0.1957
    206  CA         8.0570  -66.5060  -20.5210 C.3   443  GLY443      0.1869
    207  C          8.6390  -67.9090  -20.3980 C.2   443  GLY443      0.2309
    208  O          8.6010  -68.6830  -21.3560 O.2   443  GLY443     -0.2863
@<TRIPOS>BOND
     1     1     2    1
     2     2     3    1
     3     2     5    1
     4     3     4    2
     5    46    45    2
     6     5     6    1
     7    64    63    2
     8     7     6   ar
     9     7     9   ar
    10    56    57    1
    11    56    55    1
    12    56    59    1
    13    45    55   am
    14    45    44    1
    15    57    58    2
    16     6     8   ar
    17    63    62    1
    18    44    47    1
    19    44    43    1
    20     9    11   ar
    21    65    62    1
    22    65    66    1
    23    59    60    1
    24    13    14    1
    25    68    66   ar
    26    68    70   ar
    27    24    23    2
    28    88    89    1
    29     8    10   ar
    30    62    61    1
    31    23    22    1
    32    47    48    1
    33    66    67   ar
    34    70    71   ar
    35    11    10   ar
    36    11    12    1
    37    16    15    2
    38    49    48   ar
    39    49    51   ar
    40    94    96   ar
    41    94    93   ar
    42    15    14    1
    43    96    97   ar
    44    14    17    1
    45    48    50   ar
    46    22    21    1
    47    22    25    1
    48    89    90    1
    49    89    92    1
    50    38    37    2
    51    51    53   ar
    52    67    69   ar
    53    71    69   ar
    54    71    72    1
    55    93    92    1
    56    93    95   ar
    57    90    91    2
    58    17    18    1
    59    97    95   ar
    60    97    99   ar
    61    42    41    2
    62    50    52   ar
    63    35    36    1
    64    25    26    1
    65    37    36    1
    66    37    39   am
    67    95    98   ar
    68    99   101   ar
    69    40    41    1
    70    40    39    1
    71    53    52   ar
    72    53    54    1
    73    18    19   ar
    74    18    20   ar
    75   102   103    1
    76   147   148    2
    77   147   146    1
    78   101   100   ar
    79    98   100   ar
    80    31    28   ar
    81    31    33   ar
    82    26    28   ar
    83    26    27   ar
    84   149   146    1
    85   149   150    1
    86    28    30   ar
    87   146   145    1
    88    33    34   ar
    89    27    29   ar
    90   103   106    1
    91   103   104    1
    92   107   109    1
    93   107   106    1
    94   107   108    1
    95   150   151   ar
    96   150   152   ar
    97   151   153   ar
    98    76    75    2
    99    30    29   ar
   100    30    32   ar
   101   104   105    2
   102    73    74    1
   103    34    32   ar
   104   145   136   am
   105   152   154   ar
   106    87    86    1
   107   153   155   ar
   108   137   136    2
   109    75    74    1
   110    75    82   am
   111   190   189    1
   112    80    79   ar
   113    74    77    1
   114   136   135    1
   115    84    85    2
   116    84    83    1
   117   187   189   ar
   118   187   185   ar
   119    77    78    1
   120   154   155   ar
   121   189   188   ar
   122    86    83    1
   123   185   184   ar
   124    82    83    1
   125    79    78    1
   126    79    81   ar
   127   167   166    1
   128   135   138    1
   129   135   134    1
   130   208   207    2
   131   138   139    1
   132   188   186   ar
   133   184   186   ar
   134   184   183    1
   135   134   125   am
   136   166   164   ar
   137   166   165   ar
   138   206   207    1
   139   206   205    1
   140   164   162   ar
   141   115   114    1
   142   165   163   ar
   143   183   180    1
   144   204   202   ar
   145   204   203   ar
   146   125   126    2
   147   125   124    1
   148   202   200   ar
   149   139   140    1
   150   182   181    2
   151   140   141    1
   152   177   178   ar
   153   177   175   ar
   154   131   129   ar
   155   131   133   ar
   156   124   123    1
   157   124   127    1
   158   180   181    1
   159   180   179    1
   160   178   176   ar
   161   129   128   ar
   162   198   197    2
   163   123   118   am
   164   205   197   am
   165   113   112    2
   166   162   161   ar
   167   203   201   ar
   168   181   191   am
   169   163   161   ar
   170   175   173   ar
   171   114   111    1
   172   197   196    1
   173   110   111    1
   174   200   201   ar
   175   200   199    1
   176   112   111    1
   177   112   116   am
   178   118   117    1
   179   118   119    2
   180   133   132   ar
   181   161   160    1
   182   141   142    2
   183   117   116    1
   184   117   120    1
   185   128   127    1
   186   128   130   ar
   187   176   174   ar
   188   191   192    1
   189   199   196    1
   190   173   174   ar
   191   173   172    1
   192   143   142    1
   193   121   120    1
   194   120   122    1
   195   196   195    1
   196   192   193    1
   197   142   144    1
   198   132   130   ar
   199   159   158    2
   200   160   157    1
   201   171   170    2
   202   169   172    1
   203   169   168    1
   204   169   170    1
   205   158   168   am
   206   158   157    1
   207   157   156    1
   208   193   194    2
