@<TRIPOS>MOLECULE
tmp/4ey8A00.pdb
 76 74 0 0 0
SMALL
GASTEIGER

@<TRIPOS>ATOM
      1  N        -34.1880  -24.4100   40.1690 N.3   332  GLY332     -0.1210
      2  CA       -35.0880  -25.1200   39.2690 C.3   332  GLY332      0.1956
      3  C        -36.0300  -24.3440   38.3570 C.2   332  GLY332      0.2612
      4  O        -36.5960  -24.9250   37.4390 O.2   332  GLY332     -0.2717
      5  N        -36.2330  -23.0550   38.6050 N.am  333  ALA333     -0.1966
      6  CA       -37.0710  -22.2560   37.7140 C.3   333  ALA333      0.1713
      7  C        -36.3820  -22.1130   36.3590 C.2   333  ALA333      0.2458
      8  O        -35.2050  -21.7330   36.2860 O.2   333  ALA333     -0.2730
      9  CB       -37.3850  -20.8870   38.3080 C.3   333  ALA333      0.0333
     10  N        -37.1160  -22.4330   35.2800 N.am  334  PRO334     -0.2716
     11  CA       -36.5680  -22.4480   33.9160 C.3   334  PRO334      0.1536
     12  C        -36.0660  -21.0720   33.5250 C.2   334  PRO334      0.2599
     13  O        -36.7970  -20.0990   33.7020 O.2   334  PRO334     -0.2715
     14  CB       -37.7710  -22.8400   33.0530 C.3   334  PRO334      0.0310
     15  CG       -38.9720  -22.5220   33.8820 C.3   334  PRO334      0.0237
     16  CD       -38.5550  -22.7480   35.3130 C.3   334  PRO334      0.0939
     17  N        -34.8280  -20.9970   33.0370 N.am  335  GLY335     -0.1941
     18  CA       -34.2390  -19.7460   32.5900 C.3   335  GLY335      0.2014
     19  C        -33.3640  -19.0310   33.6080 C.2   335  GLY335      0.2639
     20  O        -32.7130  -18.0330   33.2840 O.2   335  GLY335     -0.2714
     21  N        -33.3430  -19.5340   34.8410 N.am  336  PHE336     -0.1959
     22  CA       -32.5770  -18.8980   35.9100 C.3   336  PHE336      0.1771
     23  C        -31.2240  -19.5430   36.1900 C.2   336  PHE336      0.2620
     24  O        -31.1230  -20.7540   36.3990 O.2   336  PHE336     -0.2715
     25  CB       -33.3890  -18.8510   37.1970 C.3   336  PHE336      0.0574
     26  CG       -34.4930  -17.8470   37.1720 C.ar  336  PHE336     -0.0200
     27  CD1      -34.2670  -16.5450   37.5880 C.ar  336  PHE336     -0.0042
     28  CD2      -35.7590  -18.2030   36.7370 C.ar  336  PHE336     -0.0042
     29  CE1      -35.2880  -15.6090   37.5820 C.ar  336  PHE336     -0.0003
     30  CE2      -36.7860  -17.2730   36.7230 C.ar  336  PHE336     -0.0003
     31  CZ       -36.5510  -15.9740   37.1470 C.ar  336  PHE336     -0.0000
     32  N        -30.1960  -18.7030   36.2060 N.am  337  SER337     -0.1950
     33  CA       -28.8400  -19.1060   36.5320 C.3   337  SER337      0.1924
     34  C        -28.1580  -17.8910   37.1390 C.2   337  SER337      0.2314
     35  O        -28.5690  -16.7550   36.8840 O.2   337  SER337     -0.2863
     36  CB       -28.1000  -19.5450   35.2670 C.3   337  SER337      0.2116
     37  OG       -26.7590  -19.9050   35.5410 O.3   337  SER337     -0.2180
     38  N        -25.1580  -17.2960   36.4430 N.3   339  ASP339     -0.1225
     39  CA       -24.0460  -17.0960   35.5160 C.3   339  ASP339      0.1805
     40  C        -24.4210  -16.2720   34.2780 C.2   339  ASP339      0.2597
     41  O        -23.5870  -16.0180   33.4130 O.2   339  ASP339     -0.2718
     42  CB       -23.4190  -18.4380   35.1410 C.3   339  ASP339      0.1424
     43  CG       -22.6280  -19.0540   36.2850 C.2   339  ASP339      0.3668
     44  OD1      -21.8330  -18.3230   36.9200 O.co2 339  ASP339     -0.2456
     45  OD2      -22.7990  -20.2660   36.5530 O.co2 339  ASP339     -0.2456
     46  N        -25.6850  -15.8660   34.2050 N.am  340  ASN340     -0.1974
     47  CA       -26.1170  -14.8030   33.2980 C.3   340  ASN340      0.1688
     48  C        -27.2210  -13.9840   33.9660 C.2   340  ASN340      0.2292
     49  O        -27.4810  -14.1650   35.1540 O.2   340  ASN340     -0.2864
     50  CB       -26.5220  -15.3310   31.9090 C.3   340  ASN340      0.1181
     51  CG       -27.7200  -16.2780   31.9400 C.2   340  ASN340      0.2629
     52  OD1      -28.6680  -16.1050   32.7150 O.2   340  ASN340     -0.2716
     53  ND2      -27.6850  -17.2780   31.0560 N.am  340  ASN340     -0.0877
     54  N        -30.4240  -13.9840   33.5250 N.3   342  SER342     -0.1202
     55  CA       -31.7180  -14.6610   33.6260 C.3   342  SER342      0.2020
     56  C        -32.8810  -13.8000   33.1060 C.2   342  SER342      0.2618
     57  O        -33.8940  -13.6320   33.7930 O.2   342  SER342     -0.2717
     58  CB       -31.9960  -15.1010   35.0740 C.3   342  SER342      0.2103
     59  OG       -30.9130  -15.8290   35.6490 O.3   342  SER342     -0.2182
     60  N        -32.7130  -13.2500   31.9030 N.am  343  LEU343     -0.1979
     61  CA       -33.7710  -12.5150   31.2160 C.3   343  LEU343      0.1596
     62  C        -34.7560  -13.4880   30.5740 C.2   343  LEU343      0.2287
     63  O        -34.6350  -13.8370   29.4040 O.2   343  LEU343     -0.2864
     64  CB       -33.1700  -11.5820   30.1630 C.3   343  LEU343      0.0297
     65  CG       -32.5150  -10.3630   30.8120 C.3   343  LEU343      0.0022
     66  CD1      -31.3880   -9.8100   29.9740 C.3   343  LEU343      0.0001
     67  CD2      -33.5700   -9.3040   31.0670 C.3   343  LEU343      0.0001
     68  N        -41.3070  -18.9780   30.0010 N.3   348  GLU348     -0.1245
     69  CA       -40.5600  -19.4230   31.1850 C.3   348  GLU348      0.1567
     70  C        -41.2140  -18.9270   32.4840 C.2   348  GLU348      0.2260
     71  O        -41.4230  -19.6960   33.4140 O.2   348  GLU348     -0.2867
     72  CB       -39.0890  -18.9860   31.0940 C.3   348  GLU348      0.0388
     73  CG       -38.2560  -19.8460   30.1420 C.3   348  GLU348      0.1160
     74  CD       -36.9390  -19.2030   29.7590 C.2   348  GLU348      0.3649
     75  OE1      -36.9010  -17.9530   29.6400 O.co2 348  GLU348     -0.2457
     76  OE2      -35.9450  -19.9500   29.5770 O.co2 348  GLU348     -0.2457
@<TRIPOS>BOND
     1    63    62    2
     2    76    74   ar
     3    75    74   ar
     4    74    73    1
     5    66    65    1
     6    68    69    1
     7    73    72    1
     8    64    65    1
     9    64    61    1
    10    62    61    1
    11    65    67    1
    12    53    51   am
    13    72    69    1
    14    69    70    1
    15    61    60    1
    16    60    56   am
    17    50    51    1
    18    50    47    1
    19    51    52    2
    20    70    71    2
    21    18    17    1
    22    18    19    1
    23    17    12   am
    24    14    15    1
    25    14    11    1
    26    56    55    1
    27    56    57    2
    28    20    19    2
    29    47    48    1
    30    47    46    1
    31    41    40    2
    32    12    13    2
    33    12    11    1
    34    54    55    1
    35    19    21   am
    36    55    58    1
    37    15    16    1
    38    11    10    1
    39    48    49    2
    40    46    40   am
    41    40    39    1
    42    21    22    1
    43    58    59    1
    44    42    39    1
    45    42    43    1
    46    36    37    1
    47    36    33    1
    48    10    16    1
    49    10     7   am
    50    39    38    1
    51    22    23    1
    52    22    25    1
    53    23    32   am
    54    23    24    2
    55    32    33    1
    56    43    45   ar
    57    43    44   ar
    58     8     7    2
    59     7     6    1
    60    33    34    1
    61    30    28   ar
    62    30    31   ar
    63    28    26   ar
    64    35    34    2
    65    31    29   ar
    66    26    25    1
    67    26    27   ar
    68     4     3    2
    69    29    27   ar
    70     6     9    1
    71     6     5    1
    72     3     5   am
    73     3     2    1
    74     2     1    1
