@<TRIPOS>MOLECULE
tmp/4eybB00.pdb
 140 133 0 0 0
SMALL
GASTEIGER

@<TRIPOS>ATOM
      1  N          5.3720    9.1690   34.8170 N.3     6  ILE6       -0.1245
      2  CA         6.2100   10.3020   35.3050 C.3     6  ILE6        0.1561
      3  C          6.9010    9.9110   36.6020 C.2     6  ILE6        0.2260
      4  O          6.2560    9.3570   37.4790 O.2     6  ILE6       -0.2867
      5  CB         5.3320   11.6020   35.5620 C.3     6  ILE6        0.0252
      6  CG1        4.7950   12.2710   34.3130 C.3     6  ILE6        0.0019
      7  CG2        6.1280   12.6560   36.4010 C.3     6  ILE6        0.0019
      8  CD1        5.8750   12.5040   33.2890 C.3     6  ILE6        0.0001
      9  N          0.4390    7.7700   42.0790 N.3    36  LEU36      -0.1245
     10  CA        -0.9280    8.1400   41.8270 C.3    36  LEU36       0.1561
     11  C         -1.2400    7.7210   40.4080 C.2    36  LEU36       0.2260
     12  O         -0.5970    8.1260   39.4400 O.2    36  LEU36      -0.2867
     13  CB        -1.1000    9.6600   41.8740 C.3    36  LEU36       0.0270
     14  CG        -2.5120   10.1350   41.6350 C.3    36  LEU36       0.0019
     15  CD1       -3.4010    9.8280   42.8250 C.3    36  LEU36       0.0001
     16  CD2       -2.4730   11.6410   41.2570 C.3    36  LEU36       0.0001
     17  N         -3.2480    8.1850   37.3190 N.3    38  MET38      -0.1245
     18  CA        -4.1010    9.1880   36.7050 C.3    38  MET38       0.1570
     19  C         -4.8270    8.6060   35.5180 C.2    38  MET38       0.2261
     20  O         -4.1950    8.0580   34.6100 O.2    38  MET38      -0.2867
     21  CB        -3.2770   10.3740   36.2420 C.3    38  MET38       0.0387
     22  CG        -2.6470   11.0510   37.4070 C.3    38  MET38       0.0595
     23  SD        -2.0310   12.7110   36.9660 S.3    38  MET38      -0.1393
     24  CE        -1.1130   12.4230   35.5090 C.3    38  MET38       0.0692
     25  N          2.0550    8.3070   38.4270 N.3    44  VAL44      -0.1245
     26  CA         3.0060    9.3800   38.6810 C.3    44  VAL44       0.1561
     27  C          3.6400    9.0540   40.0330 C.2    44  VAL44       0.2260
     28  O          2.9600    9.0200   41.0800 O.2    44  VAL44      -0.2867
     29  CB         2.2970   10.7580   38.7140 C.3    44  VAL44       0.0252
     30  CG1        3.3020   11.8780   38.9880 C.3    44  VAL44       0.0019
     31  CG2        1.4770   10.9180   37.4070 C.3    44  VAL44       0.0019
     32  N          0.7790   10.1950   48.3430 N.3    64  TRP64      -0.1241
     33  CA        -0.3900   10.8500   47.7130 C.3    64  TRP64       0.1605
     34  C         -1.6840   10.6720   48.4880 C.2    64  TRP64       0.2264
     35  O         -2.5670   11.5140   48.3870 O.2    64  TRP64      -0.2867
     36  CB        -0.6190   10.2780   46.3210 C.3    64  TRP64       0.0550
     37  CG         0.4690   10.4630   45.3060 C.ar   64  TRP64       0.0003
     38  CD1        1.4670    9.5690   44.9870 C.ar   64  TRP64       0.0946
     39  CD2        0.5810   11.5390   44.3950 C.ar   64  TRP64       0.0152
     40  NE1        2.1960   10.0600   43.9410 N.ar   64  TRP64      -0.2442
     41  CE2        1.6560   11.2330   43.5240 C.ar   64  TRP64       0.0810
     42  CE3       -0.1610   12.7130   44.1750 C.ar   64  TRP64       0.0012
     43  CZ2        2.0420   12.0810   42.4830 C.ar   64  TRP64       0.0191
     44  CZ3        0.1990   13.5290   43.1110 C.ar   64  TRP64       0.0001
     45  CH2        1.2570   13.2300   42.2620 C.ar   64  TRP64       0.0015
     46  N          0.1130   20.5730   48.2740 N.3    93  HIS93      -0.1226
     47  CA        -0.3960   19.8560   47.1220 C.3    93  HIS93       0.1752
     48  C         -0.4820   18.4000   47.4860 C.2    93  HIS93       0.2596
     49  O          0.1290   17.9280   48.4610 O.2    93  HIS93      -0.2718
     50  CB         0.4790   20.0550   45.8680 C.3    93  HIS93       0.0759
     51  CG         0.3190   21.3740   45.2160 C.ar   93  HIS93       0.0818
     52  ND1        1.2300   21.7780   44.2490 N.ar   93  HIS93      -0.2268
     53  CD2       -0.6660   22.2990   45.3150 C.ar   93  HIS93       0.1154
     54  CE1        0.7550   22.9310   43.7410 C.ar   93  HIS93       0.1986
     55  NE2       -0.3580   23.2800   44.3820 N.ar   93  HIS93      -0.2212
     56  N         -1.2460   17.5900   46.7010 N.am   94  GLN94      -0.1965
     57  CA        -1.5350   16.2080   47.1030 C.3    94  GLN94       0.1733
     58  C         -0.3180   15.2950   47.2000 C.2    94  GLN94       0.2616
     59  O         -0.2990   14.4530   48.0780 O.2    94  GLN94      -0.2715
     60  CB        -2.5440   15.6210   46.1280 C.3    94  GLN94       0.0408
     61  CG        -3.0960   14.2960   46.6590 C.3    94  GLN94       0.0908
     62  CD        -3.9930   13.5770   45.6640 C.2    94  GLN94       0.2608
     63  OE1       -4.4690   14.1350   44.7290 O.2    94  GLN94      -0.2717
     64  NE2       -4.2000   12.3020   45.9160 N.am   94  GLN94      -0.0878
     65  N          0.6570   15.4590   46.3270 N.am   95  ASP95      -0.1971
     66  CA         1.8220   14.5750   46.3820 C.3    95  ASP95       0.1709
     67  C          2.5680   14.7430   47.7060 C.2    95  ASP95       0.2293
     68  O          3.2330   13.7970   48.1110 O.2    95  ASP95      -0.2864
     69  CB         2.7530   14.7080   45.1840 C.3    95  ASP95       0.1436
     70  CG         3.1350   16.1200   44.7420 C.2    95  ASP95       0.3671
     71  OD1        2.6050   17.1180   45.2620 O.co2  95  ASP95      -0.2456
     72  OD2        4.0140   16.1800   43.8150 O.co2  95  ASP95      -0.2456
     73  N         -6.5470   24.1300   48.8050 N.3   123  GLU123     -0.1231
     74  CA        -5.8970   23.1670   47.9460 C.3   123  GLU123      0.1699
     75  C         -6.4580   21.7480   48.2210 C.2   123  GLU123      0.2593
     76  O         -5.9270   20.7580   47.6960 O.2   123  GLU123     -0.2718
     77  CB        -4.3840   23.1620   48.1830 C.3   123  GLU123      0.0402
     78  CG        -3.7280   24.5000   47.7320 C.3   123  GLU123      0.1161
     79  CD        -3.8480   24.6790   46.2310 C.2   123  GLU123      0.3649
     80  OE1       -3.6950   23.7230   45.4620 O.co2 123  GLU123     -0.2457
     81  OE2       -4.3070   25.7470   45.8750 O.co2 123  GLU123     -0.2457
     82  N         -7.4870   21.5990   49.0220 N.am  124  GLY124     -0.1942
     83  CA        -8.0510   20.2720   49.2600 C.3   124  GLY124      0.2014
     84  C         -7.2710   19.4470   50.2800 C.2   124  GLY124      0.2638
     85  O         -7.5020   18.2770   50.3760 O.2   124  GLY124     -0.2714
     86  N         -6.3530   20.0420   51.0400 N.am  125  MET125     -0.1976
     87  CA        -5.5170   19.3350   51.9700 C.3   125  MET125      0.1605
     88  C         -5.9100   19.6220   53.4200 C.2   125  MET125      0.2287
     89  O         -6.4640   20.6830   53.7290 O.2   125  MET125     -0.2864
     90  CB        -4.0590   19.7980   51.7810 C.3   125  MET125      0.0413
     91  CG        -3.5140   19.5300   50.4250 C.3   125  MET125      0.0598
     92  SD        -3.4370   17.7470   50.0100 S.3   125  MET125     -0.1393
     93  CE        -4.5070   17.6210   48.6440 C.3   125  MET125      0.0692
     94  N          7.9840   26.6950   42.6810 N.3   160  HIS160     -0.1241
     95  CA         6.9180   25.8120   42.2770 C.3   160  HIS160      0.1621
     96  C          5.5760   26.2160   42.8550 C.2   160  HIS160      0.2264
     97  O          4.5530   26.1600   42.1590 O.2   160  HIS160     -0.2867
     98  CB         7.3060   24.3760   42.7320 C.3   160  HIS160      0.0745
     99  CG         6.1840   23.4100   42.6140 C.ar  160  HIS160      0.0817
    100  ND1        5.7540   22.8610   41.4290 N.ar  160  HIS160     -0.2268
    101  CD2        5.3690   22.9070   43.5600 C.ar  160  HIS160      0.1154
    102  CE1        4.6910   22.0840   41.6500 C.ar  160  HIS160      0.1986
    103  NE2        4.4530   22.0490   42.9680 N.ar  160  HIS160     -0.2212
    104  N          9.2330   19.5180   45.1770 N.3   179  CYS179     -0.1235
    105  CA         8.8090   19.7700   43.7730 C.3   179  CYS179      0.1677
    106  C          9.4570   21.0070   43.1390 C.2   179  CYS179      0.2270
    107  O          9.3240   21.2410   41.9740 O.2   179  CYS179     -0.2867
    108  CB         7.3410   19.8670   43.6550 C.3   179  CYS179      0.0956
    109  SG         6.4490   18.4030   44.2880 S.3   179  CYS179     -0.0801
    110  N         14.0120   20.0560   39.8510 N.3   182  LYS182     -0.1245
    111  CA        13.8610   18.9970   38.8340 C.3   182  LYS182      0.1565
    112  C         15.2140   18.4380   38.4950 C.2   182  LYS182      0.2260
    113  O         16.2530   19.0770   38.7180 O.2   182  LYS182     -0.2867
    114  CB        13.1640   19.5300   37.5740 C.3   182  LYS182      0.0317
    115  CG        11.8790   20.2850   37.8030 C.3   182  LYS182      0.0294
    116  CD        10.9090   19.7010   38.7050 C.2   182  LYS182     -0.0067
    117  CE         9.5410   20.2830   38.6560 C.2   182  LYS182      0.1012
    118  NZ         8.5520   19.9140   39.5590 N.pl3 182  LYS182     -0.1270
    119  N          7.7240   20.9550   35.2560 N.3   190  GLY190     -0.1210
    120  CA         6.5440   20.2840   35.7880 C.3   190  GLY190      0.1956
    121  C          5.3540   21.1910   35.7670 C.2   190  GLY190      0.2611
    122  O          5.1910   21.9920   34.8790 O.2   190  GLY190     -0.2717
    123  N          4.4900   21.0990   36.7770 N.am  191  ASN191     -0.1974
    124  CA         3.2630   21.8680   36.7720 C.3   191  ASN191      0.1688
    125  C          3.6090   23.2480   37.2850 C.2   191  ASN191      0.2292
    126  O          3.9560   23.4460   38.4500 O.2   191  ASN191     -0.2864
    127  CB         2.2020   21.2300   37.6640 C.3   191  ASN191      0.1181
    128  CG         0.8170   21.8830   37.4330 C.2   191  ASN191      0.2629
    129  OD1        0.6770   22.8430   36.7010 O.2   191  ASN191     -0.2716
    130  ND2       -0.1880   21.3010   38.0330 N.am  191  ASN191     -0.0877
    131  N         10.1930   13.9470   41.9860 N.3   221  HIS221     -0.1241
    132  CA         9.7150   13.1320   40.8560 C.3   221  HIS221      0.1621
    133  C         10.8450   12.5350   40.0360 C.2   221  HIS221      0.2264
    134  O         10.6330   12.1200   38.8950 O.2   221  HIS221     -0.2867
    135  CB         8.7550   13.9460   39.9820 C.3   221  HIS221      0.0745
    136  CG         7.5810   14.4770   40.7500 C.ar  221  HIS221      0.0817
    137  ND1        6.6370   13.6790   41.3830 N.ar  221  HIS221     -0.2268
    138  CD2        7.2880   15.7510   41.1140 C.ar  221  HIS221      0.1154
    139  CE1        5.7860   14.4590   42.0560 C.ar  221  HIS221      0.1986
    140  NE2        6.1690   15.7240   41.9110 N.ar  221  HIS221     -0.2212
@<TRIPOS>BOND
     1     8     6    1
     2     6     5    1
     3    20    19    2
     4     1     2    1
     5   122   121    2
     6   119   120    1
     7     2     5    1
     8     2     3    1
     9    24    23    1
    10    19    18    1
    11     5     7    1
    12   121   120    1
    13   121   123   am
    14    21    18    1
    15    21    22    1
    16     3     4    2
    17   129   128    2
    18    18    17    1
    19   124   123    1
    20   124   125    1
    21   124   127    1
    22    23    22    1
    23   125   126    2
    24    31    29    1
    25   128   127    1
    26   128   130   am
    27   114   115    1
    28   114   111    1
    29   115   116    1
    30    25    26    1
    31   112   113    2
    32   112   111    1
    33   117   116    2
    34   117   118    1
    35    26    29    1
    36    26    27    1
    37    29    30    1
    38   111   110    1
    39   134   133    2
    40    12    11    2
    41   135   136    1
    42   135   132    1
    43    27    28    2
    44   133   132    1
    45    11    10    1
    46   136   138   ar
    47   136   137   ar
    48   132   131    1
    49   138   140   ar
    50    16    14    1
    51   137   139   ar
    52   100   102   ar
    53   100    99   ar
    54    14    13    1
    55    14    15    1
    56   102   103   ar
    57    10    13    1
    58    10     9    1
    59   140   139   ar
    60   107   106    2
    61    97    96    2
    62    45    43   ar
    63    45    44   ar
    64    95    94    1
    65    95    98    1
    66    95    96    1
    67    43    41   ar
    68    99    98    1
    69    99   101   ar
    70   103   101   ar
    71    44    42   ar
    72   106   105    1
    73    41    40   ar
    74    41    39   ar
    75   108   105    1
    76   108   109    1
    77    54    52   ar
    78    54    55   ar
    79   105   104    1
    80    72    70   ar
    81    40    38   ar
    82    42    39   ar
    83    52    51   ar
    84    55    53   ar
    85    39    37   ar
    86    63    62    2
    87    70    69    1
    88    70    71   ar
    89    38    37   ar
    90    69    66    1
    91    51    53   ar
    92    51    50    1
    93    37    36    1
    94    80    79   ar
    95    62    64   am
    96    62    61    1
    97    50    47    1
    98    81    79   ar
    99    60    61    1
   100    60    57    1
   101    79    78    1
   102    36    33    1
   103    65    66    1
   104    65    58   am
   105    66    67    1
   106    56    57    1
   107    56    48   am
   108    57    58    1
   109    47    48    1
   110    47    46    1
   111    58    59    2
   112    48    49    2
   113    76    75    2
   114    67    68    2
   115    33    32    1
   116    33    34    1
   117    78    77    1
   118    74    77    1
   119    74    75    1
   120    74    73    1
   121    75    82   am
   122    35    34    2
   123    93    92    1
   124    82    83    1
   125    83    84    1
   126    92    91    1
   127    84    85    2
   128    84    86   am
   129    91    90    1
   130    86    87    1
   131    90    87    1
   132    87    88    1
   133    88    89    2
