@<TRIPOS>MOLECULE
tmp/4eyeA00.pdb
 91 87 0 0 0
SMALL
GASTEIGER

@<TRIPOS>ATOM
      1  N         72.2860   21.8360   11.3290 N.3    67  ILE67      -0.1245
      2  CA        73.2060   21.1610   10.4560 C.3    67  ILE67       0.1561
      3  C         72.6960   19.8050   10.0020 C.2    67  ILE67       0.2260
      4  O         73.0770   19.3550    8.9420 O.2    67  ILE67      -0.2867
      5  CB        74.5640   20.9660   11.1320 C.3    67  ILE67       0.0252
      6  CG1       75.2730   22.3220   11.3270 C.3    67  ILE67       0.0019
      7  CG2       75.3600   19.9100   10.3700 C.3    67  ILE67       0.0019
      8  CD1       76.6730   22.1830   11.9840 C.3    67  ILE67       0.0001
      9  N         73.2090   16.6520    5.6090 N.3    91  PHE91      -0.1241
     10  CA        73.8950   17.6630    6.3850 C.3    91  PHE91       0.1605
     11  C         74.2040   18.8760    5.5660 C.2    91  PHE91       0.2264
     12  O         74.5050   18.7480    4.3940 O.2    91  PHE91      -0.2867
     13  CB        75.1080   17.0870    7.0570 C.3    91  PHE91       0.0534
     14  CG        76.1020   16.4550    6.1320 C.ar   91  PHE91      -0.0203
     15  CD1       77.2180   17.1810    5.7350 C.ar   91  PHE91      -0.0042
     16  CD2       75.9990   15.1200    5.7360 C.ar   91  PHE91      -0.0042
     17  CE1       78.1760   16.6220    4.8930 C.ar   91  PHE91      -0.0003
     18  CE2       76.9950   14.5440    4.8920 C.ar   91  PHE91      -0.0003
     19  CZ        78.0750   15.2950    4.4850 C.ar   91  PHE91      -0.0000
     20  N         72.8520   10.8570    2.6530 N.3   109  LEU109     -0.1245
     21  CA        73.1270    9.4610    2.9630 C.3   109  LEU109      0.1561
     22  C         71.8030    8.6920    3.1290 C.2   109  LEU109      0.2260
     23  O         70.8050    9.2460    3.6300 O.2   109  LEU109     -0.2867
     24  CB        73.9980    9.3280    4.2030 C.3   109  LEU109      0.0270
     25  CG        75.4490    9.9500    4.1530 C.3   109  LEU109      0.0019
     26  CD1       75.9820   10.1780    5.5510 C.3   109  LEU109      0.0001
     27  CD2       76.5040    9.1910    3.3670 C.3   109  LEU109      0.0001
     28  N         73.8980   11.5480   12.4920 N.3   124  ILE124     -0.1231
     29  CA        74.6110   12.3710   11.5130 C.3   124  ILE124      0.1692
     30  C         75.9110   13.0380   11.9580 C.2   124  ILE124      0.2591
     31  O         76.9650   12.7080   11.4320 O.2   124  ILE124     -0.2718
     32  CB        73.6940   13.3880   10.8150 C.3   124  ILE124      0.0266
     33  CG1       72.6080   12.6650   10.0450 C.3   124  ILE124      0.0019
     34  CG2       74.5020   14.2700    9.8680 C.3   124  ILE124      0.0020
     35  CD1       71.5180   13.5640    9.4880 C.3   124  ILE124      0.0001
     36  N         75.8580   13.9890   12.8780 N.am  125  ALA125     -0.1980
     37  CA        77.0950   14.6030   13.3950 C.3   125  ALA125      0.1597
     38  C         77.7610   13.6740   14.3980 C.2   125  ALA125      0.2287
     39  O         78.9590   13.3310   14.2150 O.2   125  ALA125     -0.2864
     40  CB        76.8580   15.9750   14.0110 C.3   125  ALA125      0.0319
     41  N         78.9810    9.6750   13.1020 N.3   128  HIS128     -0.1226
     42  CA        80.0310    9.6880   12.0980 C.3   128  HIS128      0.1752
     43  C         81.3020   10.2320   12.6660 C.2   128  HIS128      0.2596
     44  O         82.3610    9.7270   12.3570 O.2   128  HIS128     -0.2718
     45  CB        79.6420   10.5190   10.8480 C.3   128  HIS128      0.0759
     46  CG        78.7380    9.8040    9.9310 C.ar  128  HIS128      0.0818
     47  ND1       79.1830    9.1340    8.8560 N.ar  128  HIS128     -0.2268
     48  CD2       77.3520    9.6140    9.9690 C.ar  128  HIS128      0.1154
     49  CE1       78.1500    8.5500    8.2620 C.ar  128  HIS128      0.1986
     50  NE2       77.0420    8.8450    8.9400 N.ar  128  HIS128     -0.2212
     51  N         81.2070   11.2560   13.5220 N.am  129  THR129     -0.1953
     52  CA        82.3720   11.7910   14.2040 C.3   129  THR129      0.1897
     53  C         83.0890   10.7220   15.0460 C.2   129  THR129      0.2313
     54  O         84.3050   10.5750   14.9630 O.2   129  THR129     -0.2863
     55  CB        82.0020   12.9790   15.1100 C.3   129  THR129      0.1794
     56  OG1       81.4400   14.0110   14.3160 O.3   129  THR129     -0.2208
     57  CG2       83.2210   13.5230   15.8390 C.3   129  THR129      0.0378
     58  N         86.6230   16.1380   12.3670 N.3   254  TRP254     -0.1227
     59  CA        85.9280   15.3200   11.3660 C.3   254  TRP254      0.1737
     60  C         85.5740   16.1290   10.1450 C.2   254  TRP254      0.2596
     61  O         85.8530   15.7130    8.9940 O.2   254  TRP254     -0.2718
     62  CB        84.6980   14.7360   12.0250 C.3   254  TRP254      0.0564
     63  CG        83.7220   14.0130   11.1610 C.ar  254  TRP254      0.0003
     64  CD1       82.3390   14.1340   11.1790 C.ar  254  TRP254      0.0946
     65  CD2       84.0120   13.0070   10.1360 C.ar  254  TRP254      0.0152
     66  NE1       81.7820   13.3100   10.2620 N.ar  254  TRP254     -0.2442
     67  CE2       82.7330   12.6210    9.5850 C.ar  254  TRP254      0.0810
     68  CE3       85.1740   12.4710    9.5900 C.ar  254  TRP254      0.0012
     69  CZ2       82.6230   11.6740    8.5800 C.ar  254  TRP254      0.0191
     70  CZ3       85.0610   11.5340    8.5600 C.ar  254  TRP254      0.0001
     71  CH2       83.8230   11.1210    8.0910 C.ar  254  TRP254      0.0015
     72  N         84.9370   17.2840   10.3910 N.am  255  GLY255     -0.1957
     73  CA        84.5530   18.2340    9.3060 C.3   255  GLY255      0.1869
     74  C         85.7350   18.5300    8.4040 C.2   255  GLY255      0.2309
     75  O         85.6730   18.3810    7.1870 O.2   255  GLY255     -0.2863
     76  N         86.8030   15.4010    6.4280 N.3   258  LEU258     -0.1245
     77  CA        85.8540   15.0920    5.4020 C.3   258  LEU258      0.1561
     78  C         86.0450   15.9950    4.1710 C.2   258  LEU258      0.2260
     79  O         85.9330   15.5410    3.0240 O.2   258  LEU258     -0.2867
     80  CB        84.4320   15.1920    6.0050 C.3   258  LEU258      0.0270
     81  CG        83.2480   14.6630    5.2420 C.3   258  LEU258      0.0019
     82  CD1       83.4910   13.2070    4.9090 C.3   258  LEU258      0.0001
     83  CD2       81.9710   14.8860    6.0570 C.3   258  LEU258      0.0001
     84  N         83.4670    9.0530    3.9420 N.3   265  LEU265     -0.1245
     85  CA        82.0790    9.0510    4.3380 C.3   265  LEU265      0.1561
     86  C         81.3400    7.7560    3.9790 C.2   265  LEU265      0.2260
     87  O         80.4790    7.3300    4.7220 O.2   265  LEU265     -0.2867
     88  CB        81.3630   10.2460    3.7240 C.3   265  LEU265      0.0270
     89  CG        79.9940   10.6180    4.2870 C.3   265  LEU265      0.0019
     90  CD1       80.0120   10.9730    5.7960 C.3   265  LEU265      0.0001
     91  CD2       79.5320   11.8180    3.4660 C.3   265  LEU265      0.0001
@<TRIPOS>BOND
     1    20    21    1
     2    21    22    1
     3    21    24    1
     4    79    78    2
     5    22    23    2
     6    27    25    1
     7    91    89    1
     8    88    89    1
     9    88    85    1
    10    84    85    1
    11    86    85    1
    12    86    87    2
    13    25    24    1
    14    25    26    1
    15    78    77    1
    16    89    90    1
    17    12    11    2
    18    19    18   ar
    19    19    17   ar
    20    18    16   ar
    21    17    15   ar
    22    82    81    1
    23    81    80    1
    24    81    83    1
    25    77    80    1
    26    77    76    1
    27    11    10    1
    28     9    10    1
    29    15    14   ar
    30    16    14   ar
    31    14    13    1
    32    10    13    1
    33    75    74    2
    34    71    70   ar
    35    71    69   ar
    36    49    47   ar
    37    49    50   ar
    38    74    73    1
    39    70    68   ar
    40    69    67   ar
    41    47    46   ar
    42    50    48   ar
    43     4     3    2
    44    61    60    2
    45    73    72    1
    46    35    33    1
    47    67    65   ar
    48    67    66   ar
    49    68    65   ar
    50    34    32    1
    51    46    48   ar
    52    46    45    1
    53     3     2    1
    54    33    32    1
    55    65    63   ar
    56    60    72   am
    57    60    59    1
    58    66    64   ar
    59     7     5    1
    60     2     5    1
    61     2     1    1
    62    32    29    1
    63    45    42    1
    64     5     6    1
    65    63    64   ar
    66    63    62    1
    67     6     8    1
    68    59    62    1
    69    59    58    1
    70    31    30    2
    71    29    30    1
    72    29    28    1
    73    30    36   am
    74    42    43    1
    75    42    41    1
    76    44    43    2
    77    43    51   am
    78    36    37    1
    79    37    40    1
    80    37    38    1
    81    51    52    1
    82    52    53    1
    83    52    55    1
    84    39    38    2
    85    56    55    1
    86    54    53    2
    87    55    57    1
