@<TRIPOS>MOLECULE
tmp/4eygB00.pdb
 129 123 0 0 0
SMALL
GASTEIGER

@<TRIPOS>ATOM
      1  N         12.2280   63.3620   40.5410 N.3    15  GLN15      -0.1245
      2  CA        11.2030   64.1510   41.2420 C.3    15  GLN15       0.1566
      3  C         11.8110   65.1680   42.2140 C.2    15  GLN15       0.2260
      4  O         11.1550   65.5890   43.1720 O.2    15  GLN15      -0.2867
      5  CB        10.1890   63.2360   41.9580 C.3    15  GLN15       0.0367
      6  CG         9.2140   62.5150   41.0220 C.3    15  GLN15       0.0905
      7  CD         9.8800   61.3900   40.2280 C.2    15  GLN15       0.2608
      8  OE1       10.3960   60.4350   40.8120 O.2    15  GLN15      -0.2717
      9  NE2        9.8810   61.5040   38.8930 N.am   15  GLN15      -0.0878
     10  N          9.7460   68.2350   43.1320 N.3    18  THR18      -0.1218
     11  CA         8.7150   68.0550   44.1630 C.3    18  THR18       0.1862
     12  C          9.2770   68.2920   45.5680 C.2    18  THR18       0.2287
     13  O          8.6760   69.0130   46.3620 O.2    18  THR18      -0.2866
     14  CB         8.0580   66.6600   44.0510 C.3    18  THR18       0.1770
     15  OG1        7.4130   66.5730   42.7780 O.3    18  THR18      -0.2211
     16  CG2        7.0260   66.4170   45.1400 C.3    18  THR18       0.0375
     17  N          6.8220   61.8850   47.9230 N.3    76  GLY76      -0.1210
     18  CA         6.7850   62.4900   46.5970 C.3    76  GLY76       0.1956
     19  C          6.0660   61.7150   45.5200 C.2    76  GLY76       0.2612
     20  O          5.5680   62.3090   44.5660 O.2    76  GLY76      -0.2717
     21  N          6.0570   60.3850   45.6470 N.am   77  ILE77      -0.1965
     22  CA         5.3830   59.5000   44.7040 C.3    77  ILE77       0.1727
     23  C          4.6140   58.4460   45.4840 C.2    77  ILE77       0.2616
     24  O          4.8840   58.2130   46.6760 O.2    77  ILE77      -0.2715
     25  CB         6.3370   58.8370   43.6570 C.3    77  ILE77       0.0290
     26  CG1        7.4020   57.9400   44.3060 C.3    77  ILE77       0.0022
     27  CG2        7.0070   59.8700   42.7720 C.3    77  ILE77       0.0023
     28  CD1        8.0820   57.0260   43.2880 C.3    77  ILE77       0.0001
     29  N          3.6390   57.8330   44.8250 N.am   78  THR78      -0.1951
     30  CA         2.7720   56.8500   45.4750 C.3    78  THR78       0.1897
     31  C          3.5810   55.7020   46.1470 C.2    78  THR78       0.2313
     32  O          3.3630   55.3980   47.3290 O.2    78  THR78      -0.2863
     33  CB         1.6740   56.3510   44.5060 C.3    78  THR78       0.1794
     34  OG1        0.6950   57.3880   44.3070 O.3    78  THR78      -0.2208
     35  CG2        0.9900   55.0790   45.0350 C.3    78  THR78       0.0378
     36  N          2.2190   65.0950   48.6000 N.3    98  ALA98      -0.1231
     37  CA         2.3940   65.0200   47.1500 C.3    98  ALA98       0.1694
     38  C          1.5860   63.8830   46.5120 C.2    98  ALA98       0.2592
     39  O          0.7160   64.1390   45.6800 O.2    98  ALA98      -0.2718
     40  CB         3.8820   64.9060   46.7960 C.3    98  ALA98       0.0304
     41  N          1.8660   62.6340   46.9030 N.am   99  ALA99      -0.1966
     42  CA         1.3380   61.4530   46.1940 C.3    99  ALA99       0.1728
     43  C         -0.1930   61.4800   46.0290 C.2    99  ALA99       0.2616
     44  O         -0.9130   61.8280   46.9600 O.2    99  ALA99      -0.2715
     45  CB         1.8010   60.1720   46.8840 C.3    99  ALA99       0.0334
     46  N         -0.6810   61.1110   44.8460 N.am  100  GLY100     -0.1955
     47  CA        -2.1110   61.2950   44.5010 C.3   100  GLY100      0.1869
     48  C         -2.9480   60.0870   44.1010 C.2   100  GLY100      0.2309
     49  O         -3.9750   60.2380   43.4390 O.2   100  GLY100     -0.2863
     50  N         -3.8810   65.8300   46.8060 N.3   116  PHE116     -0.1241
     51  CA        -4.9900   65.6410   45.8600 C.3   116  PHE116      0.1605
     52  C         -5.1250   64.1550   45.5920 C.2   116  PHE116      0.2264
     53  O         -4.2590   63.3650   45.9960 O.2   116  PHE116     -0.2867
     54  CB        -4.6630   66.3370   44.5110 C.3   116  PHE116      0.0534
     55  CG        -3.2700   66.0360   44.0100 C.ar  116  PHE116     -0.0203
     56  CD1       -2.9980   64.8580   43.3020 C.ar  116  PHE116     -0.0042
     57  CD2       -2.2150   66.9030   44.2850 C.ar  116  PHE116     -0.0042
     58  CE1       -1.7040   64.5600   42.8760 C.ar  116  PHE116     -0.0003
     59  CE2       -0.9200   66.6120   43.8620 C.ar  116  PHE116     -0.0003
     60  CZ        -0.6630   65.4420   43.1470 C.ar  116  PHE116     -0.0000
     61  N         -5.6590   61.9370   41.8440 N.3   118  LEU118     -0.1245
     62  CA        -5.8050   62.0830   40.4020 C.3   118  LEU118      0.1561
     63  C         -7.2760   61.9890   39.9910 C.2   118  LEU118      0.2260
     64  O         -7.6980   62.7020   39.0800 O.2   118  LEU118     -0.2867
     65  CB        -4.9260   61.0730   39.6330 C.3   118  LEU118      0.0270
     66  CG        -3.5600   61.6180   39.1770 C.3   118  LEU118      0.0019
     67  CD1       -3.7220   62.7680   38.1620 C.3   118  LEU118      0.0001
     68  CD2       -2.7090   62.0530   40.3580 C.3   118  LEU118      0.0001
     69  N          2.3320   53.9310   36.2140 N.3   144  TYR144     -0.1241
     70  CA         2.2630   53.4880   37.6050 C.3   144  TYR144      0.1605
     71  C          0.9550   53.9980   38.2110 C.2   144  TYR144      0.2264
     72  O          0.1660   54.6330   37.5030 O.2   144  TYR144     -0.2867
     73  CB         3.5340   53.8550   38.4080 C.3   144  TYR144      0.0534
     74  CG         3.6950   55.3130   38.8180 C.ar  144  TYR144     -0.0201
     75  CD1        3.8480   55.6540   40.1660 C.ar  144  TYR144     -0.0009
     76  CD2        3.7180   56.3440   37.8670 C.ar  144  TYR144     -0.0009
     77  CE1        3.9980   56.9720   40.5570 C.ar  144  TYR144      0.0417
     78  CE2        3.8760   57.6770   38.2510 C.ar  144  TYR144      0.0417
     79  CZ         4.0120   57.9830   39.5960 C.ar  144  TYR144      0.1957
     80  OH         4.1640   59.2940   39.9960 O.3   144  TYR144     -0.2866
     81  N         -0.7960   56.3850   40.0010 N.3   146  PRO146     -0.2116
     82  CA        -1.6100   57.5910   39.7660 C.3   146  PRO146      0.1372
     83  C         -2.0170   57.7540   38.2990 C.2   146  PRO146      0.2244
     84  O         -3.0900   58.2910   38.0280 O.2   146  PRO146     -0.2868
     85  CB        -0.6730   58.7410   40.1860 C.3   146  PRO146      0.0268
     86  CG         0.7060   58.1700   40.0050 C.3   146  PRO146      0.0207
     87  CD         0.5660   56.7360   40.4520 C.3   146  PRO146      0.0892
     88  N         -1.2540   62.5270   31.4410 N.3   194  PHE194     -0.1241
     89  CA        -0.7540   62.6180   32.8070 C.3   194  PHE194      0.1605
     90  C          0.7230   62.2500   32.8550 C.2   194  PHE194      0.2264
     91  O          1.1010   61.1490   32.4600 O.2   194  PHE194     -0.2867
     92  CB        -1.5040   61.7180   33.7990 C.3   194  PHE194      0.0534
     93  CG        -0.7760   61.5810   35.1170 C.ar  194  PHE194     -0.0203
     94  CD1       -0.8210   62.6080   36.0540 C.ar  194  PHE194     -0.0042
     95  CD2        0.0140   60.4700   35.3820 C.ar  194  PHE194     -0.0042
     96  CE1       -0.1220   62.5160   37.2510 C.ar  194  PHE194     -0.0003
     97  CE2        0.7220   60.3660   36.5740 C.ar  194  PHE194     -0.0003
     98  CZ         0.6460   61.3820   37.5140 C.ar  194  PHE194     -0.0000
     99  N          3.9880   63.0470   35.9650 N.3   196  PRO196     -0.2102
    100  CA         4.1170   63.6190   37.3080 C.3   196  PRO196      0.1504
    101  C          4.7040   65.0230   37.2650 C.2   196  PRO196      0.2575
    102  O          5.3080   65.3960   36.2550 O.2   196  PRO196     -0.2718
    103  CB         5.1190   62.6810   37.9950 C.3   196  PRO196      0.0282
    104  CG         5.8640   62.0160   36.8860 C.3   196  PRO196      0.0208
    105  CD         4.8350   61.8510   35.7970 C.3   196  PRO196      0.0893
    106  N          4.5270   65.7810   38.3500 N.am  197  ALA197     -0.1980
    107  CA         5.2150   67.0520   38.5490 C.3   197  ALA197      0.1597
    108  C          6.6730   66.8760   38.1480 C.2   197  ALA197      0.2287
    109  O          7.3030   65.8700   38.4950 O.2   197  ALA197     -0.2864
    110  CB         5.1140   67.4800   40.0150 C.3   197  ALA197      0.0319
    111  N         -1.1700   68.2510   36.3570 N.3   223  ASP223     -0.1239
    112  CA         0.2220   67.8530   36.6340 C.3   223  ASP223      0.1674
    113  C          1.1610   68.2350   35.5020 C.2   223  ASP223      0.2266
    114  O          2.2150   68.8020   35.7620 O.2   223  ASP223     -0.2867
    115  CB         0.3220   66.3520   36.9550 C.3   223  ASP223      0.1410
    116  CG        -0.6480   65.9350   38.0530 C.2   223  ASP223      0.3668
    117  OD1       -0.1770   65.7040   39.1960 O.co2 223  ASP223     -0.2456
    118  OD2       -1.8820   65.8870   37.7710 O.co2 223  ASP223     -0.2456
    119  N          1.9100   73.3570   42.4220 N.3   268  PHE268     -0.1241
    120  CA         0.9160   72.6410   43.2220 C.3   268  PHE268      0.1605
    121  C          1.5460   71.7440   44.2970 C.2   268  PHE268      0.2264
    122  O          0.9310   71.4730   45.3310 O.2   268  PHE268     -0.2867
    123  CB        -0.0460   71.8560   42.3290 C.3   268  PHE268      0.0534
    124  CG         0.5910   70.7330   41.5430 C.ar  268  PHE268     -0.0203
    125  CD1        0.6390   69.4410   42.0640 C.ar  268  PHE268     -0.0042
    126  CD2        1.0660   70.9450   40.2480 C.ar  268  PHE268     -0.0042
    127  CE1        1.1900   68.3910   41.3260 C.ar  268  PHE268     -0.0003
    128  CE2        1.6220   69.9020   39.5010 C.ar  268  PHE268     -0.0003
    129  CZ         1.6790   68.6210   40.0370 C.ar  268  PHE268     -0.0000
@<TRIPOS>BOND
     1    88    89    1
     2    91    90    2
     3    89    90    1
     4    89    92    1
     5    92    93    1
     6    93    95   ar
     7    93    94   ar
     8    95    97   ar
     9   113   114    2
    10   113   112    1
    11   105    99    1
    12   105   104    1
    13    99   100    1
    14    94    96   ar
    15    69    70    1
    16   102   101    2
    17   111   112    1
    18    97    98   ar
    19   112   115    1
    20   104   103    1
    21   115   116    1
    22    96    98   ar
    23   101   100    1
    24   101   106   am
    25   100   103    1
    26    72    71    2
    27    70    71    1
    28    70    73    1
    29   118   116   ar
    30    76    78   ar
    31    76    74   ar
    32    84    83    2
    33   116   117   ar
    34   108   109    2
    35   108   107    1
    36    67    66    1
    37    78    79   ar
    38    83    82    1
    39   106   107    1
    40    73    74    1
    41   107   110    1
    42    74    75   ar
    43     9     7   am
    44    64    63    2
    45    66    65    1
    46    66    68    1
    47   128   129   ar
    48   128   126   ar
    49    79    80    1
    50    79    77   ar
    51    65    62    1
    52    82    81    1
    53    82    85    1
    54    63    62    1
    55    81    87    1
    56    86    85    1
    57    86    87    1
    58   129   127   ar
    59    75    77   ar
    60     7     8    2
    61     7     6    1
    62   126   124   ar
    63    62    61    1
    64     1     2    1
    65     6     5    1
    66     2     5    1
    67     2     3    1
    68   127   125   ar
    69   124   125   ar
    70   124   123    1
    71     3     4    2
    72   123   120    1
    73   119   120    1
    74    27    25    1
    75    15    14    1
    76    58    60   ar
    77    58    56   ar
    78    10    11    1
    79    60    59   ar
    80   120   121    1
    81    28    26    1
    82    56    55   ar
    83    49    48    2
    84    25    26    1
    85    25    22    1
    86    59    57   ar
    87    55    57   ar
    88    55    54    1
    89    14    11    1
    90    14    16    1
    91    48    47    1
    92    11    12    1
    93   121   122    2
    94    34    33    1
    95    47    46    1
    96    33    35    1
    97    33    30    1
    98    54    51    1
    99    20    19    2
   100    22    23    1
   101    22    21    1
   102    29    30    1
   103    29    23   am
   104    46    43   am
   105    30    31    1
   106    23    24    2
   107    19    21   am
   108    19    18    1
   109    12    13    2
   110    52    51    1
   111    52    53    2
   112    39    38    2
   113    51    50    1
   114    43    42    1
   115    43    44    2
   116    31    32    2
   117    42    45    1
   118    42    41    1
   119    38    41   am
   120    38    37    1
   121    18    17    1
   122    40    37    1
   123    37    36    1
