@<TRIPOS>MOLECULE
tmp/4eyjA00.pdb
 200 189 0 0 0
SMALL
GASTEIGER

@<TRIPOS>ATOM
      1  N         -9.1690    4.7130  -38.7840 N.3    30  VAL30      -0.1245
      2  CA        -8.2150    5.4870  -38.0030 C.3    30  VAL30       0.1561
      3  C         -7.6550    4.6410  -36.8640 C.2    30  VAL30       0.2260
      4  O         -6.4380    4.5050  -36.7160 O.2    30  VAL30      -0.2867
      5  CB        -8.8550    6.7600  -37.4190 C.3    30  VAL30       0.0252
      6  CG1       -7.8640    7.4870  -36.5270 C.3    30  VAL30       0.0019
      7  CG2       -9.3400    7.6670  -38.5320 C.3    30  VAL30       0.0019
      8  N        -12.8790    4.1480  -34.6710 N.3    38  VAL38      -0.1245
      9  CA       -12.9290    5.4480  -35.3300 C.3    38  VAL38       0.1561
     10  C        -12.5170    5.3620  -36.7950 C.2    38  VAL38       0.2260
     11  O        -11.6470    4.5740  -37.1660 O.2    38  VAL38      -0.2867
     12  CB       -12.0420    6.4850  -34.5950 C.3    38  VAL38       0.0252
     13  CG1      -12.1780    7.8630  -35.2210 C.3    38  VAL38       0.0019
     14  CG2      -12.4270    6.5550  -33.1400 C.3    38  VAL38       0.0019
     15  N        -14.0790   13.0820  -38.1700 N.3    51  ALA51      -0.1245
     16  CA       -13.8370   11.7780  -37.5780 C.3    51  ALA51       0.1562
     17  C        -15.1630   11.2060  -37.1010 C.2    51  ALA51       0.2260
     18  O        -16.0230   11.9410  -36.6160 O.2    51  ALA51      -0.2867
     19  CB       -12.8490   11.8870  -36.4380 C.3    51  ALA51       0.0290
     20  N        -16.8170    8.0790  -34.7230 N.3    53  LYS53      -0.1245
     21  CA       -16.6770    6.9680  -33.8030 C.3    53  LYS53       0.1561
     22  C        -17.9170    6.0800  -33.8480 C.2    53  LYS53       0.2260
     23  O        -19.0390    6.5460  -33.6370 O.2    53  LYS53      -0.2867
     24  CB       -16.4580    7.4670  -32.3790 C.3    53  LYS53       0.0271
     25  CG       -16.2700    6.3340  -31.3870 C.3    53  LYS53       0.0035
     26  CD       -16.1860    6.8360  -29.9530 C.3    53  LYS53       0.0206
     27  CE       -16.2410    5.6690  -28.9750 C.3    53  LYS53       0.1093
     28  NZ       -16.1390    6.1130  -27.5580 N.3    53  LYS53      -0.1314
     29  N        -22.1600    4.4290  -20.0100 N.3    67  ARG67      -0.1245
     30  CA       -20.9140    4.9880  -20.5050 C.3    67  ARG67       0.1563
     31  C        -21.1290    5.7060  -21.8350 C.2    67  ARG67       0.2260
     32  O        -20.7790    6.8780  -21.9840 O.2    67  ARG67      -0.2867
     33  CB       -19.8760    3.8850  -20.6740 C.3    67  ARG67       0.0307
     34  CG       -18.4610    4.3850  -20.5560 C.3    67  ARG67       0.0489
     35  CD       -17.4660    3.3810  -21.1050 C.3    67  ARG67       0.2205
     36  NE       -16.1110    3.6830  -20.6550 N.pl3  67  ARG67      -0.0865
     37  CZ       -15.3630    4.6740  -21.1300 C.cat  67  ARG67       0.5346
     38  NH1      -14.1430    4.8660  -20.6530 N.pl3  67  ARG67       0.1354
     39  NH2      -15.8290    5.4770  -22.0800 N.pl3  67  ARG67       0.1354
     40  N        -23.1620    8.7730  -21.4500 N.3    70  ARG70      -0.1231
     41  CA       -22.3630    9.8280  -20.8430 C.3    70  ARG70       0.1694
     42  C        -21.4720   10.5600  -21.8560 C.2    70  ARG70       0.2591
     43  O        -21.4370   11.7880  -21.8750 O.2    70  ARG70      -0.2718
     44  CB       -21.5160    9.2780  -19.6930 C.3    70  ARG70       0.0321
     45  CG       -20.6670   10.3390  -19.0090 C.3    70  ARG70       0.0489
     46  CD       -20.0440    9.8190  -17.7180 C.3    70  ARG70       0.2205
     47  NE       -19.1830   10.8240  -17.1020 N.pl3  70  ARG70      -0.0865
     48  CZ       -19.6300   11.8470  -16.3800 C.cat  70  ARG70       0.5346
     49  NH1      -20.9330   11.9980  -16.1770 N.pl3  70  ARG70       0.1354
     50  NH2      -18.7750   12.7170  -15.8560 N.pl3  70  ARG70       0.1354
     51  N        -20.7550    9.8120  -22.6900 N.am   71  GLU71      -0.1979
     52  CA       -19.8620   10.4290  -23.6770 C.3    71  GLU71       0.1602
     53  C        -20.6520   11.3100  -24.6270 C.2    71  GLU71       0.2287
     54  O        -20.2100   12.3990  -25.0010 O.2    71  GLU71      -0.2864
     55  CB       -19.1000    9.3700  -24.4710 C.3    71  GLU71       0.0415
     56  CG       -18.0870    9.9380  -25.4630 C.3    71  GLU71       0.1163
     57  CD       -17.3330    8.8520  -26.2130 C.2    71  GLU71       0.3649
     58  OE1      -16.0990    8.9900  -26.3780 O.co2  71  GLU71      -0.2457
     59  OE2      -17.9710    7.8580  -26.6360 O.co2  71  GLU71      -0.2457
     60  N        -21.6210   14.6240  -22.7110 N.3    74  LEU74      -0.1231
     61  CA       -20.4590   15.4810  -22.5130 C.3    74  LEU74       0.1693
     62  C        -20.1120   16.2340  -23.7880 C.2    74  LEU74       0.2591
     63  O        -19.9760   17.4570  -23.7790 O.2    74  LEU74      -0.2718
     64  CB       -19.2540   14.6560  -22.0640 C.3    74  LEU74       0.0284
     65  CG       -19.2460   14.2710  -20.5880 C.3    74  LEU74       0.0019
     66  CD1      -18.1360   13.2750  -20.2860 C.3    74  LEU74       0.0001
     67  CD2      -19.0930   15.5290  -19.7460 C.3    74  LEU74       0.0001
     68  N        -19.9720   15.4910  -24.8810 N.am   75  LEU75      -0.1980
     69  CA       -19.6060   16.0710  -26.1660 C.3    75  LEU75       0.1596
     70  C        -20.6440   17.0810  -26.6420 C.2    75  LEU75       0.2287
     71  O        -20.2920   18.1230  -27.2000 O.2    75  LEU75      -0.2864
     72  CB       -19.4030   14.9720  -27.2070 C.3    75  LEU75       0.0297
     73  CG       -18.2050   14.0620  -26.9370 C.3    75  LEU75       0.0022
     74  CD1      -18.0610   12.9990  -28.0240 C.3    75  LEU75       0.0001
     75  CD2      -16.9320   14.8870  -26.8090 C.3    75  LEU75       0.0001
     76  N        -20.1870   20.3540  -24.1910 N.3    78  MET78      -0.1245
     77  CA       -18.9640   21.1490  -24.2520 C.3    78  MET78       0.1570
     78  C        -18.8690   21.9220  -25.5620 C.2    78  MET78       0.2261
     79  O        -18.8940   21.3380  -26.6440 O.2    78  MET78      -0.2867
     80  CB       -17.7260   20.2660  -24.0670 C.3    78  MET78       0.0387
     81  CG       -17.7040   19.4800  -22.7700 C.3    78  MET78       0.0595
     82  SD       -17.7540   20.5040  -21.2860 S.3    78  MET78      -0.1393
     83  CE       -18.0560   19.2560  -20.0410 C.3    78  MET78       0.0692
     84  N        -11.6840   21.8790  -26.7570 N.3    83  VAL83      -0.1231
     85  CA       -12.3190   20.6660  -26.2690 C.3    83  VAL83       0.1692
     86  C        -12.9800   19.9890  -27.4690 C.2    83  VAL83       0.2591
     87  O        -13.6090   20.6570  -28.2950 O.2    83  VAL83      -0.2718
     88  CB       -13.3910   20.9870  -25.2050 C.3    83  VAL83       0.0266
     89  CG1      -14.0320   19.7080  -24.6700 C.3    83  VAL83       0.0020
     90  CG2      -12.8010   21.8140  -24.0680 C.3    83  VAL83       0.0020
     91  N        -12.8250   18.6750  -27.5870 N.am   84  ILE84      -0.1980
     92  CA       -13.4170   17.9580  -28.7170 C.3    84  ILE84       0.1595
     93  C        -14.9430   18.0650  -28.6460 C.2    84  ILE84       0.2287
     94  O        -15.5290   17.9830  -27.5660 O.2    84  ILE84      -0.2864
     95  CB       -12.9450   16.4810  -28.7780 C.3    84  ILE84       0.0276
     96  CG1      -13.3810   15.8150  -30.0860 C.3    84  ILE84       0.0022
     97  CG2      -13.4220   15.6880  -27.5600 C.3    84  ILE84       0.0022
     98  CD1      -12.6240   16.2980  -31.2950 C.3    84  ILE84       0.0001
     99  N        -20.8590    8.9010  -33.5540 N.3   104  LEU104     -0.1245
    100  CA       -20.5670   10.2810  -33.1960 C.3   104  LEU104      0.1561
    101  C        -19.6620   10.8820  -34.2540 C.2   104  LEU104      0.2260
    102  O        -18.7040   10.2410  -34.6870 O.2   104  LEU104     -0.2867
    103  CB       -19.8710   10.3550  -31.8370 C.3   104  LEU104      0.0270
    104  CG       -20.6110    9.7280  -30.6570 C.3   104  LEU104      0.0019
    105  CD1      -19.7710    9.8260  -29.3970 C.3   104  LEU104      0.0001
    106  CD2      -21.9630   10.3900  -30.4670 C.3   104  LEU104      0.0001
    107  N        -17.1510   14.1000  -35.2300 N.3   106  MET106     -0.1231
    108  CA       -16.3200   15.0990  -34.5670 C.3   106  MET106      0.1687
    109  C        -15.3400   15.7090  -35.5590 C.2   106  MET106      0.2434
    110  O        -15.0650   15.1100  -36.6000 O.2   106  MET106     -0.2733
    111  CB       -15.5300   14.4430  -33.4320 C.3   106  MET106      0.0400
    112  CG       -16.3680   13.9230  -32.2920 C.3   106  MET106      0.0596
    113  SD       -15.5230   12.5640  -31.4750 S.3   106  MET106     -0.1393
    114  CE       -15.6160   11.3190  -32.7650 C.3   106  MET106      0.0692
    115  N        -14.8080   16.9040  -35.2390 N.am  107  PRO107     -0.2718
    116  CA       -13.7250   17.4720  -36.0470 C.3   107  PRO107      0.1535
    117  C        -12.5650   16.4910  -36.1160 C.2   107  PRO107      0.2599
    118  O        -12.1880   15.9220  -35.0910 O.2   107  PRO107     -0.2715
    119  CB       -13.2990   18.7050  -35.2470 C.3   107  PRO107      0.0310
    120  CG       -14.4910   19.0660  -34.4320 C.3   107  PRO107      0.0237
    121  CD       -15.1660   17.7740  -34.1030 C.3   107  PRO107      0.0939
    122  N        -12.0210   16.2830  -37.3080 N.am  108  PHE108     -0.1960
    123  CA       -10.9150   15.3570  -37.4680 C.3   108  PHE108      0.1771
    124  C         -9.6190   15.9870  -36.9840 C.2   108  PHE108      0.2619
    125  O         -9.2540   17.0840  -37.4070 O.2   108  PHE108     -0.2715
    126  CB       -10.7690   14.9190  -38.9230 C.3   108  PHE108      0.0574
    127  CG        -9.5040   14.1630  -39.1910 C.ar  108  PHE108     -0.0200
    128  CD1       -9.4070   12.8190  -38.8740 C.ar  108  PHE108     -0.0042
    129  CD2       -8.4060   14.8000  -39.7470 C.ar  108  PHE108     -0.0042
    130  CE1       -8.2400   12.1200  -39.1150 C.ar  108  PHE108     -0.0003
    131  CE2       -7.2320   14.1080  -39.9860 C.ar  108  PHE108     -0.0003
    132  CZ        -7.1490   12.7650  -39.6690 C.ar  108  PHE108     -0.0000
    133  N         -8.9230   15.2810  -36.1010 N.am  109  MET109     -0.1977
    134  CA        -7.6550   15.7520  -35.5660 C.3   109  MET109      0.1605
    135  C         -6.5520   14.8080  -36.0100 C.2   109  MET109      0.2287
    136  O         -6.5920   13.6120  -35.7260 O.2   109  MET109     -0.2864
    137  CB        -7.7150   15.8450  -34.0410 C.3   109  MET109      0.0413
    138  CG        -8.7860   16.8020  -33.5270 C.3   109  MET109      0.0598
    139  SD        -8.4870   18.5360  -33.9630 S.3   109  MET109     -0.1393
    140  CE        -6.9820   18.8510  -33.0330 C.3   109  MET109      0.0692
    141  N        -13.9380   23.0670  -19.1110 N.3   140  ILE140     -0.1245
    142  CA       -14.5810   21.8640  -18.5870 C.3   140  ILE140      0.1561
    143  C        -14.7440   21.9040  -17.0690 C.2   140  ILE140      0.2260
    144  O        -15.7840   21.5150  -16.5480 O.2   140  ILE140     -0.2867
    145  CB       -13.8810   20.5460  -19.0240 C.3   140  ILE140      0.0252
    146  CG1      -12.4110   20.5310  -18.6150 C.3   140  ILE140      0.0019
    147  CG2      -14.0040   20.3370  -20.5260 C.3   140  ILE140      0.0019
    148  CD1      -11.8310   19.1310  -18.5610 C.3   140  ILE140      0.0001
    149  N        -16.8500   19.5560  -14.6260 N.3   145  VAL145     -0.1245
    150  CA       -16.3010   18.2870  -15.0980 C.3   145  VAL145      0.1561
    151  C        -14.7810   18.2510  -14.9520 C.2   145  VAL145      0.2260
    152  O        -14.0800   19.1650  -15.3870 O.2   145  VAL145     -0.2867
    153  CB       -16.6770   18.0150  -16.5660 C.3   145  VAL145      0.0252
    154  CG1      -15.9470   16.7890  -17.0860 C.3   145  VAL145      0.0019
    155  CG2      -18.1790   17.8310  -16.7010 C.3   145  VAL145      0.0019
    156  N        -11.2470   15.9050  -15.6810 N.3   147  HIS147     -0.1241
    157  CA       -10.8020   14.8920  -16.6320 C.3   147  HIS147      0.1621
    158  C        -10.3500   13.6150  -15.9260 C.2   147  HIS147      0.2264
    159  O        -10.7930   12.5150  -16.2720 O.2   147  HIS147     -0.2867
    160  CB        -9.6840   15.4290  -17.5340 C.3   147  HIS147      0.0745
    161  CG        -9.4140   14.5690  -18.7290 C.ar  147  HIS147      0.0817
    162  ND1       -8.8270   13.3260  -18.6350 N.ar  147  HIS147     -0.2268
    163  CD2       -9.6530   14.7740  -20.0470 C.ar  147  HIS147      0.1154
    164  CE1       -8.7150   12.8010  -19.8420 C.ar  147  HIS147      0.1986
    165  NE2       -9.2100   13.6600  -20.7160 N.ar  147  HIS147     -0.2212
    166  N         -8.6910   18.8660  -26.3300 N.3   165  ILE165     -0.1231
    167  CA        -8.6610   17.9000  -25.2430 C.3   165  ILE165      0.1692
    168  C         -9.5860   16.7280  -25.5500 C.2   165  ILE165      0.2592
    169  O        -10.7270   16.9310  -25.9720 O.2   165  ILE165     -0.2718
    170  CB        -9.0810   18.5560  -23.9150 C.3   165  ILE165      0.0266
    171  CG1       -8.0700   19.6370  -23.5240 C.3   165  ILE165      0.0019
    172  CG2       -9.2110   17.5130  -22.8090 C.3   165  ILE165      0.0020
    173  CD1       -8.3510   20.2780  -22.1870 C.3   165  ILE165      0.0001
    174  N         -9.0780   15.5110  -25.3450 N.am  166  LEU166     -0.1966
    175  CA        -9.8420   14.2850  -25.5610 C.3   166  LEU166      0.1728
    176  C         -9.9710   13.4660  -24.2880 C.2   166  LEU166      0.2616
    177  O         -9.3160   13.7350  -23.2850 O.2   166  LEU166     -0.2715
    178  CB        -9.1590   13.3880  -26.6010 C.3   166  LEU166      0.0311
    179  CG        -8.9550   13.8300  -28.0470 C.3   166  LEU166      0.0022
    180  CD1       -8.1690   12.7560  -28.7870 C.3   166  LEU166      0.0001
    181  CD2      -10.2830   14.0810  -28.7270 C.3   166  LEU166      0.0001
    182  N        -10.8310   12.4560  -24.3530 N.am  167  ASP167     -0.1957
    183  CA       -10.8440   11.3730  -23.3800 C.3   167  ASP167      0.1840
    184  C        -11.2090   10.1070  -24.1360 C.2   167  ASP167      0.2622
    185  O        -12.3850    9.8080  -24.3320 O.2   167  ASP167     -0.2715
    186  CB       -11.8390   11.6370  -22.2490 C.3   167  ASP167      0.1450
    187  CG       -11.7740   10.5780  -21.1500 C.2   167  ASP167      0.3671
    188  OD1      -10.8540    9.7310  -21.1790 O.co2 167  ASP167     -0.2456
    189  OD2      -12.6390   10.6000  -20.2470 O.co2 167  ASP167     -0.2456
    190  N        -10.1870    9.3790  -24.5730 N.am  168  PHE168     -0.1974
    191  CA       -10.3670    8.2110  -25.4270 C.3   168  PHE168      0.1639
    192  C        -11.0950    7.0570  -24.7330 C.2   168  PHE168      0.2290
    193  O        -11.6830    6.2060  -25.3990 O.2   168  PHE168     -0.2864
    194  CB        -9.0140    7.7380  -25.9680 C.3   168  PHE168      0.0560
    195  CG        -8.8670    7.8950  -27.4560 C.ar  168  PHE168     -0.0200
    196  CD1       -8.3260    9.0520  -27.9970 C.ar  168  PHE168     -0.0042
    197  CD2       -9.2670    6.8830  -28.3170 C.ar  168  PHE168     -0.0042
    198  CE1       -8.1870    9.1950  -29.3720 C.ar  168  PHE168     -0.0003
    199  CE2       -9.1320    7.0230  -29.6920 C.ar  168  PHE168     -0.0003
    200  CZ        -8.5930    8.1800  -30.2180 C.ar  168  PHE168     -0.0000
@<TRIPOS>BOND
     1   131   129   ar
     2   131   132   ar
     3   129   127   ar
     4   132   130   ar
     5   127   126    1
     6   127   128   ar
     7   130   128   ar
     8   126   123    1
     9     1     2    1
    10     7     5    1
    11    15    16    1
    12     2     5    1
    13     2     3    1
    14    16    17    1
    15    16    19    1
    16   123   122    1
    17   123   124    1
    18     5     6    1
    19   125   124    2
    20   122   117   am
    21    11    10    2
    22    17    18    2
    23   124   133   am
    24     3     4    2
    25    10     9    1
    26   110   109    2
    27   117   116    1
    28   117   118    2
    29   133   134    1
    30   116   119    1
    31   116   115    1
    32   135   136    2
    33   135   134    1
    34   134   137    1
    35   109   115   am
    36   109   108    1
    37     9     8    1
    38     9    12    1
    39   119   120    1
    40   115   121    1
    41   107   108    1
    42    13    12    1
    43    20    21    1
    44   102   101    2
    45    12    14    1
    46   108   111    1
    47   120   121    1
    48   101   100    1
    49   137   138    1
    50   139   138    1
    51   139   140    1
    52    22    21    1
    53    22    23    2
    54    21    24    1
    55    99   100    1
    56   111   112    1
    57   100   103    1
    58   114   113    1
    59    24    25    1
    60   112   113    1
    61   103   104    1
    62    25    26    1
    63    98    96    1
    64   104   106    1
    65   104   105    1
    66   200   199   ar
    67   200   198   ar
    68    96    95    1
    69    26    27    1
    70   199   197   ar
    71   198   196   ar
    72    27    28    1
    73   180   179    1
    74    95    92    1
    75    95    97    1
    76   181   179    1
    77    92    93    1
    78    92    91    1
    79    93    94    2
    80   197   195   ar
    81    87    86    2
    82   179   178    1
    83    74    73    1
    84   196   195   ar
    85    91    86   am
    86    86    85    1
    87   195   194    1
    88    72    73    1
    89    72    69    1
    90    71    70    2
    91    73    75    1
    92    84    85    1
    93    79    78    2
    94    70    69    1
    95    59    57   ar
    96   178   175    1
    97    58    57   ar
    98   166   167    1
    99    85    88    1
   100    57    56    1
   101    69    68    1
   102   169   168    2
   103   194   191    1
   104    78    77    1
   105   175   174    1
   106   175   176    1
   107   168   174   am
   108   168   167    1
   109    56    55    1
   110   191   192    1
   111   191   190    1
   112   193   192    2
   113   167   170    1
   114    88    89    1
   115    88    90    1
   116    54    53    2
   117    68    62   am
   118    53    52    1
   119   190   184   am
   120    55    52    1
   121   182   176   am
   122   182   183    1
   123   185   184    2
   124   176   177    2
   125    77    76    1
   126    77    80    1
   127   184   183    1
   128    80    81    1
   129   170   171    1
   130   170   172    1
   131    62    63    2
   132    62    61    1
   133    52    51    1
   134   171   173    1
   135   183   186    1
   136    81    82    1
   137    60    61    1
   138    51    42   am
   139    61    64    1
   140   186   187    1
   141    39    37    1
   142    64    65    1
   143    32    31    2
   144    43    42    2
   145    42    41    1
   146    31    30    1
   147    40    41    1
   148    82    83    1
   149   188   187   ar
   150   187   189   ar
   151    37    36    2
   152    37    38    1
   153    35    36    1
   154    35    34    1
   155    41    44    1
   156   165   163   ar
   157   165   164   ar
   158    33    34    1
   159    33    30    1
   160    65    66    1
   161    65    67    1
   162   147   145    1
   163    30    29    1
   164   163   161   ar
   165   164   162   ar
   166    44    45    1
   167   141   142    1
   168   145   146    1
   169   145   142    1
   170    45    46    1
   171   161   162   ar
   172   161   160    1
   173   146   148    1
   174   142   143    1
   175    46    47    1
   176   160   157    1
   177    47    48    2
   178   154   153    1
   179   143   144    2
   180   155   153    1
   181   157   158    1
   182   157   156    1
   183   153   150    1
   184    48    49    1
   185    48    50    1
   186   159   158    2
   187   152   151    2
   188   150   151    1
   189   150   149    1
