@<TRIPOS>MOLECULE
tmp/4eymA00.pdb
 168 161 0 0 0
SMALL
GASTEIGER

@<TRIPOS>ATOM
      1  N         -9.3530    4.4190  -38.7770 N.3    30  VAL30      -0.1245
      2  CA        -8.4440    5.2490  -37.9850 C.3    30  VAL30       0.1561
      3  C         -7.8970    4.4920  -36.7780 C.2    30  VAL30       0.2260
      4  O         -6.6910    4.4630  -36.5450 O.2    30  VAL30      -0.2867
      5  CB        -9.1240    6.5470  -37.4930 C.3    30  VAL30       0.0252
      6  CG1       -8.2620    7.2360  -36.4330 C.3    30  VAL30       0.0019
      7  CG2       -9.3910    7.4780  -38.6630 C.3    30  VAL30       0.0019
      8  N        -14.4320    0.2750  -26.7090 N.3    35  TYR35      -0.1241
      9  CA       -15.8930    0.2450  -26.7430 C.3    35  TYR35       0.1605
     10  C        -16.4640    0.6420  -28.1010 C.2    35  TYR35       0.2264
     11  O        -17.6820    0.7140  -28.2790 O.2    35  TYR35      -0.2867
     12  CB       -16.4670    1.1400  -25.6390 C.3    35  TYR35       0.0534
     13  CG       -15.8740    0.8600  -24.2760 C.ar   35  TYR35      -0.0201
     14  CD1      -16.0160   -0.3890  -23.6820 C.ar   35  TYR35      -0.0009
     15  CD2      -15.1680    1.8370  -23.5850 C.ar   35  TYR35      -0.0009
     16  CE1      -15.4700   -0.6610  -22.4400 C.ar   35  TYR35       0.0417
     17  CE2      -14.6210    1.5750  -22.3350 C.ar   35  TYR35       0.0417
     18  CZ       -14.7770    0.3230  -21.7690 C.ar   35  TYR35       0.1957
     19  OH       -14.2390    0.0450  -20.5300 O.3    35  TYR35      -0.2866
     20  N        -13.1140    3.9730  -34.7950 N.3    38  VAL38      -0.1245
     21  CA       -13.2070    5.2680  -35.4440 C.3    38  VAL38       0.1561
     22  C        -12.7680    5.2010  -36.8950 C.2    38  VAL38       0.2260
     23  O        -11.8910    4.4150  -37.2610 O.2    38  VAL38      -0.2867
     24  CB       -12.3360    6.3170  -34.7280 C.3    38  VAL38       0.0252
     25  CG1      -12.5820    7.6970  -35.3200 C.3    38  VAL38       0.0019
     26  CG2      -12.6160    6.3140  -33.2390 C.3    38  VAL38       0.0019
     27  N        -14.3070   12.8700  -38.1460 N.3    51  ALA51      -0.1245
     28  CA       -14.0340   11.5650  -37.5710 C.3    51  ALA51       0.1562
     29  C        -15.3690   10.9750  -37.1550 C.2    51  ALA51       0.2260
     30  O        -16.1880   11.6620  -36.5530 O.2    51  ALA51      -0.2867
     31  CB       -13.0990   11.6880  -36.3760 C.3    51  ALA51       0.0290
     32  N        -17.1800    7.9270  -34.9970 N.3    53  LYS53      -0.1245
     33  CA       -17.0360    6.8610  -34.0230 C.3    53  LYS53       0.1561
     34  C        -18.2650    5.9590  -34.0140 C.2    53  LYS53       0.2260
     35  O        -19.3800    6.4060  -33.7350 O.2    53  LYS53      -0.2867
     36  CB       -16.7870    7.4340  -32.6260 C.3    53  LYS53       0.0271
     37  CG       -16.6680    6.3720  -31.5340 C.3    53  LYS53       0.0035
     38  CD       -16.2870    6.9830  -30.1900 C.3    53  LYS53       0.0206
     39  CE       -16.2970    5.9430  -29.0720 C.3    53  LYS53       0.1093
     40  NZ       -15.6920    6.4500  -27.7970 N.3    53  LYS53      -0.1314
     41  N        -22.3880    4.3550  -20.0770 N.3    67  ARG67      -0.1245
     42  CA       -21.1350    4.9170  -20.5540 C.3    67  ARG67       0.1563
     43  C        -21.3230    5.5720  -21.9220 C.2    67  ARG67       0.2260
     44  O        -20.9370    6.7270  -22.1220 O.2    67  ARG67      -0.2867
     45  CB       -20.0420    3.8500  -20.6030 C.3    67  ARG67       0.0307
     46  CG       -18.6420    4.4220  -20.5880 C.3    67  ARG67       0.0489
     47  CD       -17.5970    3.3350  -20.7420 C.3    67  ARG67       0.2205
     48  NE       -18.0780    2.2570  -21.5990 N.pl3  67  ARG67      -0.0865
     49  CZ       -18.1150    0.9790  -21.2370 C.cat  67  ARG67       0.5346
     50  NH1      -18.5770    0.0650  -22.0780 N.pl3  67  ARG67       0.1354
     51  NH2      -17.6860    0.6140  -20.0350 N.pl3  67  ARG67       0.1354
     52  N        -23.3170    8.6750  -21.4800 N.3    70  ARG70      -0.1231
     53  CA       -22.4850    9.7060  -20.8700 C.3    70  ARG70       0.1694
     54  C        -21.5680   10.4120  -21.8810 C.2    70  ARG70       0.2591
     55  O        -21.4530   11.6410  -21.8770 O.2    70  ARG70      -0.2718
     56  CB       -21.6600    9.1090  -19.7290 C.3    70  ARG70       0.0321
     57  CG       -20.9100   10.1460  -18.9070 C.3    70  ARG70       0.0489
     58  CD       -20.3870    9.5540  -17.6050 C.3    70  ARG70       0.2205
     59  NE       -19.4060   10.4290  -16.9740 N.pl3  70  ARG70      -0.0865
     60  CZ       -19.7150   11.4550  -16.1870 C.cat  70  ARG70       0.5346
     61  NH1      -20.9850   11.7370  -15.9270 N.pl3  70  ARG70       0.1354
     62  NH2      -18.7530   12.2000  -15.6610 N.pl3  70  ARG70       0.1354
     63  N        -20.9180    9.6350  -22.7450 N.am   71  GLU71      -0.1979
     64  CA       -20.0200   10.1990  -23.7500 C.3    71  GLU71       0.1602
     65  C        -20.7650   11.1580  -24.6700 C.2    71  GLU71       0.2287
     66  O        -20.2660   12.2260  -25.0260 O.2    71  GLU71      -0.2864
     67  CB       -19.3630    9.0870  -24.5730 C.3    71  GLU71       0.0415
     68  CG       -18.4030    9.6010  -25.6360 C.3    71  GLU71       0.1163
     69  CD       -17.6960    8.4860  -26.3840 C.2    71  GLU71       0.3649
     70  OE1      -16.6950    8.7800  -27.0700 O.co2  71  GLU71      -0.2457
     71  OE2      -18.1380    7.3200  -26.2890 O.co2  71  GLU71      -0.2457
     72  N        -21.6840   14.4710  -22.6870 N.3    74  LEU74      -0.1231
     73  CA       -20.5300   15.3160  -22.4010 C.3    74  LEU74       0.1693
     74  C        -20.0300   16.0170  -23.6530 C.2    74  LEU74       0.2591
     75  O        -19.7340   17.2110  -23.6230 O.2    74  LEU74      -0.2718
     76  CB       -19.4020   14.5000  -21.7670 C.3    74  LEU74       0.0284
     77  CG       -19.5480   14.1700  -20.2830 C.3    74  LEU74       0.0019
     78  CD1      -18.5020   13.1500  -19.8340 C.3    74  LEU74       0.0001
     79  CD2      -19.4630   15.4420  -19.4510 C.3    74  LEU74       0.0001
     80  N        -19.9260   15.2680  -24.7470 N.am   75  LEU75      -0.1980
     81  CA       -19.5050   15.8330  -26.0240 C.3    75  LEU75       0.1596
     82  C        -20.4860   16.9020  -26.4710 C.2    75  LEU75       0.2287
     83  O        -20.0880   17.9140  -27.0430 O.2    75  LEU75      -0.2864
     84  CB       -19.4060   14.7500  -27.1000 C.3    75  LEU75       0.0297
     85  CG       -18.2780   13.7390  -26.9280 C.3    75  LEU75       0.0022
     86  CD1      -18.3440   12.6380  -27.9890 C.3    75  LEU75       0.0001
     87  CD2      -16.9420   14.4500  -26.9670 C.3    75  LEU75       0.0001
     88  N        -12.9100   18.4750  -27.3770 N.3    84  ILE84      -0.1245
     89  CA       -13.5620   17.7660  -28.4690 C.3    84  ILE84       0.1561
     90  C        -15.0720   17.8350  -28.2800 C.2    84  ILE84       0.2260
     91  O        -15.5680   17.6950  -27.1610 O.2    84  ILE84      -0.2867
     92  CB       -13.0780   16.3050  -28.6100 C.3    84  ILE84       0.0252
     93  CG1      -13.5980   15.6970  -29.9140 C.3    84  ILE84       0.0019
     94  CG2      -13.5180   15.4610  -27.4290 C.3    84  ILE84       0.0019
     95  CD1      -12.9970   16.2940  -31.1390 C.3    84  ILE84       0.0001
     96  N        -17.4340   13.9800  -35.1310 N.3   106  MET106     -0.1231
     97  CA       -16.6110   14.9990  -34.4750 C.3   106  MET106      0.1687
     98  C        -15.5890   15.5820  -35.4500 C.2   106  MET106      0.2434
     99  O        -15.3030   14.9760  -36.4870 O.2   106  MET106     -0.2733
    100  CB       -15.8610   14.3860  -33.2910 C.3   106  MET106      0.0400
    101  CG       -16.7440   13.7590  -32.2290 C.3   106  MET106      0.0596
    102  SD       -15.9010   12.3920  -31.4180 S.3   106  MET106     -0.1393
    103  CE       -15.8100   11.2460  -32.7890 C.3   106  MET106      0.0692
    104  N        -15.0190   16.7540  -35.1150 N.am  107  PRO107     -0.2718
    105  CA       -13.9410   17.2870  -35.9560 C.3   107  PRO107      0.1535
    106  C        -12.7580   16.3260  -35.9600 C.2   107  PRO107      0.2599
    107  O        -12.4460   15.7320  -34.9260 O.2   107  PRO107     -0.2715
    108  CB       -13.5480   18.5930  -35.2520 C.3   107  PRO107      0.0310
    109  CG       -14.6910   18.9120  -34.3380 C.3   107  PRO107      0.0237
    110  CD       -15.2820   17.6060  -33.9420 C.3   107  PRO107      0.0939
    111  N        -12.1120   16.1740  -37.1090 N.am  108  PHE108     -0.1960
    112  CA       -11.0080   15.2330  -37.2380 C.3   108  PHE108      0.1771
    113  C         -9.6920   15.7990  -36.7020 C.2   108  PHE108      0.2619
    114  O         -9.3070   16.9200  -37.0310 O.2   108  PHE108     -0.2715
    115  CB       -10.8410   14.8060  -38.6950 C.3   108  PHE108      0.0574
    116  CG        -9.6550   13.9230  -38.9280 C.ar  108  PHE108     -0.0200
    117  CD1       -9.7260   12.5650  -38.6670 C.ar  108  PHE108     -0.0042
    118  CD2       -8.4670   14.4520  -39.4050 C.ar  108  PHE108     -0.0042
    119  CE1       -8.6300   11.7450  -38.8820 C.ar  108  PHE108     -0.0003
    120  CE2       -7.3650   13.6420  -39.6170 C.ar  108  PHE108     -0.0003
    121  CZ        -7.4470   12.2840  -39.3570 C.ar  108  PHE108     -0.0000
    122  N         -9.0080   15.0190  -35.8700 N.am  109  MET109     -0.1977
    123  CA        -7.7080   15.4280  -35.3500 C.3   109  MET109      0.1605
    124  C         -6.6260   14.4750  -35.8390 C.2   109  MET109      0.2287
    125  O         -6.6710   13.2720  -35.5800 O.2   109  MET109     -0.2864
    126  CB        -7.7200   15.4980  -33.8250 C.3   109  MET109      0.0413
    127  CG        -8.8510   16.3410  -33.2500 C.3   109  MET109      0.0598
    128  SD        -8.7630   18.0720  -33.7240 S.3   109  MET109     -0.1393
    129  CE        -7.2380   18.5880  -32.9310 C.3   109  MET109      0.0692
    130  N         -9.3080   15.2160  -25.1950 N.3   166  LEU166     -0.1231
    131  CA       -10.1570   14.0430  -25.3860 C.3   166  LEU166      0.1693
    132  C        -10.4430   13.3130  -24.0790 C.2   166  LEU166      0.2592
    133  O         -9.7260   13.4770  -23.0900 O.2   166  LEU166     -0.2718
    134  CB        -9.4980   13.0520  -26.3460 C.3   166  LEU166      0.0284
    135  CG        -9.0310   13.5930  -27.6920 C.3   166  LEU166      0.0019
    136  CD1       -8.2900   12.5060  -28.4600 C.3   166  LEU166      0.0001
    137  CD2      -10.2090   14.1530  -28.4990 C.3   166  LEU166      0.0001
    138  N        -11.4960   12.4990  -24.0980 N.am  167  ASP167     -0.1960
    139  CA       -11.7630   11.5340  -23.0380 C.3   167  ASP167      0.1840
    140  C        -11.8490   12.1350  -21.6440 C.2   167  ASP167      0.2622
    141  O        -11.3540   11.5540  -20.6840 O.2   167  ASP167     -0.2715
    142  CB       -10.6970   10.4410  -23.0540 C.3   167  ASP167      0.1450
    143  CG       -11.1000    9.2590  -23.8910 C.2   167  ASP167      0.3671
    144  OD1      -11.2440    9.4290  -25.1170 O.co2 167  ASP167     -0.2456
    145  OD2      -11.2740    8.1610  -23.3170 O.co2 167  ASP167     -0.2456
    146  N        -12.4680   13.3030  -21.5460 N.am  168  PHE168     -0.1960
    147  CA       -12.7250   13.9280  -20.2620 C.3   168  PHE168      0.1771
    148  C        -13.9850   13.2770  -19.7030 C.2   168  PHE168      0.2620
    149  O        -14.7270   12.6250  -20.4390 O.2   168  PHE168     -0.2715
    150  CB       -12.9120   15.4340  -20.4480 C.3   168  PHE168      0.0574
    151  CG       -13.8850   15.7880  -21.5290 C.ar  168  PHE168     -0.0200
    152  CD1      -13.4780   15.8430  -22.8560 C.ar  168  PHE168     -0.0042
    153  CD2      -15.2100   16.0520  -21.2290 C.ar  168  PHE168     -0.0042
    154  CE1      -14.3720   16.1620  -23.8550 C.ar  168  PHE168     -0.0003
    155  CE2      -16.1120   16.3790  -22.2290 C.ar  168  PHE168     -0.0003
    156  CZ       -15.6930   16.4350  -23.5410 C.ar  168  PHE168     -0.0000
    157  N        -14.2250   13.4190  -18.4080 N.am  169  GLY169     -0.1940
    158  CA       -15.3550   12.7320  -17.7940 C.3   169  GLY169      0.2014
    159  C        -15.2990   11.2040  -17.8520 C.2   169  GLY169      0.2638
    160  O        -16.3320   10.5250  -17.8810 O.2   169  GLY169     -0.2714
    161  N        -14.0910   10.6530  -17.8720 N.am  170  LEU170     -0.1977
    162  CA       -13.9220    9.2150  -17.7150 C.3   170  LEU170      0.1596
    163  C        -14.2420    8.8120  -16.2780 C.2   170  LEU170      0.2287
    164  O        -14.0900    9.6120  -15.3510 O.2   170  LEU170     -0.2864
    165  CB       -12.4940    8.7950  -18.0690 C.3   170  LEU170      0.0297
    166  CG       -12.2640    8.1120  -19.4170 C.3   170  LEU170      0.0022
    167  CD1      -10.7690    7.9830  -19.6990 C.3   170  LEU170      0.0001
    168  CD2      -12.9450    6.7530  -19.4530 C.3   170  LEU170      0.0001
@<TRIPOS>BOND
     1   120   118   ar
     2   120   121   ar
     3   118   116   ar
     4   121   119   ar
     5   116   115    1
     6   116   117   ar
     7   119   117   ar
     8     1     2    1
     9   115   112    1
    10     7     5    1
    11    27    28    1
    12     2     5    1
    13     2     3    1
    14    28    29    1
    15    28    31    1
    16     5     6    1
    17    23    22    2
    18   112   111    1
    19   112   113    1
    20    29    30    2
    21   111   106   am
    22   114   113    2
    23    22    21    1
    24     3     4    2
    25   113   122   am
    26    99    98    2
    27   106   105    1
    28   106   107    2
    29   105   108    1
    30   105   104    1
    31   122   123    1
    32   124   125    2
    33   124   123    1
    34    98   104   am
    35    98    97    1
    36    21    20    1
    37    21    24    1
    38   123   126    1
    39    25    24    1
    40   108   109    1
    41    96    97    1
    42   104   110    1
    43    32    33    1
    44    24    26    1
    45    97   100    1
    46   109   110    1
    47    33    34    1
    48    33    36    1
    49    34    35    2
    50   126   127    1
    51   128   127    1
    52   128   129    1
    53   100   101    1
    54   103   102    1
    55    36    37    1
    56   101   102    1
    57    37    38    1
    58    95    93    1
    59    38    39    1
    60    93    92    1
    61    39    40    1
    62    92    89    1
    63    92    94    1
    64   137   135    1
    65    89    90    1
    66    89    88    1
    67   136   135    1
    68    90    91    2
    69    11    10    2
    70    10     9    1
    71    86    85    1
    72   135   134    1
    73    84    85    1
    74    84    81    1
    75    70    69   ar
    76    83    82    2
    77    87    85    1
    78     9     8    1
    79     9    12    1
    80    82    81    1
    81    69    71   ar
    82    69    68    1
    83   134   131    1
    84    81    80    1
    85    12    13    1
    86    68    67    1
    87   131   130    1
    88   131   132    1
    89   144   143   ar
    90    66    65    2
    91    80    74   am
    92    65    64    1
    93    67    64    1
    94    13    14   ar
    95    13    15   ar
    96   138   132   am
    97   138   139    1
    98   132   133    2
    99   143   145   ar
   100   143   142    1
   101   154   156   ar
   102   154   152   ar
   103    64    63    1
   104    14    16   ar
   105    74    75    2
   106    74    73    1
   107    15    17   ar
   108   156   155   ar
   109   142   139    1
   110   139   140    1
   111   152   151   ar
   112    63    54   am
   113    72    73    1
   114    16    18   ar
   115    73    76    1
   116    17    18   ar
   117   155   153   ar
   118    44    43    2
   119    50    49    1
   120    43    42    1
   121    54    55    2
   122    54    53    1
   123    18    19    1
   124    76    77    1
   125   140   146   am
   126   140   141    2
   127    48    49    2
   128    48    47    1
   129   146   147    1
   130   151   153   ar
   131   151   150    1
   132    52    53    1
   133    49    51    1
   134    53    56    1
   135    47    46    1
   136    45    46    1
   137    45    42    1
   138    42    41    1
   139   150   147    1
   140   149   148    2
   141    77    78    1
   142    77    79    1
   143   147   148    1
   144    56    57    1
   145   148   157   am
   146   167   166    1
   147   168   166    1
   148   166   165    1
   149    57    58    1
   150   157   158    1
   151   165   162    1
   152   160   159    2
   153   161   159   am
   154   161   162    1
   155   159   158    1
   156   162   163    1
   157    58    59    1
   158    59    60    2
   159   163   164    2
   160    60    61    1
   161    60    62    1
