@<TRIPOS>MOLECULE
tmp/4eyqA01.pdb
 149 144 0 0 0
SMALL
GASTEIGER

@<TRIPOS>ATOM
      1  N         52.0330   57.5770    3.9520 N.3    22  LEU22      -0.1245
      2  CA        53.3840   57.0920    3.7460 C.3    22  LEU22       0.1561
      3  C         54.4610   58.1190    4.1900 C.2    22  LEU22       0.2260
      4  O         55.4270   57.7450    4.8590 O.2    22  LEU22      -0.2867
      5  CB        53.5910   56.6610    2.2810 C.3    22  LEU22       0.0270
      6  CG        52.8900   55.3490    1.8780 C.3    22  LEU22       0.0019
      7  CD1       51.4130   55.5760    1.5600 C.3    22  LEU22       0.0001
      8  CD2       53.5600   54.8090    0.6440 C.3    22  LEU22       0.0001
      9  N         57.5970   58.5420    7.5120 N.3    26  GLU26      -0.1245
     10  CA        58.9470   58.8020    7.0370 C.3    26  GLU26       0.1567
     11  C         59.5720   60.0800    7.6390 C.2    26  GLU26       0.2260
     12  O         60.7220   60.0500    8.0720 O.2    26  GLU26      -0.2867
     13  CB        59.0230   58.7630    5.5090 C.3    26  GLU26       0.0388
     14  CG        58.6900   57.3750    5.0210 C.3    26  GLU26       0.1160
     15  CD        58.3880   57.2710    3.5410 C.2    26  GLU26       0.3649
     16  OE1       58.2570   58.3060    2.8490 O.co2  26  GLU26      -0.2457
     17  OE2       58.2550   56.1130    3.0910 O.co2  26  GLU26      -0.2457
     18  N         57.8640   59.5230   -1.4250 N.3    74  SER74      -0.1202
     19  CA        57.1200   58.5140   -0.6680 C.3    74  SER74       0.2020
     20  C         56.3590   57.5430   -1.5410 C.2    74  SER74       0.2619
     21  O         55.9830   56.4400   -1.0890 O.2    74  SER74      -0.2717
     22  CB        56.1490   59.1890    0.2820 C.3    74  SER74       0.2103
     23  OG        56.8860   59.9420    1.1980 O.3    74  SER74      -0.2182
     24  N         56.1150   57.9580   -2.7810 N.am   75  VAL75      -0.1965
     25  CA        55.4160   57.1150   -3.7270 C.3    75  VAL75       0.1727
     26  C         56.1550   57.1330   -5.0490 C.2    75  VAL75       0.2616
     27  O         57.0200   57.9780   -5.2670 O.2    75  VAL75      -0.2715
     28  CB        53.9150   57.4990   -3.8590 C.3    75  VAL75       0.0290
     29  CG1       53.1540   57.1110   -2.5740 C.3    75  VAL75       0.0023
     30  CG2       53.7390   58.9830   -4.1960 C.3    75  VAL75       0.0023
     31  N         55.8330   56.1940   -5.9230 N.am   76  THR76      -0.1951
     32  CA        56.6490   55.9490   -7.1190 C.3    76  THR76       0.1897
     33  C         56.7300   57.1350   -8.1200 C.2    76  THR76       0.2313
     34  O         57.8220   57.5020   -8.5280 O.2    76  THR76      -0.2863
     35  CB        56.2380   54.6350   -7.8050 C.3    76  THR76       0.1794
     36  OG1       56.3760   53.5530   -6.8610 O.3    76  THR76      -0.2208
     37  CG2       57.0680   54.3750   -9.0350 C.3    76  THR76       0.0378
     38  N         62.8480   56.4620   -1.4060 N.3    96  LEU96      -0.1231
     39  CA        62.0340   55.9050   -0.3020 C.3    96  LEU96       0.1693
     40  C         60.7640   55.1870   -0.8010 C.2    96  LEU96       0.2592
     41  O         59.9410   54.7460   -0.0010 O.2    96  LEU96      -0.2718
     42  CB        61.7210   56.9760    0.7570 C.3    96  LEU96       0.0284
     43  CG        62.9400   57.6740    1.3930 C.3    96  LEU96       0.0019
     44  CD1       62.4660   58.7270    2.3850 C.3    96  LEU96       0.0001
     45  CD2       63.9280   56.6830    2.0630 C.3    96  LEU96       0.0001
     46  N         60.6210   55.0550   -2.1170 N.am   97  ALA97      -0.1966
     47  CA        59.5310   54.3270   -2.7440 C.3    97  ALA97       0.1713
     48  C         60.1450   53.4630   -3.8260 C.2    97  ALA97       0.2458
     49  O         61.2030   53.8190   -4.3420 O.2    97  ALA97      -0.2730
     50  CB        58.5280   55.2910   -3.3820 C.3    97  ALA97       0.0333
     51  N         59.4840   52.3440   -4.2090 N.am   98  PRO98      -0.2727
     52  CA        60.0140   51.5340   -5.3130 C.3    98  PRO98       0.1402
     53  C         60.1110   52.3700   -6.5960 C.2    98  PRO98       0.2269
     54  O         59.3770   53.3560   -6.7540 O.2    98  PRO98      -0.2865
     55  CB        58.9630   50.4170   -5.4820 C.3    98  PRO98       0.0296
     56  CG        58.2190   50.3970   -4.1820 C.3    98  PRO98       0.0237
     57  CD        58.2140   51.8070   -3.6880 C.3    98  PRO98       0.0939
     58  N         62.9430   50.5960   -0.4010 N.3   112  PRO112     -0.2116
     59  CA        61.8780   49.5830   -0.4290 C.3   112  PRO112      0.1372
     60  C         62.2480   48.3050   -1.2160 C.2   112  PRO112      0.2244
     61  O         63.0100   48.3790   -2.2020 O.2   112  PRO112     -0.2868
     62  CB        60.7010   50.3010   -1.1180 C.3   112  PRO112      0.0268
     63  CG        60.9400   51.7560   -0.8790 C.3   112  PRO112      0.0207
     64  CD        62.4500   51.9100   -0.9000 C.3   112  PRO112      0.0892
     65  N         46.8630   50.9250   -9.3200 N.3   137  TYR137     -0.1241
     66  CA        46.9730   52.2940   -9.8570 C.3   137  TYR137      0.1605
     67  C         47.2200   52.2700  -11.3740 C.2   137  TYR137      0.2264
     68  O         47.8920   51.3820  -11.8980 O.2   137  TYR137     -0.2867
     69  CB        48.1230   53.0690   -9.1830 C.3   137  TYR137      0.0534
     70  CG        47.9930   53.3060   -7.6740 C.ar  137  TYR137     -0.0201
     71  CD1       46.7570   53.5960   -7.0850 C.ar  137  TYR137     -0.0009
     72  CD2       49.1110   53.2570   -6.8400 C.ar  137  TYR137     -0.0009
     73  CE1       46.6440   53.8210   -5.7200 C.ar  137  TYR137      0.0417
     74  CE2       49.0110   53.4750   -5.4550 C.ar  137  TYR137      0.0417
     75  CZ        47.7820   53.7700   -4.9020 C.ar  137  TYR137      0.1957
     76  OH        47.6560   53.9950   -3.5410 O.3   137  TYR137     -0.2866
     77  N         53.6530   52.4350  -10.4760 N.3   141  TYR141     -0.1241
     78  CA        53.5770   51.4440   -9.3820 C.3   141  TYR141      0.1605
     79  C         52.5840   50.3050   -9.7090 C.2   141  TYR141      0.2264
     80  O         52.8570   49.1040   -9.4560 O.2   141  TYR141     -0.2867
     81  CB        53.1930   52.0780   -8.0510 C.3   141  TYR141      0.0534
     82  CG        53.1940   51.1070   -6.8680 C.ar  141  TYR141     -0.0201
     83  CD1       54.3890   50.5970   -6.3640 C.ar  141  TYR141     -0.0009
     84  CD2       52.0060   50.7080   -6.2490 C.ar  141  TYR141     -0.0009
     85  CE1       54.4110   49.7330   -5.2820 C.ar  141  TYR141      0.0417
     86  CE2       52.0180   49.8430   -5.1480 C.ar  141  TYR141      0.0417
     87  CZ        53.2270   49.3590   -4.6740 C.ar  141  TYR141      0.1957
     88  OH        53.2750   48.5080   -3.5870 O.3   141  TYR141     -0.2866
     89  N         44.9820   57.3670   -8.1050 N.3   167  ARG167     -0.1245
     90  CA        45.2700   57.6390   -6.7040 C.3   167  ARG167      0.1563
     91  C         44.2430   58.5150   -5.9480 C.2   167  ARG167      0.2260
     92  O         43.9810   58.2510   -4.7750 O.2   167  ARG167     -0.2867
     93  CB        46.6670   58.2460   -6.5850 C.3   167  ARG167      0.0307
     94  CG        47.7840   57.2390   -6.7910 C.3   167  ARG167      0.0489
     95  CD        49.1520   57.8840   -6.9390 C.3   167  ARG167      0.2205
     96  NE        50.0990   56.8940   -7.4440 N.pl3 167  ARG167     -0.0865
     97  CZ        50.8970   56.1750   -6.6580 C.cat 167  ARG167      0.5346
     98  NH1       50.8570   56.3580   -5.3230 N.pl3 167  ARG167      0.1354
     99  NH2       51.7170   55.2680   -7.2020 N.pl3 167  ARG167      0.1354
    100  N         48.6200   51.5370   -2.2330 N.3   192  SER192     -0.1217
    101  CA        49.4010   51.8180   -1.0210 C.3   192  SER192      0.1889
    102  C         48.6060   52.6820   -0.0600 C.2   192  SER192      0.2288
    103  O         47.5910   53.2770   -0.4540 O.2   192  SER192     -0.2866
    104  CB        50.7050   52.5420   -1.3910 C.3   192  SER192      0.2089
    105  OG        50.4520   53.6350   -2.2690 O.3   192  SER192     -0.2183
    106  N         53.3890   45.5770   -0.2250 N.3   216  HIS216     -0.1226
    107  CA        54.0900   46.2340    0.8910 C.3   216  HIS216      0.1752
    108  C         53.8490   47.7270    1.0330 C.2   216  HIS216      0.2596
    109  O         54.1320   48.3030    2.0990 O.2   216  HIS216     -0.2718
    110  CB        55.5740   45.8350    0.8980 C.3   216  HIS216      0.0759
    111  CG        56.3190   46.1200   -0.4170 C.ar  216  HIS216      0.0818
    112  ND1       55.7830   45.8660   -1.6530 N.ar  216  HIS216     -0.2268
    113  CD2       57.6300   46.5800   -0.6400 C.ar  216  HIS216      0.1154
    114  CE1       56.6970   46.2010   -2.6220 C.ar  216  HIS216      0.1986
    115  NE2       57.8320   46.6240   -1.9970 N.ar  216  HIS216     -0.2212
    116  N         53.2990   48.3620   -0.0170 N.am  217  GLY217     -0.1957
    117  CA        52.7580   49.7250    0.0840 C.3   217  GLY217      0.1869
    118  C         51.6190   49.9340    1.0980 C.2   217  GLY217      0.2309
    119  O         51.3880   51.0680    1.5350 O.2   217  GLY217     -0.2863
    120  N         56.1080   50.0400    7.6800 N.3   272  GLN272     -0.1231
    121  CA        57.0010   49.8220    6.5760 C.3   272  GLN272      0.1698
    122  C         57.7610   51.1220    6.3040 C.2   272  GLN272      0.2592
    123  O         58.9550   51.1190    6.0120 O.2   272  GLN272     -0.2718
    124  CB        56.1310   49.4810    5.3540 C.3   272  GLN272      0.0381
    125  CG        56.8500   49.3160    4.0260 C.3   272  GLN272      0.0905
    126  CD        57.5200   47.9670    3.8860 C.2   272  GLN272      0.2608
    127  OE1       57.5230   47.1260    4.8270 O.2   272  GLN272     -0.2717
    128  NE2       58.1160   47.7390    2.7180 N.am  272  GLN272     -0.0878
    129  N         57.0400   52.2380    6.3730 N.am  273  PHE273     -0.1976
    130  CA        57.5230   53.4970    5.7740 C.3   273  PHE273      0.1639
    131  C         58.5350   54.1800    6.6780 C.2   273  PHE273      0.2290
    132  O         59.5820   54.6800    6.2000 O.2   273  PHE273     -0.2864
    133  CB        56.3350   54.4140    5.4250 C.3   273  PHE273      0.0560
    134  CG        55.1890   53.6660    4.8260 C.ar  273  PHE273     -0.0200
    135  CD1       55.3660   52.9470    3.6550 C.ar  273  PHE273     -0.0042
    136  CD2       53.9580   53.6270    5.4630 C.ar  273  PHE273     -0.0042
    137  CE1       54.3310   52.2150    3.1150 C.ar  273  PHE273     -0.0003
    138  CE2       52.9120   52.8950    4.9240 C.ar  273  PHE273     -0.0003
    139  CZ        53.1000   52.1920    3.7470 C.ar  273  PHE273     -0.0000
    140  N         61.9330   52.6740    6.0820 N.3   276  HIS276     -0.1241
    141  CA        62.7410   53.1870    4.9720 C.3   276  HIS276      0.1621
    142  C         63.5360   54.4530    5.2570 C.2   276  HIS276      0.2264
    143  O         64.7060   54.5600    4.8400 O.2   276  HIS276     -0.2867
    144  CB        61.9180   53.3870    3.7050 C.3   276  HIS276      0.0745
    145  CG        61.2080   52.1500    3.2390 C.ar  276  HIS276      0.0817
    146  ND1       61.7950   50.9300    3.2300 N.ar  276  HIS276     -0.2268
    147  CD2       59.9130   51.9660    2.7690 C.ar  276  HIS276      0.1154
    148  CE1       60.9190   50.0200    2.7630 C.ar  276  HIS276      0.1986
    149  NE2       59.7730   50.6480    2.4830 N.ar  276  HIS276     -0.2212
@<TRIPOS>BOND
     1    68    67    2
     2    67    66    1
     3    77    78    1
     4    66    65    1
     5    66    69    1
     6    79    80    2
     7    79    78    1
     8    78    81    1
     9    69    70    1
    10    37    35    1
    11    34    33    2
    12    33    32    1
    13    89    90    1
    14    81    82    1
    15    35    32    1
    16    35    36    1
    17    70    71   ar
    18    70    72   ar
    19    96    95    1
    20    96    97    2
    21    99    97    1
    22    32    31    1
    23    71    73   ar
    24    95    94    1
    25    82    83   ar
    26    82    84   ar
    27    72    74   ar
    28    94    93    1
    29    54    53    2
    30    90    93    1
    31    90    91    1
    32    97    98    1
    33    53    52    1
    34    83    85   ar
    35    84    86   ar
    36    91    92    2
    37    31    26   am
    38    73    75   ar
    39    55    52    1
    40    55    56    1
    41    74    75   ar
    42    52    51    1
    43    85    87   ar
    44    27    26    2
    45    86    87   ar
    46    26    25    1
    47    75    76    1
    48    87    88    1
    49    49    48    2
    50    51    48   am
    51    51    57    1
    52    30    28    1
    53    56    57    1
    54    28    25    1
    55    28    29    1
    56    48    47    1
    57    25    24    1
    58    50    47    1
    59    24    20   am
    60    47    46    1
    61   114   115   ar
    62   114   112   ar
    63   105   104    1
    64   100   101    1
    65    61    60    2
    66    46    40   am
    67   115   113   ar
    68   112   111   ar
    69    20    21    2
    70    20    19    1
    71    18    19    1
    72    38    39    1
    73   104   101    1
    74    60    59    1
    75    62    63    1
    76    62    59    1
    77   101   102    1
    78    64    63    1
    79    64    58    1
    80    40    39    1
    81    40    41    2
    82    19    22    1
    83   113   111   ar
    84   103   102    2
    85    59    58    1
    86   111   110    1
    87    39    42    1
    88   106   107    1
    89   116   117    1
    90   116   108   am
    91   117   118    1
    92    22    23    1
    93     8     6    1
    94    42    43    1
    95   107   110    1
    96   107   108    1
    97   108   109    2
    98   118   119    2
    99    43    45    1
   100    43    44    1
   101     7     6    1
   102     6     5    1
   103     5     2    1
   104   149   148   ar
   105   149   147   ar
   106   128   126   am
   107   148   146   ar
   108   147   145   ar
   109    16    15   ar
   110    17    15   ar
   111   137   135   ar
   112   137   139   ar
   113   146   145   ar
   114   145   144    1
   115    15    14    1
   116   135   134   ar
   117   144   141    1
   118     2     1    1
   119     2     3    1
   120   139   138   ar
   121   126   125    1
   122   126   127    2
   123   125   124    1
   124     3     4    2
   125   134   133    1
   126   134   136   ar
   127   143   142    2
   128   138   136   ar
   129   141   142    1
   130   141   140    1
   131    14    13    1
   132   124   121    1
   133   133   130    1
   134    13    10    1
   135   130   129    1
   136   130   131    1
   137   123   122    2
   138   132   131    2
   139   122   129   am
   140   122   121    1
   141   121   120    1
   142    10     9    1
   143    10    11    1
   144    11    12    2
