@<TRIPOS>MOLECULE
tmp/4eysA00.pdb
 162 151 0 0 0
SMALL
GASTEIGER

@<TRIPOS>ATOM
      1  N         34.2070    4.6740   11.6110 N.3    13  ILE13      -0.1245
      2  CA        34.1470    3.7990   10.4080 C.3    13  ILE13       0.1561
      3  C         33.4040    2.4300   10.6400 C.2    13  ILE13       0.2260
      4  O         32.8050    1.9770    9.6850 O.2    13  ILE13      -0.2867
      5  CB        35.5330    3.5400    9.8190 C.3    13  ILE13       0.0252
      6  CG1       35.4430    2.8930    8.3970 C.3    13  ILE13       0.0019
      7  CG2       36.4130    2.7360   10.7610 C.3    13  ILE13       0.0019
      8  CD1       36.7840    2.7860    7.7460 C.3    13  ILE13       0.0001
      9  N         30.2390   -0.1530    4.0340 N.3    18  PHE18      -0.1227
     10  CA        31.3500   -0.6120    3.2020 C.3    18  PHE18       0.1736
     11  C         32.4460   -1.4460    3.9190 C.2    18  PHE18       0.2595
     12  O         33.3270   -1.9750    3.2430 O.2    18  PHE18      -0.2718
     13  CB        31.9670    0.5030    2.3700 C.3    18  PHE18       0.0547
     14  CG        32.7670    1.5180    3.1510 C.ar   18  PHE18      -0.0202
     15  CD1       32.1560    2.6570    3.6700 C.ar   18  PHE18      -0.0042
     16  CD2       34.1320    1.3800    3.2790 C.ar   18  PHE18      -0.0042
     17  CE1       32.9140    3.5860    4.3610 C.ar   18  PHE18      -0.0003
     18  CE2       34.9000    2.3060    4.0010 C.ar   18  PHE18      -0.0003
     19  CZ        34.2750    3.3950    4.5540 C.ar   18  PHE18      -0.0000
     20  N         32.4240   -1.4600    5.2730 N.am   19  VAL19      -0.1980
     21  CA        33.2710   -2.3390    6.0720 C.3    19  VAL19       0.1595
     22  C         32.5220   -3.4800    6.7600 C.2    19  VAL19       0.2287
     23  O         33.1160   -4.2320    7.5250 O.2    19  VAL19      -0.2864
     24  CB        34.1180   -1.5630    7.1120 C.3    19  VAL19       0.0276
     25  CG1       34.9160   -0.5100    6.3060 C.3    19  VAL19       0.0022
     26  CG2       33.2330   -0.9880    8.1710 C.3    19  VAL19       0.0022
     27  N         33.9760   -6.8570    6.8670 N.3    22  GLU22      -0.1245
     28  CA        35.1170   -6.9940    7.7560 C.3    22  GLU22       0.1567
     29  C         34.6820   -7.1390    9.2090 C.2    22  GLU22       0.2260
     30  O         35.1950   -7.9520    9.9610 O.2    22  GLU22      -0.2867
     31  CB        36.0910   -5.7610    7.6250 C.3    22  GLU22       0.0388
     32  CG        36.4610   -5.3630    6.2200 C.3    22  GLU22       0.1160
     33  CD        37.5170   -4.2530    6.2350 C.2    22  GLU22       0.3649
     34  OE1       38.6500   -4.5340    6.6700 O.co2  22  GLU22      -0.2457
     35  OE2       37.1840   -3.1440    5.7690 O.co2  22  GLU22      -0.2457
     36  N         39.3430    1.1800   16.1440 N.3    76  ILE76      -0.1231
     37  CA        40.2380    1.7300   15.1540 C.3    76  ILE76       0.1692
     38  C         40.6480    3.1600   15.6520 C.2    76  ILE76       0.2593
     39  O         40.0260    3.6600   16.5600 O.2    76  ILE76      -0.2718
     40  CB        39.5710    1.8420   13.6920 C.3    76  ILE76       0.0266
     41  CG1       40.6330    2.0780   12.6220 C.3    76  ILE76       0.0019
     42  CG2       38.4260    2.8910   13.7450 C.3    76  ILE76       0.0020
     43  CD1       41.6060    0.9620   12.3200 C.3    76  ILE76       0.0001
     44  N         41.7110    3.7020   15.0800 N.am   77  GLY77      -0.1942
     45  CA        42.1920    5.0620   15.3970 C.3    77  GLY77       0.2014
     46  C         41.4850    6.0910   14.5380 C.2    77  GLY77       0.2639
     47  O         40.2970    5.9530   14.2100 O.2    77  GLY77      -0.2714
     48  N         42.2120    7.1590   14.2740 N.am   78  GLY78      -0.1954
     49  CA        41.6200    8.3420   13.7250 C.3    78  GLY78       0.1869
     50  C         42.5260    9.4730   14.0850 C.2    78  GLY78       0.2309
     51  O         43.6950    9.2920   14.1050 O.2    78  GLY78      -0.2863
     52  N         45.5800    1.2600   19.4050 N.3   106  PHE106     -0.1227
     53  CA        46.7680    1.9710   18.9790 C.3   106  PHE106      0.1736
     54  C         46.4450    3.1980   18.1330 C.2   106  PHE106      0.2596
     55  O         45.3210    3.5240   17.9580 O.2   106  PHE106     -0.2718
     56  CB        47.8230    1.0550   18.3160 C.3   106  PHE106      0.0547
     57  CG        47.4950    0.5510   16.9450 C.ar  106  PHE106     -0.0202
     58  CD1       46.5240   -0.4150   16.7690 C.ar  106  PHE106     -0.0042
     59  CD2       48.2370    0.9720   15.8320 C.ar  106  PHE106     -0.0042
     60  CE1       46.2990   -0.9200   15.5120 C.ar  106  PHE106     -0.0003
     61  CE2       47.9630    0.4750   14.5420 C.ar  106  PHE106     -0.0003
     62  CZ        47.0060   -0.5360   14.4180 C.ar  106  PHE106     -0.0000
     63  N         47.5010    3.8680   17.6920 N.am  107  SER107     -0.1952
     64  CA        47.3610    5.0160   16.7670 C.3   107  SER107      0.1924
     65  C         46.8050    6.2470   17.5340 C.2   107  SER107      0.2314
     66  O         47.3830    6.6020   18.5830 O.2   107  SER107     -0.2863
     67  CB        46.5990    4.6390   15.5200 C.3   107  SER107      0.2116
     68  OG        47.1150    5.6130   14.5400 O.3   107  SER107     -0.2180
     69  N         43.9750   -3.3150   17.2190 N.3   126  SER126     -0.1217
     70  CA        42.6040   -2.8770   17.2760 C.3   126  SER126      0.1889
     71  C         41.6670   -3.8570   16.6160 C.2   126  SER126      0.2288
     72  O         42.1260   -4.7450   15.9380 O.2   126  SER126     -0.2866
     73  CB        42.4640   -1.4550   16.6980 C.3   126  SER126      0.2089
     74  OG        42.7120   -1.4470   15.2990 O.3   126  SER126     -0.2183
     75  N         39.3010   -3.4470   14.0610 N.3   128  LEU128     -0.1231
     76  CA        39.3190   -3.4040   12.5990 C.3   128  LEU128      0.1693
     77  C         40.6370   -3.7990   11.9910 C.2   128  LEU128      0.2591
     78  O         40.6920   -4.4720   10.9940 O.2   128  LEU128     -0.2718
     79  CB        38.7640   -2.0560   12.0660 C.3   128  LEU128      0.0284
     80  CG        38.6070   -1.9310   10.5490 C.3   128  LEU128      0.0019
     81  CD1       37.7060   -3.0170    9.9800 C.3   128  LEU128      0.0001
     82  CD2       38.0670   -0.5330   10.1740 C.3   128  LEU128      0.0001
     83  N         41.7230   -3.3260   12.5730 N.am  129  ALA129     -0.1980
     84  CA        43.0430   -3.5290   12.0150 C.3   129  ALA129      0.1597
     85  C         43.5710   -4.9840   12.1170 C.2   129  ALA129      0.2287
     86  O         44.2820   -5.4470   11.2200 O.2   129  ALA129     -0.2864
     87  CB        44.0480   -2.5500   12.6370 C.3   129  ALA129      0.0319
     88  N         39.8930   -8.2020   12.4670 N.3   132  CYS132     -0.1235
     89  CA        39.1300   -8.2930   11.2010 C.3   132  CYS132      0.1677
     90  C         40.0220   -8.6170    9.9750 C.2   132  CYS132      0.2270
     91  O         39.6650   -8.3830    8.8190 O.2   132  CYS132     -0.2867
     92  CB        38.2560   -7.0420   10.9950 C.3   132  CYS132      0.0956
     93  SG        37.0170   -6.7260   12.1680 S.3   132  CYS132     -0.0801
     94  N         41.5510   -9.9340    6.8670 N.3   134  LEU134     -0.1245
     95  CA        40.7240  -10.4490    5.7500 C.3   134  LEU134      0.1561
     96  C         41.1830  -11.7660    5.2010 C.2   134  LEU134      0.2260
     97  O         40.4980  -12.3160    4.4200 O.2   134  LEU134     -0.2867
     98  CB        40.6070   -9.4510    4.5660 C.3   134  LEU134      0.0270
     99  CG        39.7980   -8.1930    4.8160 C.3   134  LEU134      0.0019
    100  CD1       40.1090   -7.2100    3.6920 C.3   134  LEU134      0.0001
    101  CD2       38.2880   -8.4120    4.9370 C.3   134  LEU134      0.0001
    102  N         50.7740   -3.3470    3.9030 N.3   166  GLU166     -0.1245
    103  CA        49.3610   -3.0270    4.0340 C.3   166  GLU166      0.1567
    104  C         48.5980   -3.2980    2.7350 C.2   166  GLU166      0.2260
    105  O         49.1160   -3.0920    1.6330 O.2   166  GLU166     -0.2867
    106  CB        49.1280   -1.5860    4.5040 C.3   166  GLU166      0.0388
    107  CG        47.6900   -1.2620    4.8390 C.3   166  GLU166      0.1160
    108  CD        47.0490   -2.1410    5.9130 C.2   166  GLU166      0.3649
    109  OE1       46.7800   -3.3570    5.6650 O.co2 166  GLU166     -0.2457
    110  OE2       46.7470   -1.5940    6.9900 O.co2 166  GLU166     -0.2457
    111  N         40.5030   -3.6850    0.5900 N.3   170  PHE170     -0.1241
    112  CA        39.7820   -4.1750    1.8250 C.3   170  PHE170      0.1605
    113  C         38.3340   -4.5620    1.5500 C.2   170  PHE170      0.2264
    114  O         37.5400   -4.8560    2.4590 O.2   170  PHE170     -0.2867
    115  CB        39.8050   -3.1450    2.9580 C.3   170  PHE170      0.0534
    116  CG        41.1640   -2.9040    3.5520 C.ar  170  PHE170     -0.0203
    117  CD1       41.6570   -3.7100    4.5640 C.ar  170  PHE170     -0.0042
    118  CD2       41.9350   -1.8030    3.1500 C.ar  170  PHE170     -0.0042
    119  CE1       42.8890   -3.4520    5.1530 C.ar  170  PHE170     -0.0003
    120  CE2       43.1760   -1.5590    3.7320 C.ar  170  PHE170     -0.0003
    121  CZ        43.6680   -2.3920    4.7190 C.ar  170  PHE170     -0.0000
    122  N         48.2890  -11.1840    2.3330 N.3   179  ARG179     -0.1245
    123  CA        49.1180  -10.0120    2.2700 C.3   179  ARG179      0.1563
    124  C         50.4190  -10.3470    1.6430 C.2   179  ARG179      0.2260
    125  O         50.8790  -11.4760    1.6330 O.2   179  ARG179     -0.2867
    126  CB        49.3670   -9.4610    3.6990 C.3   179  ARG179      0.0307
    127  CG        48.1680   -8.7600    4.3010 C.3   179  ARG179      0.0489
    128  CD        48.4580   -8.4840    5.7730 C.3   179  ARG179      0.2205
    129  NE        47.3630   -7.8870    6.5060 N.pl3 179  ARG179     -0.0865
    130  CZ        47.1350   -6.6040    6.6140 C.cat 179  ARG179      0.5346
    131  NH1       47.9520   -5.7480    6.0150 N.pl3 179  ARG179      0.1354
    132  NH2       46.1250   -6.1780    7.3620 N.pl3 179  ARG179      0.1354
    133  N         49.9220    5.5140    9.0830 N.3   247  GLU247     -0.1245
    134  CA        49.6500    5.4240    7.6450 C.3   247  GLU247      0.1567
    135  C         49.8780    6.7650    6.9310 C.2   247  GLU247      0.2260
    136  O         49.9930    6.8330    5.6830 O.2   247  GLU247     -0.2867
    137  CB        48.2260    4.9000    7.3880 C.3   247  GLU247      0.0388
    138  CG        47.0670    5.8310    7.6620 C.3   247  GLU247      0.1160
    139  CD        46.7260    6.0060    9.1310 C.2   247  GLU247      0.3649
    140  OE1       46.0320    7.0400    9.4150 O.co2 247  GLU247     -0.2457
    141  OE2       47.1550    5.1940    9.9860 O.co2 247  GLU247     -0.2457
    142  N         52.1050    0.3910   13.0150 N.3   308  HIS308     -0.1241
    143  CA        51.2890    0.3900   11.7940 C.3   308  HIS308      0.1621
    144  C         51.6640   -0.6710   10.7470 C.2   308  HIS308      0.2264
    145  O         50.7960   -0.9880    9.8730 O.2   308  HIS308     -0.2867
    146  CB        51.1400    1.7780   11.2180 C.3   308  HIS308      0.0745
    147  CG        50.2000    2.6450   12.0040 C.ar  308  HIS308      0.0817
    148  ND1       50.5410    3.1850   13.2510 N.ar  308  HIS308     -0.2268
    149  CD2       48.9060    3.0310   11.7270 C.ar  308  HIS308      0.1154
    150  CE1       49.4800    3.9450   13.6530 C.ar  308  HIS308      0.1986
    151  NE2       48.5000    3.8300   12.7540 N.ar  308  HIS308     -0.2212
    152  N         51.5410   -7.5490   14.2590 N.3   312  ARG312     -0.1245
    153  CA        51.5480   -6.6040   15.4210 C.3   312  ARG312      0.1563
    154  C         51.6380   -7.2430   16.7690 C.2   312  ARG312      0.2260
    155  O         50.7770   -8.0910   17.0890 O.2   312  ARG312     -0.2867
    156  CB        50.2840   -5.7460   15.4080 C.3   312  ARG312      0.0307
    157  CG        50.1610   -4.8740   14.1750 C.3   312  ARG312      0.0489
    158  CD        49.0680   -3.8320   14.3120 C.3   312  ARG312      0.2205
    159  NE        49.0970   -3.0200   13.0970 N.pl3 312  ARG312     -0.0865
    160  CZ        48.3090   -3.1690   12.0500 C.cat 312  ARG312      0.5346
    161  NH1       48.4240   -2.3630   11.0280 N.pl3 312  ARG312      0.1354
    162  NH2       47.3020   -4.0660   12.0120 N.pl3 312  ARG312      0.1354
@<TRIPOS>BOND
     1   111   112    1
     2   113   112    1
     3   113   114    2
     4   105   104    2
     5   125   124    2
     6   124   123    1
     7   112   115    1
     8   123   122    1
     9   123   126    1
    10    13    14    1
    11    13    10    1
    12   104   103    1
    13   115   116    1
    14   118   116   ar
    15   118   120   ar
    16    14    16   ar
    17    14    15   ar
    18    10    11    1
    19    10     9    1
    20    12    11    2
    21    16    18   ar
    22   116   117   ar
    23    15    17   ar
    24   100    99    1
    25   126   127    1
    26   120   121   ar
    27   102   103    1
    28    11    20   am
    29    18    19   ar
    30   103   106    1
    31   127   128    1
    32    17    19   ar
    33    97    96    2
    34   106   107    1
    35   117   119   ar
    36    98    99    1
    37    98    95    1
    38   121   119   ar
    39    99   101    1
    40   107   108    1
    41    96    95    1
    42    20    21    1
    43   109   108   ar
    44   136   135    2
    45    95    94    1
    46    35    33   ar
    47   128   129    1
    48   108   110   ar
    49   131   130    1
    50    21    22    1
    51    21    24    1
    52    32    33    1
    53    32    31    1
    54    33    34   ar
    55    25    24    1
    56   129   130    2
    57   130   132    1
    58    22    23    2
    59    27    28    1
    60   135   134    1
    61    24    26    1
    62   137   134    1
    63   137   138    1
    64    31    28    1
    65   134   133    1
    66   138   139    1
    67     8     6    1
    68    28    29    1
    69     6     5    1
    70    91    90    2
    71   139   140   ar
    72   139   141   ar
    73    29    30    2
    74     4     3    2
    75     5     2    1
    76     5     7    1
    77   145   144    2
    78    90    89    1
    79    81    80    1
    80    82    80    1
    81     2     3    1
    82     2     1    1
    83    80    79    1
    84   144   143    1
    85    78    77    2
    86    92    89    1
    87    92    93    1
    88   161   160    1
    89    89    88    1
    90   146   143    1
    91   146   147    1
    92    86    85    2
    93   149   147   ar
    94   149   151   ar
    95   143   142    1
    96    77    83   am
    97    77    76    1
    98   147   148   ar
    99   162   160    1
   100    84    85    1
   101    84    83    1
   102    84    87    1
   103   160   159    2
   104    79    76    1
   105    43    41    1
   106    76    75    1
   107    41    40    1
   108   151   150   ar
   109   159   158    1
   110   148   150   ar
   111    40    42    1
   112    40    37    1
   113    49    50    1
   114    49    48    1
   115    50    51    2
   116   157   158    1
   117   157   156    1
   118    47    46    2
   119   152   153    1
   120    48    46   am
   121    62    61   ar
   122    62    60   ar
   123    46    45    1
   124    68    67    1
   125    61    59   ar
   126    44    45    1
   127    44    38   am
   128    37    38    1
   129    37    36    1
   130    74    73    1
   131   156   153    1
   132   153   154    1
   133    60    58   ar
   134    67    64    1
   135    38    39    2
   136    59    57   ar
   137    72    71    2
   138    71    70    1
   139    73    70    1
   140    64    65    1
   141    64    63    1
   142    58    57   ar
   143   154   155    2
   144    57    56    1
   145    69    70    1
   146    65    66    2
   147    63    54   am
   148    55    54    2
   149    54    53    1
   150    56    53    1
   151    53    52    1
