@<TRIPOS>MOLECULE
tmp/4eyuA00.pdb
 116 109 0 0 0
SMALL
GASTEIGER

@<TRIPOS>ATOM
      1  N         10.3610   11.7640  -48.4100 N.3   151  PHE151     -0.1241
      2  CA         9.2770   10.8980  -47.9530 C.3   151  PHE151      0.1605
      3  C          8.5750   11.5310  -46.7460 C.2   151  PHE151      0.2264
      4  O          9.2040   11.7900  -45.7150 O.2   151  PHE151     -0.2867
      5  CB         9.8560    9.5200  -47.6120 C.3   151  PHE151      0.0534
      6  CG         8.9030    8.6000  -46.8880 C.ar  151  PHE151     -0.0203
      7  CD1        7.5360    8.8190  -46.9080 C.ar  151  PHE151     -0.0042
      8  CD2        9.3900    7.5110  -46.1740 C.ar  151  PHE151     -0.0042
      9  CE1        6.6700    7.9670  -46.2350 C.ar  151  PHE151     -0.0003
     10  CE2        8.5370    6.6620  -45.4990 C.ar  151  PHE151     -0.0003
     11  CZ         7.1710    6.8860  -45.5350 C.ar  151  PHE151     -0.0000
     12  N          0.9480    8.8120  -43.7100 N.3   202  TYR202     -0.1241
     13  CA         2.1510    8.8310  -44.5390 C.3   202  TYR202      0.1605
     14  C          1.8350    9.4170  -45.9070 C.2   202  TYR202      0.2264
     15  O          0.8480    9.0370  -46.5330 O.2   202  TYR202     -0.2867
     16  CB         2.7050    7.4180  -44.7330 C.3   202  TYR202      0.0534
     17  CG         3.1080    6.7030  -43.4660 C.ar  202  TYR202     -0.0201
     18  CD1        4.4180    6.7460  -43.0040 C.ar  202  TYR202     -0.0009
     19  CD2        2.1820    5.9640  -42.7420 C.ar  202  TYR202     -0.0009
     20  CE1        4.7920    6.0870  -41.8500 C.ar  202  TYR202      0.0417
     21  CE2        2.5450    5.3000  -41.5870 C.ar  202  TYR202      0.0417
     22  CZ         3.8520    5.3640  -41.1470 C.ar  202  TYR202      0.1957
     23  OH         4.2170    4.7040  -39.9950 O.3   202  TYR202     -0.2866
     24  N          3.5460    9.6820  -49.5970 N.3   204  LYS204     -0.1245
     25  CA         4.6510    9.0120  -50.2740 C.3   204  LYS204      0.1561
     26  C          4.8580    9.3750  -51.7450 C.2   204  LYS204      0.2260
     27  O          3.9350    9.7980  -52.4410 O.2   204  LYS204     -0.2867
     28  CB         4.4960    7.4950  -50.1530 C.3   204  LYS204      0.0271
     29  CG         4.3110    6.9970  -48.7310 C.3   204  LYS204      0.0035
     30  CD         4.3050    5.4830  -48.6900 C.3   204  LYS204      0.0206
     31  CE         3.9030    4.9720  -47.3200 C.3   204  LYS204      0.1093
     32  NZ         3.7990    3.4830  -47.3030 N.3   204  LYS204     -0.1314
     33  N          9.9760    2.6860  -45.5480 N.3   210  THR210     -0.1218
     34  CA        10.0290    2.5370  -44.1070 C.3   210  THR210      0.1862
     35  C         10.8770    1.2970  -43.8640 C.2   210  THR210      0.2287
     36  O         10.5240    0.2050  -44.3190 O.2   210  THR210     -0.2866
     37  CB         8.6170    2.3370  -43.4820 C.3   210  THR210      0.1770
     38  OG1        7.7870    3.4550  -43.8120 O.3   210  THR210     -0.2211
     39  CG2        8.7150    2.2190  -41.9550 C.3   210  THR210      0.0375
     40  N         11.5160   -3.1530  -39.1110 N.3   213  HIS213     -0.1241
     41  CA        11.1730   -2.9790  -37.7090 C.3   213  HIS213      0.1621
     42  C         10.1160   -3.9450  -37.2300 C.2   213  HIS213      0.2264
     43  O          9.4170   -4.5850  -38.0240 O.2   213  HIS213     -0.2867
     44  CB        10.6850   -1.5540  -37.4460 C.3   213  HIS213      0.0745
     45  CG         9.4210   -1.2060  -38.1720 C.ar  213  HIS213      0.0817
     46  ND1        9.4000   -0.9070  -39.5190 N.ar  213  HIS213     -0.2268
     47  CD2        8.1420   -1.1110  -37.7440 C.ar  213  HIS213      0.1154
     48  CE1        8.1610   -0.6410  -39.8840 C.ar  213  HIS213      0.1986
     49  NE2        7.3780   -0.7460  -38.8270 N.ar  213  HIS213     -0.2212
     50  N          6.8480   -3.4620  -34.3840 N.3   215  GLU215     -0.1245
     51  CA         6.1300   -2.3760  -33.7370 C.3   215  GLU215      0.1567
     52  C          6.5480   -2.2840  -32.2690 C.2   215  GLU215      0.2260
     53  O          6.9920   -3.2710  -31.6870 O.2   215  GLU215     -0.2867
     54  CB         4.6160   -2.5860  -33.8530 C.3   215  GLU215      0.0388
     55  CG         4.1080   -2.7840  -35.2860 C.3   215  GLU215      0.1160
     56  CD         4.2640   -1.5360  -36.1350 C.2   215  GLU215      0.3649
     57  OE1        4.0040   -0.4270  -35.6270 O.co2 215  GLU215     -0.2457
     58  OE2        4.6640   -1.6560  -37.3100 O.co2 215  GLU215     -0.2457
     59  N         -0.4600   -3.9710  -35.9800 N.3   221  SER221     -0.1217
     60  CA        -0.5640   -2.7520  -36.7620 C.3   221  SER221      0.1889
     61  C         -1.6600   -2.8560  -37.8190 C.2   221  SER221      0.2288
     62  O         -1.9210   -3.9300  -38.3730 O.2   221  SER221     -0.2866
     63  CB         0.7810   -2.4140  -37.4200 C.3   221  SER221      0.2089
     64  OG         0.8210   -1.0500  -37.8050 O.3   221  SER221     -0.2183
     65  N         -3.0070   -0.8370  -41.3450 N.3   223  ASN223     -0.1240
     66  CA        -2.5580    0.1180  -42.3490 C.3   223  ASN223      0.1653
     67  C         -3.4890    0.1450  -43.5440 C.2   223  ASN223      0.2266
     68  O         -3.8180   -0.8980  -44.1140 O.2   223  ASN223     -0.2867
     69  CB        -1.1480   -0.2410  -42.8240 C.3   223  ASN223      0.1155
     70  CG        -0.5740    0.7860  -43.7830 C.2   223  ASN223      0.2627
     71  OD1       -1.0590    0.9540  -44.9040 O.2   223  ASN223     -0.2716
     72  ND2        0.4760    1.4750  -43.3480 N.am  223  ASN223     -0.0877
     73  N          5.1940   -4.6800  -49.7480 N.3   233  TRP233     -0.1241
     74  CA         5.4100   -5.0480  -48.3630 C.3   233  TRP233      0.1605
     75  C          6.2770   -6.2880  -48.2580 C.2   233  TRP233      0.2264
     76  O          6.1460   -7.2120  -49.0570 O.2   233  TRP233     -0.2867
     77  CB         4.0680   -5.3470  -47.6850 C.3   233  TRP233      0.0550
     78  CG         3.2600   -4.1410  -47.3370 C.ar  233  TRP233      0.0003
     79  CD1        2.5750   -3.3390  -48.1990 C.ar  233  TRP233      0.0946
     80  CD2        3.0410   -3.6040  -46.0240 C.ar  233  TRP233      0.0152
     81  NE1        1.9480   -2.3300  -47.5090 N.ar  233  TRP233     -0.2442
     82  CE2        2.2160   -2.4710  -46.1730 C.ar  233  TRP233      0.0810
     83  CE3        3.4620   -3.9710  -44.7390 C.ar  233  TRP233      0.0012
     84  CZ2        1.8080   -1.6970  -45.0880 C.ar  233  TRP233      0.0191
     85  CZ3        3.0550   -3.2030  -43.6610 C.ar  233  TRP233      0.0001
     86  CH2        2.2330   -2.0810  -43.8400 C.ar  233  TRP233      0.0015
     87  N         -0.9500   -6.2980  -39.5520 N.3   287  ILE287     -0.1245
     88  CA         0.3590   -6.8250  -39.1610 C.3   287  ILE287      0.1561
     89  C          0.2100   -7.4790  -37.7940 C.2   287  ILE287      0.2260
     90  O         -0.0690   -6.8050  -36.8040 O.2   287  ILE287     -0.2867
     91  CB         1.4300   -5.7230  -39.1390 C.3   287  ILE287      0.0252
     92  CG1        1.4980   -5.0160  -40.4990 C.3   287  ILE287      0.0019
     93  CG2        2.8090   -6.2820  -38.7480 C.3   287  ILE287      0.0019
     94  CD1        0.5260   -3.8560  -40.6450 C.3   287  ILE287      0.0001
     95  N          8.6670   -6.3120  -40.4690 N.3   293  HIS293     -0.1241
     96  CA         8.2540   -5.8680  -41.7930 C.3   293  HIS293      0.1621
     97  C          9.0230   -4.6330  -42.2320 C.2   293  HIS293      0.2264
     98  O          9.6630   -3.9540  -41.4250 O.2   293  HIS293     -0.2867
     99  CB         6.7350   -5.5990  -41.8390 C.3   293  HIS293      0.0745
    100  CG         6.2520   -4.6910  -40.7520 C.ar  293  HIS293      0.0817
    101  ND1        6.9920   -4.4030  -39.6390 N.ar  293  HIS293     -0.2268
    102  CD2        5.1070   -3.9790  -40.6190 C.ar  293  HIS293      0.1154
    103  CE1        6.3350   -3.5740  -38.8610 C.ar  293  HIS293      0.1986
    104  NE2        5.1670   -3.3200  -39.4270 N.ar  293  HIS293     -0.2212
    105  N          8.6320   -1.5750  -45.7580 N.3   295  VAL295     -0.1245
    106  CA         7.6940   -1.1960  -46.7980 C.3   295  VAL295      0.1561
    107  C          8.2520   -0.1820  -47.7810 C.2   295  VAL295      0.2260
    108  O          9.0370    0.6900  -47.4170 O.2   295  VAL295     -0.2867
    109  CB         6.4180   -0.5870  -46.1860 C.3   295  VAL295      0.0252
    110  CG1        5.3270   -0.4900  -47.2400 C.3   295  VAL295      0.0019
    111  CG2        5.9580   -1.4110  -44.9790 C.3   295  VAL295      0.0019
    112  N         -2.1340    4.6110  -40.6660 N.3   305  ALA305     -0.1245
    113  CA        -1.7950    3.4800  -39.8210 C.3   305  ALA305      0.1562
    114  C         -1.9320    3.8390  -38.3450 C.2   305  ALA305      0.2260
    115  O         -1.9160    5.0100  -37.9630 O.2   305  ALA305     -0.2867
    116  CB        -0.3690    3.0110  -40.1230 C.3   305  ALA305      0.0290
@<TRIPOS>BOND
     1    27    26    2
     2    26    25    1
     3    25    28    1
     4    25    24    1
     5    28    29    1
     6    73    74    1
     7    76    75    2
     8    29    30    1
     9    30    31    1
    10     1     2    1
    11    74    75    1
    12    74    77    1
    13    79    81   ar
    14    79    78   ar
    15     2     5    1
    16     2     3    1
    17   107   108    2
    18   107   106    1
    19    77    78    1
    20     5     6    1
    21    81    82   ar
    22    78    80   ar
    23    31    32    1
    24   110   109    1
    25     7     6   ar
    26     7     9   ar
    27     6     8   ar
    28   106   109    1
    29   106   105    1
    30     3     4    2
    31    15    14    2
    32     9    11   ar
    33   109   111    1
    34     8    10   ar
    35    82    80   ar
    36    82    84   ar
    37    80    83   ar
    38    14    13    1
    39    33    34    1
    40    11    10   ar
    41    84    86   ar
    42    71    70    2
    43    83    85   ar
    44    16    13    1
    45    16    17    1
    46    13    12    1
    47    36    35    2
    48    68    67    2
    49    34    35    1
    50    34    37    1
    51    86    85   ar
    52    38    37    1
    53    70    72   am
    54    70    69    1
    55    67    66    1
    56    37    39    1
    57    17    18   ar
    58    17    19   ar
    59    18    20   ar
    60    69    66    1
    61    19    21   ar
    62    66    65    1
    63    97    96    1
    64    97    98    2
    65    20    22   ar
    66    99    96    1
    67    99   100    1
    68    96    95    1
    69    21    22   ar
    70    22    23    1
    71   100   102   ar
    72   100   101   ar
    73   112   113    1
    74    94    92    1
    75   102   104   ar
    76    92    91    1
    77   116   113    1
    78    48    46   ar
    79    48    49   ar
    80   113   114    1
    81   101   103   ar
    82    87    88    1
    83    46    45   ar
    84   104   103   ar
    85    88    91    1
    86    88    89    1
    87    91    93    1
    88    40    41    1
    89    49    47   ar
    90    62    61    2
    91   114   115    2
    92    45    47   ar
    93    45    44    1
    94    43    42    2
    95    61    60    1
    96    64    63    1
    97    89    90    2
    98    41    44    1
    99    41    42    1
   100    63    60    1
   101    58    56   ar
   102    60    59    1
   103    56    57   ar
   104    56    55    1
   105    55    54    1
   106    50    51    1
   107    54    51    1
   108    51    52    1
   109    52    53    2
