@<TRIPOS>MOLECULE
tmp/4eywB01.pdb
 193 191 0 0 0
SMALL
GASTEIGER

@<TRIPOS>ATOM
      1  N         20.5460   79.8340  119.6220 N.3   109  PRO109     -0.2102
      2  CA        19.8050   80.9030  118.9440 C.3   109  PRO109      0.1504
      3  C         19.3380   80.4500  117.5480 C.2   109  PRO109      0.2576
      4  O         19.5500   79.2840  117.1830 O.2   109  PRO109     -0.2718
      5  CB        20.8610   81.9970  118.7920 C.3   109  PRO109      0.0282
      6  CG        22.1440   81.2250  118.6130 C.3   109  PRO109      0.0208
      7  CD        21.9820   79.8780  119.2940 C.3   109  PRO109      0.0893
      8  N         18.7000   81.3440  116.7930 N.am  110  PHE110     -0.1963
      9  CA        18.3390   81.0550  115.4030 C.3   110  PHE110      0.1771
     10  C         18.5880   82.2860  114.5230 C.2   110  PHE110      0.2619
     11  O         18.6600   83.4130  115.0220 O.2   110  PHE110     -0.2715
     12  CB        16.8610   80.6240  115.2770 C.3   110  PHE110      0.0574
     13  CG        15.8860   81.7860  115.2960 C.ar  110  PHE110     -0.0200
     14  CD1       15.4980   82.4210  114.1080 C.ar  110  PHE110     -0.0042
     15  CD2       15.3630   82.2450  116.4980 C.ar  110  PHE110     -0.0042
     16  CE1       14.6070   83.5100  114.1300 C.ar  110  PHE110     -0.0003
     17  CE2       14.4620   83.3200  116.5290 C.ar  110  PHE110     -0.0003
     18  CZ        14.0900   83.9570  115.3500 C.ar  110  PHE110     -0.0000
     19  N         18.7340   82.0460  113.2190 N.am  111  MET111     -0.1977
     20  CA        18.6930   83.0770  112.1790 C.3   111  MET111      0.1605
     21  C         17.7380   82.5760  111.0980 C.2   111  MET111      0.2287
     22  O         17.8130   81.4180  110.6860 O.2   111  MET111     -0.2864
     23  CB        20.0620   83.2580  111.5040 C.3   111  MET111      0.0413
     24  CG        21.1430   83.8500  112.3840 C.3   111  MET111      0.0598
     25  SD        22.7170   83.9660  111.4790 S.3   111  MET111     -0.1393
     26  CE        22.9110   82.3170  110.8690 C.3   111  MET111      0.0692
     27  N          5.3320   87.1130  112.6170 N.3   311  LEU311     -0.1245
     28  CA         6.7440   87.1260  113.0260 C.3   311  LEU311      0.1561
     29  C          6.9660   86.5600  114.4270 C.2   311  LEU311      0.2260
     30  O          8.0190   86.0010  114.7290 O.2   311  LEU311     -0.2867
     31  CB         7.3400   88.5360  112.9500 C.3   311  LEU311      0.0270
     32  CG         7.6880   89.0510  111.5530 C.3   311  LEU311      0.0019
     33  CD1        8.3440   90.4330  111.6330 C.3   311  LEU311      0.0001
     34  CD2        8.5920   88.0590  110.8070 C.3   311  LEU311      0.0001
     35  N         20.8560   76.6930  115.7860 N.3   346  PHE346     -0.1241
     36  CA        22.1180   75.9800  115.9920 C.3   346  PHE346      0.1605
     37  C         22.5560   75.8290  117.4460 C.2   346  PHE346      0.2264
     38  O         22.1700   76.6140  118.3100 O.2   346  PHE346     -0.2867
     39  CB        23.2450   76.5650  115.1110 C.3   346  PHE346      0.0534
     40  CG        23.6110   77.9860  115.4350 C.ar  346  PHE346     -0.0203
     41  CD1       22.8750   79.0440  114.9220 C.ar  346  PHE346     -0.0042
     42  CD2       24.7240   78.2650  116.2120 C.ar  346  PHE346     -0.0042
     43  CE1       23.2300   80.3540  115.2040 C.ar  346  PHE346     -0.0003
     44  CE2       25.0830   79.5710  116.5030 C.ar  346  PHE346     -0.0003
     45  CZ        24.3370   80.6140  115.9920 C.ar  346  PHE346     -0.0000
     46  N          8.9130   92.2630  118.0430 N.3   421  SER421     -0.1202
     47  CA         9.8710   92.9630  117.2040 C.3   421  SER421      0.2020
     48  C          9.3790   94.3620  116.8410 C.2   421  SER421      0.2619
     49  O          8.1910   94.6570  116.9670 O.2   421  SER421     -0.2717
     50  CB        10.1260   92.1660  115.9180 C.3   421  SER421      0.2103
     51  OG         8.9290   92.0430  115.1680 O.3   421  SER421     -0.2182
     52  N         10.2970   95.2210  116.4150 N.am  422  ILE422     -0.1965
     53  CA         9.9200   96.4840  115.7840 C.3   422  ILE422      0.1727
     54  C         10.8090   96.8080  114.5980 C.2   422  ILE422      0.2616
     55  O         11.8900   96.2410  114.4320 O.2   422  ILE422     -0.2715
     56  CB         9.9960   97.6990  116.7330 C.3   422  ILE422      0.0290
     57  CG1       11.3830   97.7970  117.3610 C.3   422  ILE422      0.0022
     58  CG2        8.8710   97.6760  117.7620 C.3   422  ILE422      0.0023
     59  CD1       11.7260   99.2040  117.8160 C.3   422  ILE422      0.0001
     60  N         10.3390   97.7410  113.7790 N.am  423  GLN423     -0.1977
     61  CA        11.1240   98.2790  112.6740 C.3   423  GLN423      0.1601
     62  C         11.0330   99.7940  112.7220 C.2   423  GLN423      0.2287
     63  O         10.0310  100.3640  112.2910 O.2   423  GLN423     -0.2864
     64  CB        10.5800   97.7960  111.3280 C.3   423  GLN423      0.0394
     65  CG        10.4540   96.2900  111.1830 C.3   423  GLN423      0.0908
     66  CD         9.9240   95.8840  109.8160 C.2   423  GLN423      0.2608
     67  OE1       10.1080   96.5980  108.8260 O.2   423  GLN423     -0.2717
     68  NE2        9.2550   94.7350  109.7580 N.am  423  GLN423     -0.0878
     69  N         22.9480   91.1510  120.5760 N.3   566  SER566     -0.1202
     70  CA        23.7310   90.5700  119.5030 C.3   566  SER566      0.2020
     71  C         23.2880   91.1440  118.1720 C.2   566  SER566      0.2619
     72  O         22.0990   91.3690  117.9520 O.2   566  SER566     -0.2717
     73  CB        23.5360   89.0550  119.4770 C.3   566  SER566      0.2103
     74  OG        24.4850   88.4510  118.6210 O.3   566  SER566     -0.2182
     75  N         24.2410   91.3730  117.2740 N.am  567  THR567     -0.1938
     76  CA        23.8780   91.9050  115.9690 C.3   567  THR567      0.2028
     77  C         24.6360   91.2130  114.8550 C.2   567  THR567      0.2642
     78  O         25.7010   90.6400  115.0710 O.2   567  THR567     -0.2714
     79  CB        24.1100   93.4340  115.8730 C.3   567  THR567      0.1808
     80  OG1       23.5230   93.9340  114.6660 O.3   567  THR567     -0.2208
     81  CG2       25.6000   93.7770  115.8840 C.3   567  THR567      0.0379
     82  N         24.0710   91.2720  113.6620 N.am  568  LEU568     -0.1977
     83  CA        24.8120   90.9180  112.4640 C.3   568  LEU568      0.1596
     84  C         24.2260   91.6800  111.2850 C.2   568  LEU568      0.2287
     85  O         23.0970   92.1700  111.3400 O.2   568  LEU568     -0.2864
     86  CB        24.7850   89.4050  112.2200 C.3   568  LEU568      0.0297
     87  CG        23.4290   88.6960  112.1100 C.3   568  LEU568      0.0022
     88  CD1       22.7640   88.8820  110.7460 C.3   568  LEU568      0.0001
     89  CD2       23.6110   87.2260  112.3980 C.3   568  LEU568      0.0001
     90  N         19.6900   87.3490  105.8670 N.3   573  VAL573     -0.1231
     91  CA        18.9620   87.1890  107.1360 C.3   573  VAL573      0.1692
     92  C         17.7460   88.0930  107.2640 C.2   573  VAL573      0.2593
     93  O         17.8840   89.3150  107.2500 O.2   573  VAL573     -0.2718
     94  CB        19.8880   87.4820  108.3500 C.3   573  VAL573      0.0266
     95  CG1       19.1010   87.3920  109.6670 C.3   573  VAL573      0.0020
     96  CG2       21.0880   86.5460  108.3630 C.3   573  VAL573      0.0020
     97  N         16.5570   87.5080  107.4120 N.am  574  SER574     -0.1938
     98  CA        15.3610   88.3130  107.6780 C.3   574  SER574      0.2055
     99  C         15.3390   88.7960  109.1280 C.2   574  SER574      0.2643
    100  O         15.1000   89.9740  109.4000 O.2   574  SER574     -0.2714
    101  CB        14.0690   87.5470  107.3460 C.3   574  SER574      0.2130
    102  OG        13.9840   86.3230  108.0580 O.3   574  SER574     -0.2179
    103  N         15.5800   87.8750  110.0600 N.am  575  LEU575     -0.1963
    104  CA        15.7270   88.2390  111.4620 C.3   575  LEU575      0.1728
    105  C         16.3680   87.0930  112.2120 C.2   575  LEU575      0.2617
    106  O         16.4640   85.9790  111.6990 O.2   575  LEU575     -0.2715
    107  CB        14.3860   88.5730  112.1040 C.3   575  LEU575      0.0311
    108  CG        13.4500   87.3810  112.3080 C.3   575  LEU575      0.0022
    109  CD1       12.4560   87.6920  113.4070 C.3   575  LEU575      0.0001
    110  CD2       12.7260   87.0690  111.0030 C.3   575  LEU575      0.0001
    111  N         16.8130   87.3780  113.4260 N.am  576  GLY576     -0.1940
    112  CA        17.3900   86.3570  114.2740 C.3   576  GLY576      0.2014
    113  C         16.8110   86.5340  115.6690 C.2   576  GLY576      0.2639
    114  O         16.0230   87.4510  115.9170 O.2   576  GLY576     -0.2714
    115  N         17.1940   85.6610  116.5860 N.am  577  GLY577     -0.1939
    116  CA        16.6280   85.7360  117.9160 C.3   577  GLY577      0.2014
    117  C         17.2830   84.7900  118.8870 C.2   577  GLY577      0.2638
    118  O         17.8910   83.7920  118.5040 O.2   577  GLY577     -0.2714
    119  N         17.1630   85.1230  120.1650 N.am  578  PHE578     -0.1973
    120  CA        17.6470   84.2700  121.2320 C.3   578  PHE578      0.1639
    121  C         16.9150   84.6700  122.4990 C.2   578  PHE578      0.2290
    122  O         16.4610   85.8110  122.6280 O.2   578  PHE578     -0.2864
    123  CB        19.1690   84.3820  121.4120 C.3   578  PHE578      0.0560
    124  CG        19.6660   85.7890  121.6690 C.ar  578  PHE578     -0.0200
    125  CD1       19.8580   86.6820  120.6130 C.ar  578  PHE578     -0.0042
    126  CD2       19.9650   86.2140  122.9640 C.ar  578  PHE578     -0.0042
    127  CE1       20.3270   87.9690  120.8430 C.ar  578  PHE578     -0.0003
    128  CE2       20.4370   87.5060  123.2040 C.ar  578  PHE578     -0.0003
    129  CZ        20.6160   88.3840  122.1410 C.ar  578  PHE578     -0.0000
    130  N         18.1130   90.9360  119.8650 N.3   589  ALA589     -0.1231
    131  CA        18.7440   90.7910  118.5560 C.3   589  ALA589      0.1694
    132  C         18.3950   92.0170  117.7150 C.2   589  ALA589      0.2592
    133  O         17.2260   92.3890  117.6120 O.2   589  ALA589     -0.2718
    134  CB        18.2580   89.5180  117.8780 C.3   589  ALA589      0.0304
    135  N         19.4000   92.6730  117.1400 N.am  590  TYR590     -0.1962
    136  CA        19.1320   93.9120  116.4070 C.3   590  TYR590      0.1771
    137  C         19.9730   94.0020  115.1470 C.2   590  TYR590      0.2619
    138  O         20.9780   93.3070  115.0000 O.2   590  TYR590     -0.2715
    139  CB        19.3640   95.1550  117.2810 C.3   590  TYR590      0.0574
    140  CG        20.8100   95.3730  117.6710 C.ar  590  TYR590     -0.0198
    141  CD1       21.3830   94.6470  118.7090 C.ar  590  TYR590     -0.0009
    142  CD2       21.6000   96.3100  117.0100 C.ar  590  TYR590     -0.0009
    143  CE1       22.7000   94.8310  119.0720 C.ar  590  TYR590      0.0417
    144  CE2       22.9220   96.5070  117.3710 C.ar  590  TYR590      0.0417
    145  CZ        23.4640   95.7620  118.3990 C.ar  590  TYR590      0.1957
    146  OH        24.7720   95.9440  118.7730 O.3   590  TYR590     -0.2866
    147  N         19.5490   94.8680  114.2440 N.am  591  ALA591     -0.1977
    148  CA        20.3440   95.1360  113.0530 C.3   591  ALA591      0.1597
    149  C         20.1350   96.5880  112.6690 C.2   591  ALA591      0.2287
    150  O         19.0020   97.0290  112.5310 O.2   591  ALA591     -0.2864
    151  CB        19.9310   94.2170  111.9190 C.3   591  ALA591      0.0319
    152  N         20.2930   98.9420  109.7380 N.3   593  HIS593     -0.1241
    153  CA        20.3890   98.9670  108.2750 C.3   593  HIS593      0.1621
    154  C         20.6390  100.3950  107.7800 C.2   593  HIS593      0.2264
    155  O         20.7000  101.3270  108.5770 O.2   593  HIS593     -0.2867
    156  CB        19.1170   98.3970  107.6430 C.3   593  HIS593      0.0745
    157  CG        18.8790   96.9510  107.9580 C.ar  593  HIS593      0.0817
    158  ND1       18.0610   96.5360  108.9900 N.ar  593  HIS593     -0.2268
    159  CD2       19.3570   95.8220  107.3810 C.ar  593  HIS593      0.1154
    160  CE1       18.0440   95.2150  109.0340 C.ar  593  HIS593      0.1986
    161  NE2       18.8220   94.7570  108.0670 N.ar  593  HIS593     -0.2212
    162  N         16.9130  101.9970  108.1050 N.3   596  TRP596     -0.1241
    163  CA        16.0140  101.5870  109.1760 C.3   596  TRP596      0.1605
    164  C         16.7280  100.7390  110.2260 C.2   596  TRP596      0.2264
    165  O         17.8700  100.3210  110.0300 O.2   596  TRP596     -0.2867
    166  CB        14.7770  100.8650  108.6200 C.3   596  TRP596      0.0550
    167  CG        15.0600   99.5580  107.9180 C.ar  596  TRP596      0.0003
    168  CD1       15.6040   99.3900  106.6710 C.ar  596  TRP596      0.0946
    169  CD2       14.7700   98.2380  108.4090 C.ar  596  TRP596      0.0152
    170  NE1       15.6850   98.0490  106.3660 N.ar  596  TRP596     -0.2442
    171  CE2       15.1780   97.3220  107.4140 C.ar  596  TRP596      0.0810
    172  CE3       14.2110   97.7430  109.5930 C.ar  596  TRP596      0.0012
    173  CZ2       15.0470   95.9420  107.5690 C.ar  596  TRP596      0.0191
    174  CZ3       14.0800   96.3660  109.7470 C.ar  596  TRP596      0.0001
    175  CH2       14.5000   95.4830  108.7390 C.ar  596  TRP596      0.0015
    176  N         16.0520   97.4480  113.0130 N.3   598  GLY598     -0.1210
    177  CA        15.1630   96.3630  113.3940 C.3   598  GLY598      0.1956
    178  C         15.6070   95.7080  114.6940 C.2   598  GLY598      0.2612
    179  O         16.8050   95.5810  114.9370 O.2   598  GLY598     -0.2717
    180  N         14.6390   95.2930  115.5110 N.am  599  CYS599     -0.1956
    181  CA        14.9050   94.6650  116.8170 C.3   599  CYS599      0.1843
    182  C         13.9580   93.5100  117.0520 C.2   599  CYS599      0.2625
    183  O         12.7750   93.6220  116.7690 O.2   599  CYS599     -0.2714
    184  CB        14.6610   95.6570  117.9530 C.3   599  CYS599      0.0997
    185  SG        15.8170   96.9990  118.0260 S.3   599  CYS599     -0.0797
    186  N         14.4740   92.4070  117.5890 N.am  600  ASN600     -0.1972
    187  CA        13.6370   91.2650  117.9650 C.3   600  ASN600      0.1688
    188  C         14.0180   90.9360  119.4130 C.2   600  ASN600      0.2292
    189  O         15.1620   90.5880  119.6830 O.2   600  ASN600     -0.2864
    190  CB        13.9060   90.0690  117.0360 C.3   600  ASN600      0.1181
    191  CG        12.8120   89.0230  117.0800 C.2   600  ASN600      0.2629
    192  OD1       11.6320   89.3470  117.2570 O.2   600  ASN600     -0.2716
    193  ND2       13.1940   87.7500  116.8910 N.am  600  ASN600     -0.0877
@<TRIPOS>BOND
     1    90    91    1
     2   170   168   ar
     3   170   171   ar
     4   168   167   ar
     5    91    92    1
     6    91    94    1
     7    93    92    2
     8    92    97   am
     9   101    98    1
    10   101   102    1
    11   159   157   ar
    12   159   161   ar
    13    97    98    1
    14   171   173   ar
    15   171   169   ar
    16   173   175   ar
    17   156   157    1
    18   156   153    1
    19    98    99    1
    20   154   153    1
    21   154   155    2
    22   167   169   ar
    23   167   166    1
    24   157   158   ar
    25   161   160   ar
    26   162   163    1
    27   153   152    1
    28    94    96    1
    29    94    95    1
    30   169   172   ar
    31   166   163    1
    32   175   174   ar
    33    67    66    2
    34   158   160   ar
    35    99   100    2
    36    99   103   am
    37   163   164    1
    38   172   174   ar
    39    68    66   am
    40    66    65    1
    41   165   164    2
    42   103   104    1
    43    22    21    2
    44    88    87    1
    45    34    32    1
    46    26    25    1
    47   110   108    1
    48    21    20    1
    49    65    64    1
    50    84    85    2
    51    84    83    1
    52    64    61    1
    53   104   107    1
    54   104   105    1
    55    25    24    1
    56    23    20    1
    57    23    24    1
    58    32    33    1
    59    32    31    1
    60   106   105    2
    61   151   148    1
    62   107   108    1
    63    87    86    1
    64    87    89    1
    65    20    19    1
    66   105   111   am
    67    86    83    1
    68    63    62    2
    69   108   109    1
    70    83    82    1
    71   150   149    2
    72    27    28    1
    73   149   148    1
    74    61    62    1
    75    61    60    1
    76    31    28    1
    77   176   177    1
    78    28    29    1
    79   148   147    1
    80    19    10   am
    81   177   178    1
    82   111   112    1
    83    82    77   am
    84    60    54   am
    85    14    16   ar
    86    14    13   ar
    87    16    18   ar
    88   147   137   am
    89   112   113    1
    90    29    30    2
    91    55    54    2
    92    10    11    2
    93    10     9    1
    94    54    53    1
    95    80    79    1
    96   178   179    2
    97   178   180   am
    98    77    78    2
    99    77    76    1
   100    41    43   ar
   101    41    40   ar
   102   138   137    2
   103    39    40    1
   104    39    36    1
   105   137   136    1
   106    51    50    1
   107    43    45   ar
   108    12    13    1
   109    12     9    1
   110    13    15   ar
   111    18    17   ar
   112     9     8    1
   113    40    42   ar
   114   180   181    1
   115   113   114    2
   116   113   115   am
   117    53    52    1
   118    53    56    1
   119    35    36    1
   120    79    81    1
   121    79    76    1
   122    50    47    1
   123    76    75    1
   124    45    44   ar
   125    36    37    1
   126    42    44   ar
   127   136   135    1
   128   136   139    1
   129    52    48   am
   130    15    17   ar
   131   115   116    1
   132    56    57    1
   133    56    58    1
   134   183   182    2
   135     8     3   am
   136   181   182    1
   137   181   184    1
   138    48    49    2
   139    48    47    1
   140   193   191   am
   141   142   144   ar
   142   142   140   ar
   143   190   191    1
   144   190   187    1
   145   182   186   am
   146   191   192    2
   147   135   132   am
   148     4     3    2
   149    47    46    1
   150    75    71   am
   151   139   140    1
   152    57    59    1
   153   144   145   ar
   154    37    38    2
   155     3     2    1
   156   186   187    1
   157   133   132    2
   158   140   141   ar
   159   132   131    1
   160   134   131    1
   161   116   117    1
   162    72    71    2
   163   184   185    1
   164   187   188    1
   165    71    70    1
   166   145   146    1
   167   145   143   ar
   168   118   117    2
   169   131   130    1
   170     6     5    1
   171     6     7    1
   172    74    73    1
   173   141   143   ar
   174     5     2    1
   175   117   119   am
   176     2     1    1
   177     7     1    1
   178   188   189    2
   179    73    70    1
   180    70    69    1
   181   119   120    1
   182   125   127   ar
   183   125   124   ar
   184   127   129   ar
   185   120   123    1
   186   120   121    1
   187   123   124    1
   188   124   126   ar
   189   129   128   ar
   190   121   122    2
   191   126   128   ar
