@<TRIPOS>MOLECULE
tmp/4eywB00.pdb
 148 138 0 0 0
SMALL
GASTEIGER

@<TRIPOS>ATOM
      1  N         38.0130   89.7620  106.8030 N.3   152  PHE152     -0.1241
      2  CA        37.3430   91.0330  107.0460 C.3   152  PHE152      0.1605
      3  C         38.1170   92.1630  106.3570 C.2   152  PHE152      0.2264
      4  O         39.2710   92.4140  106.6880 O.2   152  PHE152     -0.2867
      5  CB        37.2400   91.2890  108.5500 C.3   152  PHE152      0.0534
      6  CG        36.7290   92.6550  108.8990 C.ar  152  PHE152     -0.0203
      7  CD1       35.4390   93.0300  108.5670 C.ar  152  PHE152     -0.0042
      8  CD2       37.5380   93.5610  109.5660 C.ar  152  PHE152     -0.0042
      9  CE1       34.9650   94.2890  108.8880 C.ar  152  PHE152     -0.0003
     10  CE2       37.0710   94.8210  109.8920 C.ar  152  PHE152     -0.0003
     11  CZ        35.7810   95.1830  109.5520 C.ar  152  PHE152     -0.0000
     12  N         41.8760   91.5950  107.2820 N.3   186  TYR186     -0.1241
     13  CA        42.1140   90.7550  108.4520 C.3   186  TYR186      0.1605
     14  C         41.4960   89.3780  108.2350 C.2   186  TYR186      0.2264
     15  O         40.2810   89.2150  108.3500 O.2   186  TYR186     -0.2867
     16  CB        41.5390   91.4130  109.7020 C.3   186  TYR186      0.0534
     17  CG        42.1420   92.7710  109.9840 C.ar  186  TYR186     -0.0201
     18  CD1       41.7340   93.8970  109.2740 C.ar  186  TYR186     -0.0009
     19  CD2       43.1330   92.9250  110.9440 C.ar  186  TYR186     -0.0009
     20  CE1       42.2910   95.1390  109.5140 C.ar  186  TYR186      0.0417
     21  CE2       43.6960   94.1680  111.1960 C.ar  186  TYR186      0.0417
     22  CZ        43.2700   95.2680  110.4760 C.ar  186  TYR186      0.1957
     23  OH        43.8220   96.5040  110.7200 O.3   186  TYR186     -0.2866
     24  N         40.3820   85.6060  109.1100 N.3   188  LEU188     -0.1245
     25  CA        39.8160   85.0900  110.3550 C.3   188  LEU188      0.1561
     26  C         40.1320   83.6110  110.5810 C.2   188  LEU188      0.2260
     27  O         40.3540   82.8520  109.6370 O.2   188  LEU188     -0.2867
     28  CB        38.2940   85.2960  110.3970 C.3   188  LEU188      0.0270
     29  CG        37.7900   86.7230  110.1490 C.3   188  LEU188      0.0019
     30  CD1       36.2840   86.7720  110.3560 C.3   188  LEU188      0.0001
     31  CD2       38.4770   87.7370  111.0530 C.3   188  LEU188      0.0001
     32  N         25.0820   76.0700  120.4120 N.3   348  HIS348     -0.1241
     33  CA        26.0540   77.1330  120.6230 C.3   348  HIS348      0.1621
     34  C         27.4700   76.6800  121.0180 C.2   348  HIS348      0.2264
     35  O         28.4350   77.4060  120.7910 O.2   348  HIS348     -0.2867
     36  CB        25.5400   78.1060  121.6860 C.3   348  HIS348      0.0745
     37  CG        26.0700   79.4960  121.5310 C.ar  348  HIS348      0.0817
     38  ND1       27.0060   79.8320  120.5750 N.ar  348  HIS348     -0.2268
     39  CD2       25.7840   80.6400  122.1960 C.ar  348  HIS348      0.1154
     40  CE1       27.2780   81.1220  120.6620 C.ar  348  HIS348      0.1986
     41  NE2       26.5520   81.6340  121.6400 N.ar  348  HIS348     -0.2212
     42  N         31.6820   79.8790  117.6900 N.3   352  ASP352     -0.1225
     43  CA        31.2050   81.2280  117.9710 C.3   352  ASP352      0.1805
     44  C         30.1770   81.7510  116.9750 C.2   352  ASP352      0.2598
     45  O         29.7370   82.8870  117.0810 O.2   352  ASP352     -0.2718
     46  CB        32.3960   82.1780  118.0430 C.3   352  ASP352      0.1424
     47  CG        33.4210   81.7110  119.0540 C.2   352  ASP352      0.3668
     48  OD1       33.0360   81.4880  120.2210 O.co2 352  ASP352     -0.2456
     49  OD2       34.5880   81.5150  118.6720 O.co2 352  ASP352     -0.2456
     50  N         29.8110   80.9310  116.0010 N.am  353  GLY353     -0.1942
     51  CA        28.7190   81.2850  115.1010 C.3   353  GLY353      0.2014
     52  C         29.1270   81.9450  113.7950 C.2   353  GLY353      0.2638
     53  O         28.2910   82.1300  112.9040 O.2   353  GLY353     -0.2714
     54  N         30.3970   82.3220  113.6740 N.am  354  VAL354     -0.1977
     55  CA        30.8830   82.9040  112.4140 C.3   354  VAL354      0.1596
     56  C         30.7930   81.8760  111.3020 C.2   354  VAL354      0.2287
     57  O         30.4270   82.1990  110.1760 O.2   354  VAL354     -0.2864
     58  CB        32.3440   83.4120  112.5110 C.3   354  VAL354      0.0276
     59  CG1       32.7250   84.1650  111.2280 C.3   354  VAL354      0.0022
     60  CG2       32.5170   84.3140  113.7220 C.3   354  VAL354      0.0022
     61  N         26.3690  101.5670  115.6970 N.3   440  ASP440     -0.1239
     62  CA        26.2530  100.5540  116.7500 C.3   440  ASP440      0.1674
     63  C         26.1740  101.2020  118.1260 C.2   440  ASP440      0.2266
     64  O         25.3980  100.7660  118.9820 O.2   440  ASP440     -0.2867
     65  CB        27.4090   99.5540  116.7130 C.3   440  ASP440      0.1410
     66  CG        27.1710   98.3630  117.6300 C.2   440  ASP440      0.3668
     67  OD1       26.2580   97.5730  117.3290 O.co2 440  ASP440     -0.2456
     68  OD2       27.8830   98.2230  118.6470 O.co2 440  ASP440     -0.2456
     69  N         27.4690   92.8460  125.1230 N.3   463  GLU463     -0.1231
     70  CA        27.4600   92.8800  123.6620 C.3   463  GLU463      0.1699
     71  C         28.6320   92.0250  123.1770 C.2   463  GLU463      0.2593
     72  O         29.7670   92.2050  123.6190 O.2   463  GLU463     -0.2718
     73  CB        27.5990   94.3100  123.1190 C.3   463  GLU463      0.0402
     74  CG        27.7310   94.3330  121.5690 C.3   463  GLU463      0.1161
     75  CD        27.8860   95.7260  120.9560 C.2   463  GLU463      0.3649
     76  OE1       28.1120   96.7140  121.6870 O.co2 463  GLU463     -0.2457
     77  OE2       27.7720   95.8200  119.7110 O.co2 463  GLU463     -0.2457
     78  N         28.3670   91.0750  122.2940 N.am  464  SER464     -0.1938
     79  CA        29.4440   90.1990  121.8360 C.3   464  SER464      0.2055
     80  C         30.3300   90.8830  120.8020 C.2   464  SER464      0.2643
     81  O         29.8520   91.6680  119.9850 O.2   464  SER464     -0.2714
     82  CB        28.8820   88.9020  121.2570 C.3   464  SER464      0.2130
     83  OG        29.8930   87.9060  121.2330 O.3   464  SER464     -0.2179
     84  N         31.6260   90.5900  120.8560 N.am  465  CYS465     -0.1953
     85  CA        32.5560   91.0270  119.8240 C.3   465  CYS465      0.1843
     86  C         33.4570   89.8540  119.4320 C.2   465  CYS465      0.2626
     87  O         33.9390   89.1260  120.3020 O.2   465  CYS465     -0.2714
     88  CB        33.4110   92.1770  120.3400 C.3   465  CYS465      0.0997
     89  SG        34.4560   92.8840  119.0830 S.3   465  CYS465     -0.0797
     90  N         33.6960   89.6700  118.1370 N.am  466  SER466     -0.1950
     91  CA        34.5390   88.5590  117.6900 C.3   466  SER466      0.1924
     92  C         36.0180   88.8460  117.9290 C.2   466  SER466      0.2314
     93  O         36.4820   89.9510  117.6680 O.2   466  SER466     -0.2863
     94  CB        34.3220   88.2780  116.2000 C.3   466  SER466      0.2116
     95  OG        35.1900   87.2460  115.7600 O.3   466  SER466     -0.2180
     96  N         39.9720   87.4090  114.5690 N.3   469  ALA469     -0.1245
     97  CA        41.1400   87.8800  113.8390 C.3   469  ALA469      0.1562
     98  C         42.4140   87.2300  114.3840 C.2   469  ALA469      0.2260
     99  O         43.4760   87.3200  113.7610 O.2   469  ALA469     -0.2867
    100  CB        41.2430   89.4000  113.9070 C.3   469  ALA469      0.0290
    101  N         35.4220   85.0450  121.2860 N.3   475  THR475     -0.1218
    102  CA        34.7100   86.3120  121.4420 C.3   475  THR475      0.1862
    103  C         35.2310   87.0460  122.6720 C.2   475  THR475      0.2287
    104  O         35.9220   86.4600  123.5100 O.2   475  THR475     -0.2866
    105  CB        33.1810   86.0960  121.6100 C.3   475  THR475      0.1770
    106  OG1       32.9260   85.3640  122.8160 O.3   475  THR475     -0.2211
    107  CG2       32.5990   85.3290  120.4170 C.3   475  THR475      0.0375
    108  N         32.0190   93.3440  124.8990 N.3   478  ILE478     -0.1245
    109  CA        31.9390   94.8040  124.9190 C.3   478  ILE478      0.1561
    110  C         30.9450   95.1700  126.0060 C.2   478  ILE478      0.2260
    111  O         29.8580   94.5980  126.0560 O.2   478  ILE478     -0.2867
    112  CB        31.3980   95.3560  123.5950 C.3   478  ILE478      0.0252
    113  CG1       32.3650   95.0450  122.4500 C.3   478  ILE478      0.0019
    114  CG2       31.1510   96.8680  123.6950 C.3   478  ILE478      0.0019
    115  CD1       31.7950   95.3680  121.0800 C.3   478  ILE478      0.0001
    116  N         34.9610   99.0170  121.5590 N.3   519  THR519     -0.1218
    117  CA        34.7550   98.0690  120.4710 C.3   519  THR519      0.1862
    118  C         36.0880   97.6760  119.8540 C.2   519  THR519      0.2287
    119  O         36.3580   96.4940  119.6460 O.2   519  THR519     -0.2866
    120  CB        33.8140   98.6540  119.4030 C.3   519  THR519      0.1770
    121  OG1       32.5000   98.8090  119.9710 O.3   519  THR519     -0.2211
    122  CG2       33.7340   97.7440  118.1730 C.3   519  THR519      0.0375
    123  N         37.9330   93.9030  120.0940 N.3   523  ALA523     -0.1245
    124  CA        38.3340   93.2100  118.8810 C.3   523  ALA523      0.1562
    125  C         39.8140   92.8320  118.8910 C.2   523  ALA523      0.2260
    126  O         40.2260   91.8980  118.2020 O.2   523  ALA523     -0.2867
    127  CB        38.0200   94.0590  117.6740 C.3   523  ALA523      0.0290
    128  N         22.9480   91.1510  120.5760 N.3   566  SER566     -0.1202
    129  CA        23.7310   90.5700  119.5030 C.3   566  SER566      0.2020
    130  C         23.2880   91.1440  118.1720 C.2   566  SER566      0.2619
    131  O         22.0990   91.3690  117.9520 O.2   566  SER566     -0.2717
    132  CB        23.5360   89.0550  119.4770 C.3   566  SER566      0.2103
    133  OG        24.4850   88.4510  118.6210 O.3   566  SER566     -0.2182
    134  N         24.2410   91.3730  117.2740 N.am  567  THR567     -0.1938
    135  CA        23.8780   91.9050  115.9690 C.3   567  THR567      0.2028
    136  C         24.6360   91.2130  114.8550 C.2   567  THR567      0.2642
    137  O         25.7010   90.6400  115.0710 O.2   567  THR567     -0.2714
    138  CB        24.1100   93.4340  115.8730 C.3   567  THR567      0.1808
    139  OG1       23.5230   93.9340  114.6660 O.3   567  THR567     -0.2208
    140  CG2       25.6000   93.7770  115.8840 C.3   567  THR567      0.0379
    141  N         24.0710   91.2720  113.6620 N.am  568  LEU568     -0.1977
    142  CA        24.8120   90.9180  112.4640 C.3   568  LEU568      0.1596
    143  C         24.2260   91.6800  111.2850 C.2   568  LEU568      0.2287
    144  O         23.0970   92.1700  111.3400 O.2   568  LEU568     -0.2864
    145  CB        24.7850   89.4050  112.2200 C.3   568  LEU568      0.0297
    146  CG        23.4290   88.6960  112.1100 C.3   568  LEU568      0.0022
    147  CD1       22.7640   88.8820  110.7460 C.3   568  LEU568      0.0001
    148  CD2       23.6110   87.2260  112.3980 C.3   568  LEU568      0.0001
@<TRIPOS>BOND
     1     3     4    2
     2     3     2    1
     3     1     2    1
     4     2     5    1
     5    12    13    1
     6    14    15    2
     7    14    13    1
     8    13    16    1
     9     5     6    1
    10     7     9   ar
    11     7     6   ar
    12     9    11   ar
    13     6     8   ar
    14    24    25    1
    15    18    20   ar
    16    18    17   ar
    17    20    22   ar
    18    11    10   ar
    19     8    10   ar
    20    27    26    2
    21    16    17    1
    22    17    19   ar
    23    29    30    1
    24    29    28    1
    25    29    31    1
    26    57    56    2
    27    25    28    1
    28    25    26    1
    29    22    23    1
    30    22    21   ar
    31   147   146    1
    32    19    21   ar
    33    59    58    1
    34   143   144    2
    35   143   142    1
    36    56    55    1
    37   146   145    1
    38   146   148    1
    39   145   142    1
    40    55    58    1
    41    55    54    1
    42   142   141    1
    43    58    60    1
    44    53    52    2
    45   141   136   am
    46    54    52   am
    47    99    98    2
    48    52    51    1
    49    97   100    1
    50    97    98    1
    51    97    96    1
    52   139   138    1
    53   136   137    2
    54   136   135    1
    55    51    50    1
    56    61    62    1
    57    95    94    1
    58   138   140    1
    59   138   135    1
    60   135   134    1
    61    50    44   am
    62    94    91    1
    63    65    62    1
    64    65    66    1
    65    62    63    1
    66    44    45    2
    67    44    43    1
    68   134   130   am
    69    67    66   ar
    70    66    68   ar
    71    93    92    2
    72   127   124    1
    73    42    43    1
    74    91    92    1
    75    91    90    1
    76   131   130    2
    77    43    46    1
    78    46    47    1
    79    63    64    2
    80    90    86   am
    81   130   129    1
    82   122   120    1
    83   126   125    2
    84   133   132    1
    85    49    47   ar
    86   124   125    1
    87   124   123    1
    88    47    48   ar
    89    89    88    1
    90   120   121    1
    91   120   117    1
    92    86    85    1
    93    86    87    2
    94   132   129    1
    95   129   128    1
    96   119   118    2
    97    77    75   ar
    98    85    88    1
    99    85    84    1
   100   118   117    1
   101    81    80    2
   102    32    33    1
   103   107   105    1
   104   117   116    1
   105    38    40   ar
   106    38    37   ar
   107    33    34    1
   108    33    36    1
   109    40    41   ar
   110    35    34    2
   111    80    84   am
   112    80    79    1
   113    75    74    1
   114    75    76   ar
   115   115   113    1
   116    83    82    1
   117    82    79    1
   118   101   102    1
   119   102   105    1
   120   102   103    1
   121    37    36    1
   122    37    39   ar
   123    74    73    1
   124   105   106    1
   125    41    39   ar
   126    79    78    1
   127    78    71   am
   128   113   112    1
   129   103   104    2
   130    73    70    1
   131    71    72    2
   132    71    70    1
   133   112   114    1
   134   112   109    1
   135    70    69    1
   136   108   109    1
   137   109   110    1
   138   110   111    2
