@<TRIPOS>MOLECULE
tmp/4ez1C01.pdb
 135 124 0 0 0
SMALL
GASTEIGER

@<TRIPOS>ATOM
      1  N         -5.7940  -34.8220   29.0210 N.3    36  THR36      -0.1218
      2  CA        -6.6820  -34.9490   30.1400 C.3    36  THR36       0.1862
      3  C         -7.5060  -33.6740   30.1220 C.2    36  THR36       0.2287
      4  O         -6.9950  -32.5950   30.4860 O.2    36  THR36      -0.2866
      5  CB        -5.8700  -35.0400   31.4530 C.3    36  THR36       0.1770
      6  OG1       -5.0340  -36.1950   31.4140 O.3    36  THR36      -0.2211
      7  CG2       -6.7750  -35.1120   32.6750 C.3    36  THR36       0.0375
      8  N         -4.6590  -30.8850   30.5720 N.3    55  TYR55      -0.1241
      9  CA        -3.2780  -31.3390   30.7490 C.3    55  TYR55       0.1605
     10  C         -2.8450  -31.9770   29.4590 C.2    55  TYR55       0.2264
     11  O         -3.5720  -32.7570   28.8990 O.2    55  TYR55      -0.2867
     12  CB        -3.1220  -32.3390   31.8950 C.3    55  TYR55       0.0534
     13  CG        -3.6390  -31.8650   33.2690 C.ar   55  TYR55      -0.0201
     14  CD1       -3.7770  -30.5020   33.5840 C.ar   55  TYR55      -0.0009
     15  CD2       -3.9130  -32.7760   34.2740 C.ar   55  TYR55      -0.0009
     16  CE1       -4.2440  -30.0830   34.8310 C.ar   55  TYR55       0.0417
     17  CE2       -4.3710  -32.3850   35.5270 C.ar   55  TYR55       0.0417
     18  CZ        -4.5360  -31.0470   35.8090 C.ar   55  TYR55       0.1957
     19  OH        -4.9230  -30.6690   37.0840 O.3    55  TYR55      -0.2866
     20  N         -0.1580  -34.4200   28.2550 N.3    57  GLN57      -0.1245
     21  CA         0.8950  -35.3490   28.6630 C.3    57  GLN57       0.1566
     22  C          1.8150  -35.5890   27.5030 C.2    57  GLN57       0.2260
     23  O          1.3520  -35.9130   26.4010 O.2    57  GLN57      -0.2867
     24  CB         0.3300  -36.6720   29.1160 C.3    57  GLN57       0.0367
     25  CG        -1.0220  -36.5690   29.8150 C.3    57  GLN57       0.0905
     26  CD        -1.5540  -37.9380   30.2350 C.2    57  GLN57       0.2608
     27  OE1       -1.2050  -38.4140   31.3240 O.2    57  GLN57      -0.2717
     28  NE2       -2.4030  -38.5830   29.3720 N.am   57  GLN57      -0.0878
     29  N          5.6140  -37.6160   26.4930 N.3    59  ARG59      -0.1245
     30  CA         6.6150  -38.5480   26.9400 C.3    59  ARG59       0.1563
     31  C          7.5120  -38.8900   25.7970 C.2    59  ARG59       0.2260
     32  O          7.0280  -39.1570   24.6990 O.2    59  ARG59      -0.2867
     33  CB         5.9740  -39.8160   27.5370 C.3    59  ARG59       0.0307
     34  CG         6.9620  -40.9840   27.7000 C.3    59  ARG59       0.0489
     35  CD         6.3350  -42.1880   28.4250 C.3    59  ARG59       0.2205
     36  NE         5.7050  -43.1730   27.5230 N.pl3  59  ARG59      -0.0865
     37  CZ         4.3850  -43.2630   27.3220 C.cat  59  ARG59       0.5346
     38  NH1        3.5360  -42.4290   27.9520 N.pl3  59  ARG59       0.1354
     39  NH2        3.9080  -44.1800   26.4880 N.pl3  59  ARG59       0.1354
     40  N         14.7950  -41.5210   39.4700 N.3    77  ASP77      -0.1239
     41  CA        14.2430  -40.3630   38.7350 C.3    77  ASP77       0.1674
     42  C         14.5620  -39.0040   39.3780 C.2    77  ASP77       0.2266
     43  O         14.8400  -38.9360   40.5520 O.2    77  ASP77      -0.2867
     44  CB        12.7350  -40.5170   38.5630 C.3    77  ASP77       0.1410
     45  CG        12.0220  -40.7200   39.8830 C.2    77  ASP77       0.3668
     46  OD1       11.8920  -39.7300   40.6230 O.co2  77  ASP77      -0.2456
     47  OD2       11.6080  -41.8610   40.2140 O.co2  77  ASP77      -0.2456
     48  N         13.6190  -34.3500   38.9600 N.3    79  ARG79      -0.1245
     49  CA        12.8540  -33.2780   38.3600 C.3    79  ARG79       0.1563
     50  C         13.7780  -32.1970   37.8650 C.2    79  ARG79       0.2260
     51  O         14.7440  -31.9000   38.4910 O.2    79  ARG79      -0.2867
     52  CB        11.8550  -32.6720   39.3560 C.3    79  ARG79       0.0307
     53  CG        10.5580  -33.4260   39.5270 C.3    79  ARG79       0.0489
     54  CD        10.7160  -34.4760   40.5800 C.3    79  ARG79       0.2205
     55  NE         9.5300  -35.3220   40.7500 N.pl3  79  ARG79      -0.0865
     56  CZ         9.6250  -36.6140   41.0600 C.cat  79  ARG79       0.5346
     57  NH1        8.5360  -37.3360   41.2070 N.pl3  79  ARG79       0.1354
     58  NH2       10.8150  -37.1900   41.1630 N.pl3  79  ARG79       0.1354
     59  N          7.6540  -28.3240   34.4190 N.3   106  ILE106     -0.1245
     60  CA         8.7110  -29.1340   35.0280 C.3   106  ILE106      0.1561
     61  C          8.6850  -30.5510   34.4930 C.2   106  ILE106      0.2260
     62  O          7.6350  -31.1760   34.4250 O.2   106  ILE106     -0.2867
     63  CB         8.7220  -29.0570   36.5820 C.3   106  ILE106      0.0252
     64  CG1        8.7590  -27.5930   37.0930 C.3   106  ILE106      0.0019
     65  CG2        9.9360  -29.8120   37.1550 C.3   106  ILE106      0.0019
     66  CD1        8.3360  -27.4530   38.5650 C.3   106  ILE106      0.0001
     67  N          9.9620  -34.6570   34.4580 N.3   108  VAL108     -0.1245
     68  CA        10.5870  -35.8110   35.2000 C.3   108  VAL108      0.1561
     69  C         11.4230  -36.6890   34.2810 C.2   108  VAL108      0.2260
     70  O         10.9640  -37.0780   33.1950 O.2   108  VAL108     -0.2867
     71  CB         9.5340  -36.6950   35.8650 C.3   108  VAL108      0.0252
     72  CG1       10.1820  -37.9070   36.5530 C.3   108  VAL108      0.0019
     73  CG2        8.6720  -35.8840   36.8180 C.3   108  VAL108      0.0019
     74  N         13.4700  -40.2770   34.1260 N.3   110  THR110     -0.1218
     75  CA        13.7080  -41.5790   34.7820 C.3   110  THR110      0.1862
     76  C         14.9990  -42.2220   34.3070 C.2   110  THR110      0.2287
     77  O         15.5330  -41.8650   33.2480 O.2   110  THR110     -0.2866
     78  CB        12.5550  -42.5630   34.5810 C.3   110  THR110      0.1770
     79  OG1       12.3300  -42.6830   33.1830 O.3   110  THR110     -0.2211
     80  CG2       11.2610  -42.0780   35.2630 C.3   110  THR110      0.0375
     81  N          9.2040  -37.1430   30.9930 N.3   116  MET116     -0.1230
     82  CA         7.7200  -36.9900   30.9930 C.3   116  MET116      0.1702
     83  C          7.3400  -35.5590   31.4060 C.2   116  MET116      0.2592
     84  O          7.9720  -34.9650   32.3030 O.2   116  MET116     -0.2718
     85  CB         7.0940  -38.0980   31.8340 C.3   116  MET116      0.0401
     86  CG         7.7830  -39.4160   31.4330 C.3   116  MET116      0.0596
     87  SD         7.6350  -40.8160   32.5150 S.3   116  MET116     -0.1393
     88  CE         5.9330  -41.3380   32.1640 C.3   116  MET116      0.0692
     89  N          6.3650  -34.9740   30.7380 N.am  117  PHE117     -0.1962
     90  CA         6.1470  -33.5260   30.8570 C.3   117  PHE117      0.1771
     91  C          4.6800  -33.2870   30.7200 C.2   117  PHE117      0.2619
     92  O          4.1040  -33.6590   29.7100 O.2   117  PHE117     -0.2715
     93  CB         6.9690  -32.8210   29.7620 C.3   117  PHE117      0.0574
     94  CG         6.8350  -31.3240   29.7150 C.ar  117  PHE117     -0.0200
     95  CD1        6.8250  -30.5510   30.8660 C.ar  117  PHE117     -0.0042
     96  CD2        6.7900  -30.6630   28.4500 C.ar  117  PHE117     -0.0042
     97  CE1        6.6820  -29.1440   30.7850 C.ar  117  PHE117     -0.0003
     98  CE2        6.6540  -29.2540   28.3560 C.ar  117  PHE117     -0.0003
     99  CZ         6.5990  -28.4910   29.5250 C.ar  117  PHE117     -0.0000
    100  N          4.0640  -32.7250   31.7580 N.am  118  ILE118     -0.1977
    101  CA         2.5810  -32.5550   31.8180 C.3   118  ILE118      0.1596
    102  C          2.1870  -31.0920   32.1110 C.2   118  ILE118      0.2287
    103  O          1.6550  -30.7910   33.1700 O.2   118  ILE118     -0.2864
    104  CB         1.9120  -33.4390   32.8840 C.3   118  ILE118      0.0276
    105  CG1        2.6010  -34.8040   33.0130 C.3   118  ILE118      0.0022
    106  CG2        0.4080  -33.6200   32.6350 C.3   118  ILE118      0.0022
    107  CD1        2.4540  -35.8220   31.8640 C.3   118  ILE118      0.0001
    108  N         -1.2480  -43.5470   23.7040 N.3   159  ASP159     -0.1239
    109  CA        -1.4310  -44.8180   24.4350 C.3   159  ASP159      0.1674
    110  C         -2.8510  -45.3340   24.2780 C.2   159  ASP159      0.2266
    111  O         -3.1150  -46.5260   24.4340 O.2   159  ASP159     -0.2867
    112  CB        -1.1290  -44.6520   25.9340 C.3   159  ASP159      0.1410
    113  CG         0.3420  -44.4350   26.2050 C.2   159  ASP159      0.3668
    114  OD1        1.2300  -45.0570   25.5330 O.co2 159  ASP159     -0.2456
    115  OD2        0.6040  -43.6170   27.1010 O.co2 159  ASP159     -0.2456
    116  N         -8.6480  -38.6200   28.5410 N.3   164  ASP164     -0.1239
    117  CA        -8.9700  -38.7970   29.9270 C.3   164  ASP164      0.1674
    118  C         -9.9980  -37.7720   30.4350 C.2   164  ASP164      0.2266
    119  O         -9.7340  -36.5600   30.4630 O.2   164  ASP164     -0.2867
    120  CB        -7.7070  -38.7890   30.7650 C.3   164  ASP164      0.1410
    121  CG        -7.9360  -39.3480   32.1490 C.2   164  ASP164      0.3668
    122  OD1       -9.0140  -39.1090   32.7260 O.co2 164  ASP164     -0.2456
    123  OD2       -7.0190  -40.0250   32.6650 O.co2 164  ASP164     -0.2456
    124  N        -11.6330  -38.3700   33.4750 N.3   166  SER166     -0.1202
    125  CA       -11.8370  -38.6820   34.9020 C.3   166  SER166      0.2020
    126  C        -11.8220  -37.4060   35.7850 C.2   166  SER166      0.2619
    127  O        -12.3180  -37.3820   36.8970 O.2   166  SER166     -0.2717
    128  CB       -10.7910  -39.6900   35.3610 C.3   166  SER166      0.2103
    129  OG        -9.5090  -39.0690   35.3190 O.3   166  SER166     -0.2182
    130  N        -11.2770  -36.3450   35.2190 N.am  167  SER167     -0.1951
    131  CA       -11.0230  -35.1150   35.8850 C.3   167  SER167      0.1924
    132  C        -11.9450  -33.9920   35.3440 C.2   167  SER167      0.2314
    133  O        -11.8060  -32.8430   35.7270 O.2   167  SER167     -0.2863
    134  CB        -9.5780  -34.7840   35.5670 C.3   167  SER167      0.2116
    135  OG        -9.0380  -33.7630   36.3660 O.3   167  SER167     -0.2180
@<TRIPOS>BOND
     1   108   109    1
     2   110   111    2
     3   110   109    1
     4   109   112    1
     5    32    31    2
     6   114   113   ar
     7    31    30    1
     8   112   113    1
     9   113   115   ar
    10    23    22    2
    11    39    37    1
    12    29    30    1
    13    30    33    1
    14    37    36    2
    15    37    38    1
    16    22    21    1
    17    36    35    1
    18    33    34    1
    19    34    35    1
    20    20    21    1
    21    98    96   ar
    22    98    99   ar
    23    96    94   ar
    24   116   117    1
    25    21    24    1
    26    11    10    2
    27     1     2    1
    28    24    25    1
    29    28    26   am
    30    10     9    1
    31    99    97   ar
    32    92    91    2
    33    94    93    1
    34    94    95   ar
    35    93    90    1
    36    25    26    1
    37   117   118    1
    38   117   120    1
    39     3     2    1
    40     3     4    2
    41     2     5    1
    42    26    27    2
    43   118   119    2
    44     8     9    1
    45    91    90    1
    46    91   100   am
    47    89    90    1
    48    89    83   am
    49     9    12    1
    50   120   121    1
    51    97    95   ar
    52    82    81    1
    53    82    83    1
    54    82    85    1
    55    83    84    2
    56     6     5    1
    57    86    85    1
    58    86    87    1
    59     5     7    1
    60   100   101    1
    61   101   102    1
    62   101   104    1
    63   107   105    1
    64    12    13    1
    65   102   103    2
    66   121   123   ar
    67   121   122   ar
    68    88    87    1
    69   106   104    1
    70   104   105    1
    71    79    78    1
    72    70    69    2
    73    77    76    2
    74    13    14   ar
    75    13    15   ar
    76   124   125    1
    77    14    16   ar
    78    74    75    1
    79    15    17   ar
    80    69    68    1
    81    76    75    1
    82    59    60    1
    83    62    61    2
    84    67    68    1
    85    61    60    1
    86    78    75    1
    87    78    80    1
    88    16    18   ar
    89   125   128    1
    90   125   126    1
    91    60    63    1
    92    68    71    1
    93   130   126   am
    94   130   131    1
    95   129   128    1
    96   132   133    2
    97   132   131    1
    98    17    18   ar
    99   134   131    1
   100   134   135    1
   101   126   127    2
   102    18    19    1
   103    71    72    1
   104    71    73    1
   105    63    64    1
   106    63    65    1
   107    64    66    1
   108    50    49    1
   109    50    51    2
   110    49    48    1
   111    49    52    1
   112    44    41    1
   113    44    45    1
   114    41    42    1
   115    41    40    1
   116    52    53    1
   117    42    43    2
   118    53    54    1
   119    45    47   ar
   120    45    46   ar
   121    54    55    1
   122    55    56    2
   123    56    58    1
   124    56    57    1
