@<TRIPOS>MOLECULE
tmp/4ez1C00.pdb
 118 120 0 0 0
SMALL
GASTEIGER

@<TRIPOS>ATOM
      1  N         16.6510  -37.5300   11.0900 N.3    25  LYS25      -0.1245
      2  CA        16.2330  -38.7150   10.3260 C.3    25  LYS25       0.1561
      3  C         17.0740  -39.9640   10.7290 C.2    25  LYS25       0.2260
      4  O         16.5520  -41.0690   10.7890 O.2    25  LYS25      -0.2867
      5  CB        16.2660  -38.4590    8.8090 C.3    25  LYS25       0.0271
      6  CG        15.1120  -37.6080    8.3700 C.3    25  LYS25       0.0035
      7  CD        15.2180  -37.7560    6.8760 C.3    25  LYS25       0.0206
      8  CE        14.9090  -36.5030    6.1270 C.3    25  LYS25       0.1093
      9  NZ        13.5980  -35.9700    6.4250 N.3    25  LYS25      -0.1314
     10  N         -2.5030  -26.9170   15.5740 N.3    93  TYR93      -0.1241
     11  CA        -2.3500  -26.4210   14.2370 C.3    93  TYR93       0.1605
     12  C         -3.4070  -25.3560   13.8840 C.2    93  TYR93       0.2264
     13  O         -3.2070  -24.6260   12.9260 O.2    93  TYR93      -0.2867
     14  CB        -2.4570  -27.5640   13.2430 C.3    93  TYR93       0.0534
     15  CG        -1.2110  -28.4270   13.1300 C.ar   93  TYR93      -0.0201
     16  CD1       -0.0280  -28.0640   13.7530 C.ar   93  TYR93      -0.0009
     17  CD2       -1.2300  -29.6140   12.3530 C.ar   93  TYR93      -0.0009
     18  CE1        1.1130  -28.8730   13.6550 C.ar   93  TYR93       0.0417
     19  CE2       -0.1220  -30.3980   12.2140 C.ar   93  TYR93       0.0417
     20  CZ         1.0570  -30.0370   12.8690 C.ar   93  TYR93       0.1957
     21  OH         2.1930  -30.8410   12.7460 O.3    93  TYR93      -0.2866
     22  N          4.0440  -31.8750   15.6060 N.3   146  SER146     -0.1202
     23  CA         5.2840  -31.1180   15.6230 C.3   146  SER146      0.2020
     24  C          5.1620  -29.9020   14.7000 C.2   146  SER146      0.2619
     25  O          4.4570  -29.9520   13.6970 O.2   146  SER146     -0.2717
     26  CB         6.4470  -32.0010   15.1930 C.3   146  SER146      0.2103
     27  OG         7.6800  -31.2910   15.1230 O.3   146  SER146     -0.2182
     28  N          5.8600  -28.8190   15.0010 N.am  147  TRP147     -0.1961
     29  CA         5.8310  -27.6670   14.1330 C.3   147  TRP147      0.1771
     30  C          6.7910  -27.7900   12.9900 C.2   147  TRP147      0.2619
     31  O          6.4930  -27.3550   11.8810 O.2   147  TRP147     -0.2715
     32  CB         6.1290  -26.3680   14.8950 C.3   147  TRP147      0.0590
     33  CG         5.6090  -25.1800   14.1230 C.ar  147  TRP147      0.0006
     34  CD1        6.3410  -24.2400   13.4030 C.ar  147  TRP147      0.0946
     35  CD2        4.1950  -24.8150   13.9300 C.ar  147  TRP147      0.0152
     36  NE1        5.4950  -23.3190   12.8070 N.ar  147  TRP147     -0.2442
     37  CE2        4.1870  -23.6280   13.0890 C.ar  147  TRP147      0.0810
     38  CE3        3.0040  -25.3240   14.3690 C.ar  147  TRP147      0.0012
     39  CZ2        2.9990  -23.0110   12.6970 C.ar  147  TRP147      0.0191
     40  CZ3        1.8170  -24.6710   13.9980 C.ar  147  TRP147      0.0001
     41  CH2        1.8220  -23.5460   13.1840 C.ar  147  TRP147      0.0015
     42  N          7.9630  -28.3600   13.2340 N.am  148  VAL148     -0.1963
     43  CA         8.9680  -28.4540   12.1690 C.3   148  VAL148      0.1727
     44  C          9.5120  -29.8440   11.9380 C.2   148  VAL148      0.2616
     45  O         10.2980  -30.0150   11.0330 O.2   148  VAL148     -0.2715
     46  CB        10.1680  -27.5220   12.4270 C.3   148  VAL148      0.0290
     47  CG1        9.7480  -26.0280   12.4190 C.3   148  VAL148      0.0023
     48  CG2       10.8880  -27.9760   13.7100 C.3   148  VAL148      0.0023
     49  N          9.1170  -30.8380   12.7400 N.am  149  TYR149     -0.1960
     50  CA         9.5860  -32.2180   12.5030 C.3   149  TYR149      0.1771
     51  C          8.5870  -33.1170   11.7560 C.2   149  TYR149      0.2620
     52  O          7.4010  -33.3130   12.1620 O.2   149  TYR149     -0.2715
     53  CB        10.0430  -32.9030   13.7900 C.3   149  TYR149      0.0574
     54  CG        11.2480  -32.2490   14.4760 C.ar  149  TYR149     -0.0198
     55  CD1       12.5360  -32.5000   14.0520 C.ar  149  TYR149     -0.0009
     56  CD2       11.0710  -31.3870   15.5860 C.ar  149  TYR149     -0.0009
     57  CE1       13.6250  -31.9280   14.6950 C.ar  149  TYR149      0.0417
     58  CE2       12.1540  -30.7900   16.2160 C.ar  149  TYR149      0.0417
     59  CZ        13.4220  -31.0700   15.7720 C.ar  149  TYR149      0.1957
     60  OH        14.4820  -30.4980   16.4170 O.3   149  TYR149     -0.2866
     61  N          9.0830  -33.7090   10.6740 N.am  150  SER150     -0.1950
     62  CA         8.2740  -34.6800    9.9390 C.3   150  SER150      0.1924
     63  C          8.3080  -35.9990   10.7060 C.2   150  SER150      0.2314
     64  O          9.1280  -36.1510   11.6140 O.2   150  SER150     -0.2863
     65  CB         8.8530  -34.8740    8.5430 C.3   150  SER150      0.2116
     66  OG         9.7620  -35.9430    8.5280 O.3   150  SER150     -0.2180
     67  N          1.8540  -37.1340    1.3620 N.3   188  TYR188     -0.1241
     68  CA         1.3970  -36.2220    0.3270 C.3   188  TYR188      0.1605
     69  C          2.1760  -36.5940   -0.9170 C.2   188  TYR188      0.2264
     70  O          3.3810  -36.7880   -0.8460 O.2   188  TYR188     -0.2867
     71  CB         1.6780  -34.7510    0.7220 C.3   188  TYR188      0.0534
     72  CG         0.9730  -34.3410    1.9980 C.ar  188  TYR188     -0.0201
     73  CD1       -0.4420  -34.4210    2.1180 C.ar  188  TYR188     -0.0009
     74  CD2        1.6990  -33.8680    3.1060 C.ar  188  TYR188     -0.0009
     75  CE1       -1.0650  -34.0820    3.2940 C.ar  188  TYR188      0.0417
     76  CE2        1.0660  -33.5260    4.2790 C.ar  188  TYR188      0.0417
     77  CZ        -0.3020  -33.6250    4.3680 C.ar  188  TYR188      0.1957
     78  OH        -0.9270  -33.2540    5.5610 O.3   188  TYR188     -0.2866
     79  N          3.2550  -34.8280   -3.3130 N.3   190  CYS190     -0.1221
     80  CA         4.4170  -33.9430   -3.5430 C.3   190  CYS190      0.1808
     81  C          5.7180  -34.4530   -2.9630 C.2   190  CYS190      0.2601
     82  O          6.7890  -34.3180   -3.5770 O.2   190  CYS190     -0.2717
     83  CB         4.1930  -32.5460   -2.9590 C.3   190  CYS190      0.0970
     84  SG         4.0100  -32.4740   -1.1620 S.3   190  CYS190     -0.0800
     85  N          5.6190  -35.0280   -1.7670 N.am  191  CYS191     -0.1956
     86  CA         6.7300  -35.0220   -0.8270 C.3   191  CYS191      0.1828
     87  C          7.0550  -36.4430   -0.2840 C.2   191  CYS191      0.2467
     88  O          6.1490  -37.2810   -0.1380 O.2   191  CYS191     -0.2730
     89  CB         6.3640  -34.0100    0.2730 C.3   191  CYS191      0.0996
     90  SG         5.9200  -32.3660   -0.4350 S.3   191  CYS191     -0.0798
     91  N          8.3360  -36.7160    0.0320 N.am  192  PRO192     -0.2715
     92  CA         8.7860  -38.0430    0.5750 C.3   192  PRO192      0.1536
     93  C          8.4540  -38.3950    2.0630 C.2   192  PRO192      0.2598
     94  O          8.4750  -39.5600    2.4530 O.2   192  PRO192     -0.2715
     95  CB        10.3110  -37.9970    0.4070 C.3   192  PRO192      0.0310
     96  CG        10.6640  -36.5470    0.3510 C.3   192  PRO192      0.0237
     97  CD         9.4610  -35.7840   -0.1540 C.3   192  PRO192      0.0939
     98  N          8.1650  -37.4180    2.9040 N.am  193  GLU193     -0.1978
     99  CA         8.0690  -37.7350    4.3280 C.3   193  GLU193      0.1602
    100  C          6.6380  -38.0800    4.7290 C.2   193  GLU193      0.2287
    101  O          5.6730  -37.5990    4.1130 O.2   193  GLU193     -0.2864
    102  CB         8.5670  -36.5810    5.1810 C.3   193  GLU193      0.0415
    103  CG         9.9280  -36.0060    4.8110 C.3   193  GLU193      0.1163
    104  CD         9.8370  -34.9750    3.6700 C.2   193  GLU193      0.3649
    105  OE1        8.7150  -34.5980    3.2380 O.co2 193  GLU193     -0.2457
    106  OE2       10.8930  -34.5490    3.1650 O.co2 193  GLU193     -0.2457
    107  N          3.7630  -37.4280    7.5150 N.3   195  TYR195     -0.1241
    108  CA         3.4080  -36.4080    8.4900 C.3   195  TYR195      0.1605
    109  C          2.3770  -36.9600    9.4510 C.2   195  TYR195      0.2264
    110  O          1.3800  -37.5740    9.0340 O.2   195  TYR195     -0.2867
    111  CB         2.9320  -35.0900    7.8140 C.3   195  TYR195      0.0534
    112  CG         4.0620  -34.5090    7.0420 C.ar  195  TYR195     -0.0201
    113  CD1        5.0280  -33.6780    7.6810 C.ar  195  TYR195     -0.0009
    114  CD2        4.2650  -34.8390    5.6800 C.ar  195  TYR195     -0.0009
    115  CE1        6.1240  -33.1480    6.9820 C.ar  195  TYR195      0.0417
    116  CE2        5.3820  -34.3230    4.9750 C.ar  195  TYR195      0.0417
    117  CZ         6.2940  -33.4900    5.6370 C.ar  195  TYR195      0.1957
    118  OH         7.3950  -33.0140    4.9630 O.3   195  TYR195     -0.2866
@<TRIPOS>BOND
     1    82    81    2
     2    80    79    1
     3    80    81    1
     4    80    83    1
     5    81    85   am
     6    83    84    1
     7    85    86    1
     8    84    90    1
     9    69    70    2
    10    69    68    1
    11    86    87    1
    12    86    89    1
    13    90    89    1
    14    87    88    2
    15    87    91   am
    16    97    91    1
    17    97    96    1
    18    91    92    1
    19    68    71    1
    20    68    67    1
    21    96    95    1
    22    95    92    1
    23    92    93    1
    24    71    72    1
    25    72    73   ar
    26    72    74   ar
    27    93    94    2
    28    93    98   am
    29    73    75   ar
    30    98    99    1
    31    74    76   ar
    32   106   104   ar
    33   105   104   ar
    34    75    77   ar
    35   104   103    1
    36   101   100    2
    37    76    77   ar
    38    99   100    1
    39    99   102    1
    40    77    78    1
    41   103   102    1
    42   118   117    1
    43   116   117   ar
    44   116   114   ar
    45   117   115   ar
    46   114   112   ar
    47     8     9    1
    48     8     7    1
    49     7     6    1
    50   115   113   ar
    51   112   113   ar
    52   112   111    1
    53   107   108    1
    54   111   108    1
    55     6     5    1
    56   108   109    1
    57    66    65    1
    58    65    62    1
    59     5     2    1
    60   110   109    2
    61    62    61    1
    62    62    63    1
    63     2     3    1
    64     2     1    1
    65    61    51   am
    66    63    64    2
    67     3     4    2
    68    45    44    2
    69    51    52    2
    70    51    50    1
    71    31    30    2
    72    44    43    1
    73    44    49   am
    74    43    46    1
    75    43    42    1
    76    19    17   ar
    77    19    20   ar
    78    17    15   ar
    79    47    46    1
    80    46    48    1
    81    50    49    1
    82    50    53    1
    83    39    37   ar
    84    39    41   ar
    85    21    20    1
    86    36    37   ar
    87    36    34   ar
    88    20    18   ar
    89    13    12    2
    90    30    42   am
    91    30    29    1
    92    37    35   ar
    93    15    14    1
    94    15    16   ar
    95    41    40   ar
    96    14    11    1
    97    34    33   ar
    98    18    16   ar
    99    25    24    2
   100    53    54    1
   101    12    11    1
   102    35    33   ar
   103    35    38   ar
   104    40    38   ar
   105    55    54   ar
   106    55    57   ar
   107    33    32    1
   108    29    32    1
   109    29    28    1
   110    11    10    1
   111    54    56   ar
   112    57    59   ar
   113    24    28   am
   114    24    23    1
   115    27    26    1
   116    26    23    1
   117    56    58   ar
   118    22    23    1
   119    59    58   ar
   120    59    60    1
