@<TRIPOS>MOLECULE
tmp/4ez3A00.pdb
 132 126 0 0 0
SMALL
GASTEIGER

@<TRIPOS>ATOM
      1  N          0.4260  -12.2350   31.8790 N.3    10  ILE10      -0.1245
      2  CA        -0.5580  -11.7240   30.9270 C.3    10  ILE10       0.1561
      3  C         -0.5110  -12.4620   29.5960 C.2    10  ILE10       0.2260
      4  O         -1.5500  -12.7980   29.0170 O.2    10  ILE10      -0.2867
      5  CB        -0.3310  -10.2190   30.6480 C.3    10  ILE10       0.0252
      6  CG1       -0.8220   -9.3610   31.8130 C.3    10  ILE10       0.0019
      7  CG2       -1.0370   -9.7890   29.3880 C.3    10  ILE10       0.0019
      8  CD1       -0.6730   -7.8740   31.5410 C.3    10  ILE10       0.0001
      9  N          4.9300  -11.1450   28.9050 N.3    18  VAL18      -0.1245
     10  CA         4.3640   -9.9460   29.5180 C.3    18  VAL18       0.1561
     11  C          3.5790  -10.2790   30.7820 C.2    18  VAL18       0.2260
     12  O          2.7350  -11.1770   30.7690 O.2    18  VAL18      -0.2867
     13  CB         3.4690   -9.1850   28.5310 C.3    18  VAL18       0.0252
     14  CG1        2.9370   -7.9110   29.1690 C.3    18  VAL18       0.0019
     15  CG2        4.2630   -8.8510   27.2670 C.3    18  VAL18       0.0019
     16  N          1.9510   -3.0140   32.6570 N.3    31  ALA31      -0.1245
     17  CA         2.3220   -4.2200   31.9360 C.3    31  ALA31       0.1562
     18  C          3.8440   -4.2510   31.9040 C.2    31  ALA31       0.2260
     19  O          4.4910   -3.2420   31.5950 O.2    31  ALA31      -0.2867
     20  CB         1.7480   -4.1970   30.5350 C.3    31  ALA31       0.0290
     21  N         -0.4830    2.5240   23.1520 N.3    60  VAL60      -0.1245
     22  CA        -0.1380    2.1960   24.5340 C.3    60  VAL60       0.1561
     23  C          1.1850    2.8620   24.8750 C.2    60  VAL60       0.2260
     24  O          2.1600    2.7440   24.1220 O.2    60  VAL60      -0.2867
     25  CB        -0.0510    0.6590   24.7840 C.3    60  VAL60       0.0252
     26  CG1        0.2670    0.3850   26.2350 C.3    60  VAL60       0.0019
     27  CG2       -1.3710   -0.0020   24.4420 C.3    60  VAL60       0.0019
     28  N          5.0520   -0.7840   30.4650 N.3    76  PHE76      -0.1227
     29  CA         4.0230   -0.2260   29.5940 C.3    76  PHE76       0.1736
     30  C          2.7770    0.1210   30.3660 C.2    76  PHE76       0.2595
     31  O          2.4830   -0.5130   31.3860 O.2    76  PHE76      -0.2718
     32  CB         3.5870   -1.2590   28.5490 C.3    76  PHE76       0.0547
     33  CG         4.5790   -1.4990   27.4510 C.ar   76  PHE76      -0.0202
     34  CD1        4.7140   -0.5860   26.4090 C.ar   76  PHE76      -0.0042
     35  CD2        5.3370   -2.6690   27.4240 C.ar   76  PHE76      -0.0042
     36  CE1        5.6190   -0.8100   25.3680 C.ar   76  PHE76      -0.0003
     37  CE2        6.2420   -2.9090   26.3870 C.ar   76  PHE76      -0.0003
     38  CZ         6.3870   -1.9710   25.3560 C.ar   76  PHE76      -0.0000
     39  N          2.0230    1.0940   29.8580 N.am   77  GLU77      -0.1965
     40  CA         0.6660    1.3390   30.3340 C.3    77  GLU77       0.1733
     41  C         -0.1620    0.0450   30.2540 C.2    77  GLU77       0.2616
     42  O         -0.0240   -0.7370   29.3020 O.2    77  GLU77      -0.2715
     43  CB         0.0200    2.4490   29.4950 C.3    77  GLU77       0.0429
     44  CG        -1.4390    2.2100   29.1600 C.3    77  GLU77       0.1163
     45  CD        -2.0510    3.3340   28.3340 C.2    77  GLU77       0.3649
     46  OE1       -3.2520    3.6460   28.5420 O.co2  77  GLU77      -0.2457
     47  OE2       -1.3420    3.8850   27.4650 O.co2  77  GLU77      -0.2457
     48  N         -1.0030   -0.1890   31.2590 N.am   78  PHE78      -0.1960
     49  CA        -1.8040   -1.4140   31.3030 C.3    78  PHE78       0.1771
     50  C         -3.2620   -1.1920   30.9060 C.2    78  PHE78       0.2619
     51  O         -3.9000   -0.2440   31.3900 O.2    78  PHE78      -0.2715
     52  CB        -1.7410   -2.0340   32.7060 C.3    78  PHE78       0.0574
     53  CG        -2.6470   -3.2190   32.8880 C.ar   78  PHE78      -0.0200
     54  CD1       -3.9350   -3.0550   33.3880 C.ar   78  PHE78      -0.0042
     55  CD2       -2.2150   -4.5040   32.5570 C.ar   78  PHE78      -0.0042
     56  CE1       -4.7730   -4.1430   33.5500 C.ar   78  PHE78      -0.0003
     57  CE2       -3.0460   -5.5990   32.7300 C.ar   78  PHE78      -0.0003
     58  CZ        -4.3270   -5.4220   33.2240 C.ar   78  PHE78      -0.0000
     59  N         -3.7760   -2.0650   30.0330 N.am   79  LEU79      -0.1963
     60  CA        -5.2080   -2.1460   29.7520 C.3    79  LEU79       0.1728
     61  C         -5.7370   -3.5590   30.0460 C.2    79  LEU79       0.2616
     62  O         -4.9720   -4.5420   30.0290 O.2    79  LEU79      -0.2715
     63  CB        -5.5380   -1.7440   28.3100 C.3    79  LEU79       0.0311
     64  CG        -5.4410   -0.2490   27.9860 C.3    79  LEU79       0.0022
     65  CD1       -4.0100    0.0830   27.5980 C.3    79  LEU79       0.0001
     66  CD2       -6.4240    0.1360   26.8600 C.3    79  LEU79       0.0001
     67  N         -7.0400   -3.6580   30.2980 N.am   80  HIS80      -0.1959
     68  CA        -7.5870   -4.8640   30.9120 C.3    80  HIS80       0.1787
     69  C         -7.9990   -6.0100   29.9820 C.2    80  HIS80       0.2620
     70  O         -8.2400   -7.1270   30.4600 O.2    80  HIS80      -0.2715
     71  CB        -8.7630   -4.5140   31.8220 C.3    80  HIS80       0.0785
     72  CG        -8.3650   -3.8880   33.1220 C.ar   80  HIS80       0.0821
     73  ND1       -8.0880   -2.5410   33.2480 N.ar   80  HIS80      -0.2267
     74  CD2       -8.2200   -4.4210   34.3620 C.ar   80  HIS80       0.1154
     75  CE1       -7.7780   -2.2750   34.5070 C.ar   80  HIS80       0.1986
     76  NE2       -7.8580   -3.3960   35.2050 N.ar   80  HIS80      -0.2212
     77  N         -8.0830   -5.7640   28.6760 N.am   81  GLN81      -0.1963
     78  CA        -8.5200   -6.8250   27.7590 C.3    81  GLN81       0.1733
     79  C         -7.9680   -6.5950   26.3630 C.2    81  GLN81       0.2616
     80  O         -7.7660   -5.4370   25.9620 O.2    81  GLN81      -0.2715
     81  CB       -10.0540   -6.8800   27.7320 C.3    81  GLN81       0.0408
     82  CG       -10.6410   -8.1460   27.0870 C.3    81  GLN81       0.0908
     83  CD       -12.1100   -8.3310   27.4160 C.2    81  GLN81       0.2608
     84  OE1      -12.9720   -8.2350   26.5370 O.2    81  GLN81      -0.2717
     85  NE2      -12.4060   -8.5940   28.6890 N.am   81  GLN81      -0.0878
     86  N         -7.6810   -7.6710   25.6240 N.am   82  ASP82      -0.1971
     87  CA        -7.2450   -7.4940   24.2380 C.3    82  ASP82       0.1709
     88  C         -8.4050   -7.7810   23.3070 C.2    82  ASP82       0.2293
     89  O         -9.4470   -8.2760   23.7450 O.2    82  ASP82      -0.2864
     90  CB        -5.9830   -8.3110   23.8680 C.3    82  ASP82       0.1436
     91  CG        -6.1900   -9.8290   23.9400 C.2    82  ASP82       0.3671
     92  OD1       -7.3310  -10.3260   23.7780 O.co2  82  ASP82      -0.2456
     93  OD2       -5.1850  -10.5480   24.1450 O.co2  82  ASP82      -0.2456
     94  N         -9.6370  -11.5500   23.0130 N.3    85  LYS85      -0.1245
     95  CA       -10.5530  -11.9960   24.0620 C.3    85  LYS85       0.1561
     96  C        -11.9310  -11.3890   23.8450 C.2    85  LYS85       0.2260
     97  O        -12.9420  -12.0760   23.9960 O.2    85  LYS85      -0.2867
     98  CB       -10.0420  -11.6580   25.4690 C.3    85  LYS85       0.0271
     99  CG       -10.8570  -12.3490   26.5820 C.3    85  LYS85       0.0035
    100  CD       -10.3660  -11.9270   27.9610 C.3    85  LYS85       0.0206
    101  CE       -10.8990  -12.8330   29.0640 C.3    85  LYS85       0.1093
    102  NZ       -10.3550  -12.4530   30.4170 N.3    85  LYS85      -0.1314
    103  N         -4.2770   -9.7140   19.2860 N.3   127  GLN127     -0.1245
    104  CA        -3.6540   -9.8000   20.6090 C.3   127  GLN127      0.1566
    105  C         -2.8150   -8.5450   20.9360 C.2   127  GLN127      0.2260
    106  O         -2.4690   -8.2930   22.1100 O.2   127  GLN127     -0.2867
    107  CB        -2.8170  -11.0960   20.7090 C.3   127  GLN127      0.0367
    108  CG        -3.6270  -12.4130   20.5050 C.3   127  GLN127      0.0905
    109  CD        -4.0160  -12.7240   19.0350 C.2   127  GLN127      0.2608
    110  OE1       -3.6790  -11.9890   18.1000 O.2   127  GLN127     -0.2717
    111  NE2       -4.7300  -13.8290   18.8470 N.am  127  GLN127     -0.0878
    112  N         -5.5180   -3.4090   22.4690 N.3   130  LEU130     -0.1245
    113  CA        -6.0540   -3.4520   23.8270 C.3   130  LEU130      0.1561
    114  C         -7.2220   -2.4800   24.0140 C.2   130  LEU130      0.2260
    115  O         -7.2150   -1.3580   23.4750 O.2   130  LEU130     -0.2867
    116  CB        -4.9530   -3.1290   24.8320 C.3   130  LEU130      0.0270
    117  CG        -3.6730   -3.9450   24.6680 C.3   130  LEU130      0.0019
    118  CD1       -2.6650   -3.5110   25.6990 C.3   130  LEU130      0.0001
    119  CD2       -3.9640   -5.4380   24.7760 C.3   130  LEU130      0.0001
    120  N         -0.5860   -1.9190   20.6890 N.3   140  ALA140     -0.1231
    121  CA         0.3740   -2.3110   21.7280 C.3   140  ALA140      0.1694
    122  C          1.4700   -3.1970   21.1600 C.2   140  ALA140      0.2592
    123  O          1.3220   -3.7510   20.0540 O.2   140  ALA140     -0.2718
    124  CB        -0.3310   -3.0550   22.8430 C.3   140  ALA140      0.0304
    125  N          2.5470   -3.3450   21.9300 N.am  141  ASP141     -0.1974
    126  CA         3.6070   -4.3040   21.6350 C.3   141  ASP141      0.1709
    127  C          4.1370   -4.1750   20.2000 C.2   141  ASP141      0.2293
    128  O          4.1970   -5.1550   19.4530 O.2   141  ASP141     -0.2864
    129  CB         3.1110   -5.7260   21.9150 C.3   141  ASP141      0.1436
    130  CG         4.2320   -6.7370   21.9600 C.2   141  ASP141      0.3671
    131  OD1        5.3450   -6.3930   22.4290 O.co2 141  ASP141     -0.2456
    132  OD2        4.0040   -7.8820   21.5050 O.co2 141  ASP141     -0.2456
@<TRIPOS>BOND
     1   110   109    2
     2   111   109   am
     3   109   108    1
     4   103   104    1
     5   128   127    2
     6   123   122    2
     7   127   126    1
     8   108   107    1
     9   104   107    1
    10   104   105    1
    11   120   121    1
    12   105   106    2
    13   122   121    1
    14   122   125   am
    15   132   130   ar
    16   126   129    1
    17   126   125    1
    18   121   124    1
    19   129   130    1
    20   130   131   ar
    21   112   113    1
    22    94    95    1
    23    21    22    1
    24    88    89    2
    25    88    87    1
    26   115   114    2
    27    92    91   ar
    28   113   114    1
    29   113   116    1
    30    96    97    2
    31    96    95    1
    32    90    91    1
    33    90    87    1
    34    91    93   ar
    35    95    98    1
    36    24    23    2
    37    87    86    1
    38    27    25    1
    39    22    25    1
    40    22    23    1
    41   117   119    1
    42   117   116    1
    43   117   118    1
    44    25    26    1
    45    38    36   ar
    46    38    37   ar
    47    36    34   ar
    48    98    99    1
    49    86    79   am
    50    80    79    2
    51    79    78    1
    52    37    35   ar
    53    34    33   ar
    54    84    83    2
    55    99   100    1
    56    66    64    1
    57    82    83    1
    58    82    81    1
    59    15    13    1
    60    83    85   am
    61    35    33   ar
    62    33    32    1
    63    47    45   ar
    64    65    64    1
    65    81    78    1
    66    78    77    1
    67   100   101    1
    68    64    63    1
    69    63    60    1
    70    45    46   ar
    71    45    44    1
    72    13    14    1
    73    13    10    1
    74    32    29    1
    75    77    69   am
    76     9    10    1
    77     4     3    2
    78   101   102    1
    79    44    43    1
    80    42    41    2
    81     7     5    1
    82    43    40    1
    83    10    11    1
    84    29    30    1
    85    29    28    1
    86     3     2    1
    87    60    59    1
    88    60    61    1
    89    39    40    1
    90    39    30   am
    91    69    70    2
    92    69    68    1
    93    62    61    2
    94    59    50   am
    95    61    67   am
    96    41    40    1
    97    41    48   am
    98    67    68    1
    99    30    31    2
   100    20    17    1
   101     5     2    1
   102     5     6    1
   103    12    11    2
   104    50    49    1
   105    50    51    2
   106    68    71    1
   107     2     1    1
   108    48    49    1
   109    49    52    1
   110     8     6    1
   111    19    18    2
   112    71    72    1
   113    18    17    1
   114    17    16    1
   115    55    57   ar
   116    55    53   ar
   117    52    53    1
   118    57    58   ar
   119    53    54   ar
   120    72    73   ar
   121    72    74   ar
   122    58    56   ar
   123    73    75   ar
   124    54    56   ar
   125    74    76   ar
   126    75    76   ar
