@<TRIPOS>MOLECULE
tmp/4ez5A00.pdb
 165 155 0 0 0
SMALL
GASTEIGER

@<TRIPOS>ATOM
      1  N         43.2720   29.0040   13.7600 N.3     8  GLU8       -0.1231
      2  CA        43.3420   28.3780   12.4520 C.3     8  GLU8        0.1699
      3  C         42.6040   27.0490   12.5300 C.2     8  GLU8        0.2592
      4  O         42.6850   26.3480   13.5390 O.2     8  GLU8       -0.2718
      5  CB        44.7950   28.1470   12.0340 C.3     8  GLU8        0.0402
      6  CG        44.9430   27.6300   10.6050 C.3     8  GLU8        0.1161
      7  CD        46.3690   27.2200   10.2550 C.2     8  GLU8        0.3649
      8  OE1       46.9670   26.4180   11.0090 O.co2   8  GLU8       -0.2457
      9  OE2       46.8900   27.6970    9.2200 O.co2   8  GLU8       -0.2457
     10  N         41.8720   26.7080   11.4750 N.am    9  ILE9       -0.1980
     11  CA        41.1780   25.4290   11.4290 C.3     9  ILE9        0.1595
     12  C         42.0970   24.3840   10.8100 C.2     9  ILE9        0.2287
     13  O         42.1920   23.2490   11.2900 O.2     9  ILE9       -0.2864
     14  CB        39.8670   25.5150   10.6340 C.3     9  ILE9        0.0276
     15  CG1       38.9680   26.6090   11.2090 C.3     9  ILE9        0.0022
     16  CG2       39.1430   24.1900   10.6770 C.3     9  ILE9        0.0022
     17  CD1       37.5980   26.6730   10.5700 C.3     9  ILE9        0.0001
     18  N         43.4930   26.3630    0.3350 N.3    14  GLY14      -0.1225
     19  CA        44.4460   27.2780    0.9360 C.3    14  GLY14       0.1811
     20  C         44.4400   27.2480    2.4530 C.2    14  GLY14       0.2280
     21  O         44.6250   26.1980    3.0710 O.2    14  GLY14      -0.2866
     22  N         42.4720   28.3250    6.1250 N.3    16  VAL16      -0.1245
     23  CA        41.1750   28.6150    6.7380 C.3    16  VAL16       0.1561
     24  C         41.2630   28.9510    8.2220 C.2    16  VAL16       0.2260
     25  O         41.9130   28.2480    8.9950 O.2    16  VAL16      -0.2867
     26  CB        40.1840   27.4520    6.5550 C.3    16  VAL16       0.0252
     27  CG1       39.5840   27.4850    5.1680 C.3    16  VAL16       0.0019
     28  CG2       40.8660   26.1170    6.8130 C.3    16  VAL16       0.0019
     29  N         33.8410   31.4650    9.1220 N.3    30  ALA30      -0.1245
     30  CA        35.0350   30.8260    8.5840 C.3    30  ALA30       0.1562
     31  C         35.6060   31.6550    7.4390 C.2    30  ALA30       0.2260
     32  O         34.9180   31.9210    6.4610 O.2    30  ALA30      -0.2867
     33  CB        34.7200   29.4160    8.1260 C.3    30  ALA30       0.0290
     34  N         38.5280   32.2750    4.4730 N.3    32  LYS32      -0.1245
     35  CA        39.5350   31.6820    3.6130 C.3    32  LYS32       0.1561
     36  C         40.0460   32.7740    2.6960 C.2    32  LYS32       0.2260
     37  O         39.2480   33.4880    2.0850 O.2    32  LYS32      -0.2867
     38  CB        38.9450   30.5230    2.7970 C.3    32  LYS32       0.0271
     39  CG        39.9940   29.7030    2.0580 C.3    32  LYS32       0.0035
     40  CD        39.4630   28.3560    1.5730 C.3    32  LYS32       0.0206
     41  CE        38.3830   28.5070    0.5110 C.3    32  LYS32       0.1093
     42  NZ        38.1130   27.2340   -0.2390 N.3    32  LYS32      -0.1314
     43  N         27.5050   24.3530    3.1960 N.3    57  VAL57      -0.1245
     44  CA        27.9560   25.4790    3.9950 C.3    57  VAL57       0.1561
     45  C         27.4970   26.8160    3.4050 C.2    57  VAL57       0.2260
     46  O         27.6310   27.0410    2.2070 O.2    57  VAL57      -0.2867
     47  CB        29.4970   25.4330    4.1550 C.3    57  VAL57       0.0252
     48  CG1       30.1060   26.8010    4.0170 C.3    57  VAL57       0.0019
     49  CG2       29.8680   24.8080    5.4880 C.3    57  VAL57       0.0019
     50  N         32.4670   32.2110    5.1310 N.3    70  PHE70      -0.1227
     51  CA        31.4450   31.1850    5.2070 C.3    70  PHE70       0.1736
     52  C         30.9590   31.1360    6.6330 C.2    70  PHE70       0.2595
     53  O         31.4780   31.8370    7.4930 O.2    70  PHE70      -0.2718
     54  CB        32.0260   29.8200    4.8430 C.3    70  PHE70       0.0547
     55  CG        32.5390   29.7250    3.4390 C.ar   70  PHE70      -0.0202
     56  CD1       31.7090   29.3030    2.4140 C.ar   70  PHE70      -0.0042
     57  CD2       33.8530   30.0420    3.1480 C.ar   70  PHE70      -0.0042
     58  CE1       32.1690   29.2020    1.1300 C.ar   70  PHE70      -0.0003
     59  CE2       34.3280   29.9450    1.8590 C.ar   70  PHE70      -0.0003
     60  CZ        33.4840   29.5240    0.8460 C.ar   70  PHE70      -0.0000
     61  N         29.9750   30.2930    6.8950 N.am   71  GLU71      -0.1965
     62  CA        29.5700   30.0700    8.2640 C.3    71  GLU71       0.1733
     63  C         30.6240   29.2040    8.9420 C.2    71  GLU71       0.2616
     64  O         31.5510   28.7290    8.3000 O.2    71  GLU71      -0.2715
     65  CB        28.1990   29.4060    8.3190 C.3    71  GLU71       0.0429
     66  CG        28.1410   28.1070    7.5780 C.3    71  GLU71       0.1163
     67  CD        26.8140   27.4260    7.7400 C.2    71  GLU71       0.3649
     68  OE1       26.4490   26.6100    6.8690 O.co2  71  GLU71      -0.2457
     69  OE2       26.1350   27.7070    8.7420 O.co2  71  GLU71      -0.2457
     70  N         30.4900   29.0200   10.2480 N.am   72  HIS72      -0.1959
     71  CA        31.3920   28.1530   10.9780 C.3    72  HIS72       0.1787
     72  C         30.5660   27.0090   11.5440 C.2    72  HIS72       0.2620
     73  O         29.4280   27.2080   11.9470 O.2    72  HIS72      -0.2715
     74  CB        32.1170   28.9440   12.0750 C.3    72  HIS72       0.0785
     75  CG        33.0310   28.1160   12.9270 C.ar   72  HIS72       0.0821
     76  ND1       32.5670   27.2570   13.9030 N.ar   72  HIS72      -0.2267
     77  CD2       34.3820   28.0280   12.9600 C.ar   72  HIS72       0.1154
     78  CE1       33.5930   26.6700   14.4950 C.ar   72  HIS72       0.1986
     79  NE2       34.7040   27.1220   13.9430 N.ar   72  HIS72      -0.2212
     80  N         31.1250   25.8060   11.5340 N.am   73  VAL73      -0.1963
     81  CA        30.4760   24.6420   12.1330 C.3    73  VAL73       0.1727
     82  C         31.4120   24.0840   13.2020 C.2    73  VAL73       0.2616
     83  O         32.6270   24.0810   13.0160 O.2    73  VAL73      -0.2715
     84  CB        30.1720   23.5600   11.0780 C.3    73  VAL73       0.0290
     85  CG1       29.5150   22.3560   11.7100 C.3    73  VAL73       0.0023
     86  CG2       29.2970   24.1150    9.9950 C.3    73  VAL73       0.0023
     87  N         30.8620   23.6270   14.3230 N.am   74  ASP74      -0.1957
     88  CA        31.6950   23.2590   15.4760 C.3    74  ASP74       0.1840
     89  C         32.6890   22.1210   15.1980 C.2    74  ASP74       0.2622
     90  O         33.7550   22.0580   15.8170 O.2    74  ASP74      -0.2715
     91  CB        30.8330   22.9210   16.7050 C.3    74  ASP74       0.1450
     92  CG        30.1020   24.1370   17.2670 C.2    74  ASP74       0.3671
     93  OD1       29.4540   24.8630   16.4780 O.co2  74  ASP74      -0.2456
     94  OD2       30.1760   24.3730   18.4980 O.co2  74  ASP74      -0.2456
     95  N         32.3460   21.2310   14.2690 N.am   75  GLN75      -0.1963
     96  CA        33.1790   20.0590   14.0340 C.3    75  GLN75       0.1733
     97  C         32.9620   19.4010   12.6700 C.2    75  GLN75       0.2616
     98  O         31.9610   19.6530   12.0030 O.2    75  GLN75      -0.2715
     99  CB        32.9500   19.0320   15.1430 C.3    75  GLN75       0.0408
    100  CG        31.6550   18.2700   15.0110 C.3    75  GLN75       0.0908
    101  CD        31.4630   17.2870   16.1380 C.2    75  GLN75       0.2608
    102  OE1       32.0990   17.4050   17.1830 O.2    75  GLN75      -0.2717
    103  NE2       30.5880   16.3060   15.9330 N.am   75  GLN75      -0.0878
    104  N         33.9100   18.5580   12.2670 N.am   76  ASP76      -0.1971
    105  CA        33.8020   17.8280   11.0090 C.3    76  ASP76       0.1709
    106  C         33.3060   16.4180   11.2630 C.2    76  ASP76       0.2293
    107  O         33.0170   16.0700   12.4020 O.2    76  ASP76      -0.2864
    108  CB        35.1370   17.8250   10.2430 C.3    76  ASP76       0.1436
    109  CG        36.2490   17.0850   10.9740 C.2    76  ASP76       0.3671
    110  OD1       35.9730   16.0890   11.6710 O.co2  76  ASP76      -0.2456
    111  OD2       37.4190   17.4940   10.8320 O.co2  76  ASP76      -0.2456
    112  N         36.0420   14.2990   13.5990 N.3    79  THR79      -0.1218
    113  CA        36.0340   14.4100   15.0540 C.3    79  THR79       0.1862
    114  C         34.7520   13.8120   15.6300 C.2    79  THR79       0.2287
    115  O         34.7440   13.2980   16.7450 O.2    79  THR79      -0.2866
    116  CB        36.2490   15.8560   15.5660 C.3    79  THR79       0.1770
    117  OG1       35.0030   16.4200   15.9940 O.3    79  THR79      -0.2211
    118  CG2       36.8750   16.7250   14.4960 C.3    79  THR79       0.0375
    119  N         35.9410   14.0000    1.4670 N.3   119  LYS119     -0.1245
    120  CA        36.5180   13.1970    2.5310 C.3   119  LYS119      0.1561
    121  C         35.8720   13.6930    3.8220 C.2   119  LYS119      0.2260
    122  O         35.3420   14.8020    3.8470 O.2   119  LYS119     -0.2867
    123  CB        38.0410   13.3950    2.5660 C.3   119  LYS119      0.0271
    124  CG        38.4540   14.8290    2.8650 C.3   119  LYS119      0.0035
    125  CD        39.8900   15.1340    2.4790 C.3   119  LYS119      0.0206
    126  CE        40.0320   16.6210    2.1610 C.3   119  LYS119      0.1093
    127  NZ        41.4360   17.0800    1.9680 N.3   119  LYS119     -0.1314
    128  N         37.0010   14.9480    6.3180 N.3   121  GLN121     -0.1231
    129  CA        37.6660   16.1310    6.8400 C.3   121  GLN121      0.1698
    130  C         37.0480   17.4380    6.3240 C.2   121  GLN121      0.2592
    131  O         37.3820   18.5190    6.8110 O.2   121  GLN121     -0.2718
    132  CB        39.1710   16.0860    6.5270 C.3   121  GLN121      0.0381
    133  CG        39.9560   14.9690    7.2370 C.3   121  GLN121      0.0905
    134  CD        39.8040   13.5980    6.5780 C.2   121  GLN121      0.2608
    135  OE1       39.0800   13.4460    5.5940 O.2   121  GLN121     -0.2717
    136  NE2       40.4870   12.5940    7.1250 N.am  121  GLN121     -0.0878
    137  N         36.1660   17.3500    5.3310 N.am  122  ASN122     -0.1974
    138  CA        35.4140   18.5290    4.8830 C.3   122  ASN122      0.1688
    139  C         33.9060   18.2890    4.8610 C.2   122  ASN122      0.2292
    140  O         33.1410   19.0310    4.2450 O.2   122  ASN122     -0.2864
    141  CB        35.9260   19.0820    3.5400 C.3   122  ASN122      0.1181
    142  CG        36.1490   18.0020    2.4950 C.2   122  ASN122      0.2629
    143  OD1       35.4010   17.0320    2.4090 O.2   122  ASN122     -0.2716
    144  ND2       37.1860   18.1760    1.6880 N.am  122  ASN122     -0.0877
    145  N         31.0870   18.6470    7.3070 N.3   124  LEU124     -0.1245
    146  CA        30.8770   19.3040    8.5910 C.3   124  LEU124      0.1561
    147  C         29.5690   18.8960    9.2590 C.2   124  LEU124      0.2260
    148  O         28.5370   18.8080    8.6040 O.2   124  LEU124     -0.2867
    149  CB        30.9250   20.8180    8.4050 C.3   124  LEU124      0.0270
    150  CG        32.1660   21.3060    7.6640 C.3   124  LEU124      0.0019
    151  CD1       32.1820   22.8120    7.6250 C.3   124  LEU124      0.0001
    152  CD2       33.4160   20.7700    8.3260 C.3   124  LEU124      0.0001
    153  N         31.6240   21.1850    2.7940 N.3   134  ALA134     -0.1231
    154  CA        32.5480   22.3030    2.6580 C.3   134  ALA134      0.1694
    155  C         33.6340   22.0010    1.6250 C.2   134  ALA134      0.2592
    156  O         33.7330   20.8760    1.1360 O.2   134  ALA134     -0.2718
    157  CB        33.1740   22.6270    4.0030 C.3   134  ALA134      0.0304
    158  N         34.4260   23.0190    1.2900 N.am  135  ASP135     -0.1974
    159  CA        35.6440   22.8520    0.4890 C.3   135  ASP135      0.1709
    160  C         35.4140   22.3640   -0.9450 C.2   135  ASP135      0.2293
    161  O         35.9450   21.3330   -1.3580 O.2   135  ASP135     -0.2864
    162  CB        36.6200   21.9100    1.1980 C.3   135  ASP135      0.1436
    163  CG        37.9680   21.8410    0.5110 C.2   135  ASP135      0.3671
    164  OD1       38.3870   22.8650   -0.0800 O.co2 135  ASP135     -0.2456
    165  OD2       38.5940   20.7580    0.5480 O.co2 135  ASP135     -0.2456
@<TRIPOS>BOND
     1   161   160    2
     2   160   159    1
     3    42    41    1
     4   164   163   ar
     5    18    19    1
     6   159   162    1
     7   159   158    1
     8   163   165   ar
     9   163   162    1
    10    41    40    1
    11    60    58   ar
    12    60    59   ar
    13    19    20    1
    14    58    56   ar
    15   156   155    2
    16   158   155   am
    17   119   120    1
    18    40    39    1
    19   155   154    1
    20   144   142   am
    21    59    57   ar
    22   127   126    1
    23    39    38    1
    24    37    36    2
    25   126   125    1
    26    46    45    2
    27   143   142    2
    28    56    55   ar
    29    20    21    2
    30   125   124    1
    31   142   141    1
    32   120   123    1
    33   120   121    1
    34   123   124    1
    35   154   153    1
    36   154   157    1
    37    36    35    1
    38    38    35    1
    39    57    55   ar
    40    43    44    1
    41    45    44    1
    42    55    54    1
    43   141   138    1
    44    35    34    1
    45   121   122    2
    46    44    47    1
    47    48    47    1
    48    47    49    1
    49   140   139    2
    50    54    51    1
    51   139   138    1
    52   138   137    1
    53    50    51    1
    54    27    26    1
    55    51    52    1
    56   137   130   am
    57   135   134    2
    58    22    23    1
    59   128   129    1
    60   130   131    2
    61   130   129    1
    62    32    31    2
    63   132   129    1
    64   132   133    1
    65    26    23    1
    66    26    28    1
    67   134   136   am
    68   134   133    1
    69    52    61   am
    70    52    53    2
    71    23    24    1
    72    68    67   ar
    73    61    62    1
    74   145   146    1
    75    31    30    1
    76    66    67    1
    77    66    65    1
    78   151   150    1
    79   150   152    1
    80   150   149    1
    81    67    69   ar
    82    33    30    1
    83    24    25    2
    84    62    65    1
    85    62    63    1
    86    64    63    2
    87   149   146    1
    88    30    29    1
    89   146   147    1
    90   148   147    2
    91    63    70   am
    92     9     7   ar
    93    86    84    1
    94   108   109    1
    95   108   105    1
    96    70    71    1
    97     7     6    1
    98     7     8   ar
    99    17    15    1
   100     6     5    1
   101    14    16    1
   102    14    15    1
   103    14    11    1
   104    12    13    2
   105    12    11    1
   106   111   109   ar
   107   109   110   ar
   108    71    72    1
   109    71    74    1
   110   105   106    1
   111   105   104    1
   112    84    85    1
   113    84    81    1
   114   106   107    2
   115    11    10    1
   116    10     3   am
   117    80    72   am
   118    80    81    1
   119    72    73    2
   120    98    97    2
   121     5     2    1
   122    74    75    1
   123    81    82    1
   124   104    97   am
   125     2     3    1
   126     2     1    1
   127     3     4    2
   128    97    96    1
   129    75    77   ar
   130    75    76   ar
   131    77    79   ar
   132    83    82    2
   133    82    87   am
   134   112   113    1
   135    76    78   ar
   136    79    78   ar
   137    96    95    1
   138    96    99    1
   139    95    89   am
   140    87    88    1
   141   118   116    1
   142   100    99    1
   143   100   101    1
   144   113   116    1
   145   113   114    1
   146    89    88    1
   147    89    90    2
   148    88    91    1
   149   116   117    1
   150   114   115    2
   151   103   101   am
   152   101   102    2
   153    93    92   ar
   154    91    92    1
   155    92    94   ar
