@<TRIPOS>MOLECULE
tmp/4ez6A00.pdb
 164 156 0 0 0
SMALL
GASTEIGER

@<TRIPOS>ATOM
      1  N        125.1280  -35.3310   30.9790 N.3   319  ARG319     -0.1245
      2  CA       124.9550  -35.6270   32.3930 C.3   319  ARG319      0.1563
      3  C        124.1340  -36.8930   32.5520 C.2   319  ARG319      0.2260
      4  O        123.4270  -37.3080   31.6360 O.2   319  ARG319     -0.2867
      5  CB       124.2360  -34.4840   33.1240 C.3   319  ARG319      0.0307
      6  CG       125.1620  -33.3960   33.6400 C.3   319  ARG319      0.0489
      7  CD       124.4540  -32.5120   34.6410 C.3   319  ARG319      0.2205
      8  NE       125.3730  -31.5710   35.2680 N.pl3 319  ARG319     -0.0865
      9  CZ       124.9950  -30.6850   36.1800 C.cat 319  ARG319      0.5346
     10  NH1      123.7280  -30.6680   36.5620 N.pl3 319  ARG319      0.1354
     11  NH2      125.8690  -29.8400   36.7150 N.pl3 319  ARG319      0.1354
     12  N        121.1580  -27.8850   51.3790 N.3   333  ARG333     -0.1245
     13  CA       121.4510  -26.4440   51.4830 C.3   333  ARG333      0.1563
     14  C        120.9180  -25.7480   52.7460 C.2   333  ARG333      0.2260
     15  O        121.4970  -24.7550   53.1880 O.2   333  ARG333     -0.2867
     16  CB       120.9400  -25.7070   50.2440 C.3   333  ARG333      0.0307
     17  CG       121.6740  -26.1500   48.9920 C.3   333  ARG333      0.0489
     18  CD       121.1940  -25.4840   47.7290 C.3   333  ARG333      0.2205
     19  NE       121.7940  -26.1530   46.5850 N.pl3 333  ARG333     -0.0865
     20  CZ       121.4820  -25.9080   45.3140 C.cat 333  ARG333      0.5346
     21  NH1      120.5630  -24.9990   45.0110 N.pl3 333  ARG333      0.1354
     22  NH2      122.0910  -26.5980   44.3530 N.pl3 333  ARG333      0.1354
     23  N        133.9070  -34.5180   46.1670 N.3   357  ASP357     -0.1225
     24  CA       133.3460  -33.6040   45.1620 C.3   357  ASP357      0.1805
     25  C        134.4330  -32.7630   44.5140 C.2   357  ASP357      0.2598
     26  O        135.3400  -32.2670   45.1880 O.2   357  ASP357     -0.2718
     27  CB       132.2800  -32.6730   45.7670 C.3   357  ASP357      0.1424
     28  CG       132.8400  -31.7170   46.8000 C.2   357  ASP357      0.3668
     29  OD1      133.2730  -32.1740   47.8870 O.co2 357  ASP357     -0.2456
     30  OD2      132.8120  -30.5010   46.5370 O.co2 357  ASP357     -0.2456
     31  N        134.3390  -32.6120   43.1960 N.am  358  TYR358     -0.1962
     32  CA       135.1850  -31.6550   42.4780 C.3   358  TYR358      0.1771
     33  C        134.8210  -30.2620   42.9450 C.2   358  TYR358      0.2620
     34  O        133.6560  -29.9480   43.1230 O.2   358  TYR358     -0.2715
     35  CB       134.9530  -31.6980   40.9650 C.3   358  TYR358      0.0574
     36  CG       135.5630  -32.8670   40.2340 C.ar  358  TYR358     -0.0198
     37  CD1      134.7580  -33.8780   39.7140 C.ar  358  TYR358     -0.0009
     38  CD2      136.9310  -32.9610   40.0450 C.ar  358  TYR358     -0.0009
     39  CE1      135.2980  -34.9520   39.0350 C.ar  358  TYR358      0.0417
     40  CE2      137.4880  -34.0420   39.3570 C.ar  358  TYR358      0.0417
     41  CZ       136.6650  -35.0310   38.8510 C.ar  358  TYR358      0.1957
     42  OH       137.1950  -36.1070   38.1760 O.3   358  TYR358     -0.2866
     43  N        135.8150  -29.4050   43.1110 N.am  359  SER359     -0.1936
     44  CA       135.5470  -28.0150   43.4550 C.3   359  SER359      0.2055
     45  C        135.5350  -27.1450   42.1970 C.2   359  SER359      0.2643
     46  O        136.5370  -27.0730   41.4760 O.2   359  SER359     -0.2714
     47  CB       136.6140  -27.4940   44.4200 C.3   359  SER359      0.2130
     48  OG       136.4430  -26.1030   44.6410 O.3   359  SER359     -0.2179
     49  N        134.3990  -26.4970   41.9560 N.am  360  GLN360     -0.1963
     50  CA       134.2160  -25.5890   40.8200 C.3   360  GLN360      0.1733
     51  C        134.6910  -26.1860   39.4870 C.2   360  GLN360      0.2616
     52  O        135.3360  -25.5040   38.6860 O.2   360  GLN360     -0.2715
     53  CB       134.9300  -24.2650   41.1020 C.3   360  GLN360      0.0408
     54  CG       134.4280  -23.6260   42.3820 C.3   360  GLN360      0.0908
     55  CD       135.5090  -22.8930   43.1240 C.2   360  GLN360      0.2608
     56  OE1      136.1860  -22.0300   42.5630 O.2   360  GLN360     -0.2717
     57  NE2      135.6830  -23.2300   44.3980 N.am  360  GLN360     -0.0878
     58  N        134.3680  -27.4550   39.2340 N.am  361  ILE361     -0.1963
     59  CA       134.8910  -28.0940   38.0280 C.3   361  ILE361      0.1727
     60  C        134.4770  -27.3820   36.7390 C.2   361  ILE361      0.2616
     61  O        135.2720  -27.2780   35.8030 O.2   361  ILE361     -0.2715
     62  CB       134.5520  -29.5920   37.9260 C.3   361  ILE361      0.0290
     63  CG1      135.1790  -30.1950   36.6600 C.3   361  ILE361      0.0022
     64  CG2      133.0380  -29.8230   37.9460 C.3   361  ILE361      0.0023
     65  CD1      135.0800  -31.7360   36.6010 C.3   361  ILE361      0.0001
     66  N        133.2560  -26.8710   36.6760 N.am  362  GLU362     -0.1963
     67  CA       132.8190  -26.2260   35.4430 C.3   362  GLU362      0.1733
     68  C        133.5920  -24.9430   35.1880 C.2   362  GLU362      0.2616
     69  O        133.8720  -24.5880   34.0370 O.2   362  GLU362     -0.2715
     70  CB       131.3350  -25.9200   35.4920 C.3   362  GLU362      0.0429
     71  CG       130.4850  -27.1230   35.2350 C.3   362  GLU362      0.1163
     72  CD       129.0120  -26.8120   35.3130 C.2   362  GLU362      0.3649
     73  OE1      128.2810  -27.6140   35.9300 O.co2 362  GLU362     -0.2457
     74  OE2      128.5840  -25.7880   34.7360 O.co2 362  GLU362     -0.2457
     75  N        133.9310  -24.2410   36.2610 N.am  363  LEU363     -0.1977
     76  CA       134.6980  -23.0040   36.1130 C.3   363  LEU363      0.1596
     77  C        136.1390  -23.2990   35.7210 C.2   363  LEU363      0.2287
     78  O        136.7620  -22.5040   35.0420 O.2   363  LEU363     -0.2864
     79  CB       134.6170  -22.1490   37.3800 C.3   363  LEU363      0.0297
     80  CG       133.2100  -21.6090   37.6870 C.3   363  LEU363      0.0022
     81  CD1      133.1920  -20.7810   38.9650 C.3   363  LEU363      0.0001
     82  CD2      132.6710  -20.7970   36.5230 C.3   363  LEU363      0.0001
     83  N        127.8140  -16.7230   50.4080 N.3   375  ARG375     -0.1245
     84  CA       128.6090  -17.5500   49.5120 C.3   375  ARG375      0.1563
     85  C        127.7240  -18.4360   48.6200 C.2   375  ARG375      0.2260
     86  O        128.0590  -18.7080   47.4680 O.2   375  ARG375     -0.2867
     87  CB       129.5850  -18.3960   50.3230 C.3   375  ARG375      0.0307
     88  CG       130.7850  -18.8150   49.5330 C.3   375  ARG375      0.0489
     89  CD       131.8400  -19.4560   50.3940 C.3   375  ARG375      0.2205
     90  NE       132.6750  -20.3310   49.5840 N.pl3 375  ARG375     -0.0865
     91  CZ       132.2890  -21.5290   49.1540 C.cat 375  ARG375      0.5346
     92  NH1      131.0870  -21.9960   49.4760 N.pl3 375  ARG375      0.1354
     93  NH2      133.1010  -22.2600   48.4080 N.pl3 375  ARG375      0.1354
     94  N        127.6700  -18.1000   44.4280 N.3   379  LYS379     -0.1231
     95  CA       127.8140  -19.1650   43.4390 C.3   379  LYS379      0.1693
     96  C        126.8600  -18.9410   42.2820 C.2   379  LYS379      0.2591
     97  O        127.2230  -19.1540   41.1220 O.2   379  LYS379     -0.2718
     98  CB       127.5110  -20.5280   44.0570 C.3   379  LYS379      0.0285
     99  CG       128.6590  -21.1660   44.8080 C.3   379  LYS379      0.0035
    100  CD       128.0960  -22.0150   45.9580 C.3   379  LYS379      0.0206
    101  CE       129.1510  -22.8610   46.6290 C.3   379  LYS379      0.1093
    102  NZ       128.5150  -23.7310   47.6690 N.3   379  LYS379     -0.1314
    103  N        125.6300  -18.5330   42.6030 N.am  380  ALA380     -0.1980
    104  CA       124.6190  -18.2910   41.5710 C.3   380  ALA380      0.1597
    105  C        124.9860  -17.0770   40.7290 C.2   380  ALA380      0.2287
    106  O        124.6690  -17.0170   39.5410 O.2   380  ALA380     -0.2864
    107  CB       123.2490  -18.0930   42.1870 C.3   380  ALA380      0.0319
    108  N        128.0430  -18.5130   38.3140 N.3   383  TYR383     -0.1241
    109  CA       127.5590  -19.3690   37.2390 C.3   383  TYR383      0.1605
    110  C        126.5590  -18.6040   36.3650 C.2   383  TYR383      0.2264
    111  O        126.5060  -18.7970   35.1490 O.2   383  TYR383     -0.2867
    112  CB       126.9150  -20.6460   37.8170 C.3   383  TYR383      0.0534
    113  CG       127.9310  -21.6110   38.4150 C.ar  383  TYR383     -0.0201
    114  CD1      128.7840  -22.3330   37.5920 C.ar  383  TYR383     -0.0009
    115  CD2      128.0330  -21.8000   39.7920 C.ar  383  TYR383     -0.0009
    116  CE1      129.7120  -23.2090   38.1190 C.ar  383  TYR383      0.0417
    117  CE2      128.9600  -22.6780   40.3290 C.ar  383  TYR383      0.0417
    118  CZ       129.8000  -23.3810   39.4770 C.ar  383  TYR383      0.1957
    119  OH       130.7480  -24.2610   39.9680 O.3   383  TYR383     -0.2866
    120  N        127.2730  -17.8960   32.3350 N.3   387  TYR387     -0.1241
    121  CA       126.3330  -18.5460   31.4390 C.3   387  TYR387      0.1605
    122  C        125.2730  -17.5860   30.8590 C.2   387  TYR387      0.2264
    123  O        124.2500  -18.0140   30.3390 O.2   387  TYR387     -0.2867
    124  CB       125.7140  -19.7620   32.1190 C.3   387  TYR387      0.0534
    125  CG       126.7040  -20.8800   32.3190 C.ar  387  TYR387     -0.0201
    126  CD1      127.5480  -21.2670   31.2910 C.ar  387  TYR387     -0.0009
    127  CD2      126.8120  -21.5490   33.5370 C.ar  387  TYR387     -0.0009
    128  CE1      128.4440  -22.3040   31.4530 C.ar  387  TYR387      0.0417
    129  CE2      127.7210  -22.5920   33.7040 C.ar  387  TYR387      0.0417
    130  CZ       128.5480  -22.9490   32.6490 C.ar  387  TYR387      0.1957
    131  OH       129.4550  -23.9980   32.7950 O.3   387  TYR387     -0.2866
    132  N        126.5950  -22.8490   27.3500 N.3   466  ASN466     -0.1240
    133  CA       126.5390  -23.7020   28.5440 C.3   466  ASN466      0.1653
    134  C        126.8630  -25.1720   28.2730 C.2   466  ASN466      0.2266
    135  O        127.5650  -25.8140   29.0640 O.2   466  ASN466     -0.2867
    136  CB       125.1720  -23.6060   29.2320 C.3   466  ASN466      0.1155
    137  CG       125.0340  -24.5980   30.3760 C.2   466  ASN466      0.2627
    138  OD1      124.4640  -25.6790   30.2190 O.2   466  ASN466     -0.2716
    139  ND2      125.6140  -24.2610   31.5070 N.am  466  ASN466     -0.0877
    140  N        129.2250  -27.6930   30.7410 N.3   470  GLN470     -0.1245
    141  CA       128.5600  -28.6540   31.6090 C.3   470  GLN470      0.1566
    142  C        128.8130  -30.0830   31.0960 C.2   470  GLN470      0.2260
    143  O        128.9810  -31.0240   31.8840 O.2   470  GLN470     -0.2867
    144  CB       127.0740  -28.3660   31.6420 C.3   470  GLN470      0.0367
    145  CG       126.3340  -29.1950   32.6780 C.3   470  GLN470      0.0905
    146  CD       124.8340  -29.0950   32.5400 C.2   470  GLN470      0.2608
    147  OE1      124.1820  -30.0530   32.1510 O.2   470  GLN470     -0.2717
    148  NE2      124.2770  -27.9220   32.8480 N.am  470  GLN470     -0.0878
    149  N        129.0310  -33.8650   40.0600 N.3   503  ASP503     -0.1239
    150  CA       130.4310  -33.5440   40.2780 C.3   503  ASP503      0.1674
    151  C        130.9020  -34.1760   41.5770 C.2   503  ASP503      0.2266
    152  O        131.9130  -33.7610   42.1480 O.2   503  ASP503     -0.2867
    153  CB       130.6330  -32.0280   40.3110 C.3   503  ASP503      0.1410
    154  CG       129.9260  -31.3590   41.4840 C.2   503  ASP503      0.3668
    155  OD1      129.1570  -32.0250   42.2130 O.co2 503  ASP503     -0.2456
    156  OD2      130.1480  -30.1460   41.6780 O.co2 503  ASP503     -0.2456
    157  N        137.5500  -32.1830   47.0390 N.3   538  ASP538     -0.1239
    158  CA       137.4040  -32.2070   48.4900 C.3   538  ASP538      0.1674
    159  C        136.7160  -33.5080   48.8970 C.2   538  ASP538      0.2266
    160  O        135.9640  -34.0640   48.1230 O.2   538  ASP538     -0.2867
    161  CB       136.5890  -31.0080   48.9680 C.3   538  ASP538      0.1410
    162  CG       137.2670  -29.6810   48.6710 C.2   538  ASP538      0.3668
    163  OD1      136.5480  -28.6770   48.5060 O.co2 538  ASP538     -0.2456
    164  OD2      138.5140  -29.6350   48.6060 O.co2 538  ASP538     -0.2456
@<TRIPOS>BOND
     1   132   133    1
     2   134   133    1
     3   134   135    2
     4   133   136    1
     5   136   137    1
     6   138   137    2
     7   123   122    2
     8   137   139   am
     9   140   141    1
    10   122   121    1
    11     1     2    1
    12   142   141    1
    13   142   143    2
    14   126   128   ar
    15   126   125   ar
    16   121   124    1
    17   121   120    1
    18   128   130   ar
    19   141   144    1
    20     4     3    2
    21   144   145    1
    22   124   125    1
    23   147   146    2
    24   125   127   ar
    25     2     3    1
    26     2     5    1
    27   146   145    1
    28   146   148   am
    29   130   131    1
    30   130   129   ar
    31     5     6    1
    32   127   129   ar
    33     6     7    1
    34    69    68    2
    35     7     8    1
    36    74    72   ar
    37    78    77    2
    38   111   110    2
    39    68    67    1
    40    68    75   am
    41    71    72    1
    42    71    70    1
    43     8     9    2
    44    72    73   ar
    45    67    70    1
    46    67    66    1
    47    77    76    1
    48    61    60    2
    49    76    75    1
    50    76    79    1
    51     9    10    1
    52     9    11    1
    53   110   109    1
    54    82    80    1
    55    65    63    1
    56    63    62    1
    57    66    60   am
    58    60    59    1
    59   109   112    1
    60   109   108    1
    61    79    80    1
    62   114   116   ar
    63   114   113   ar
    64    80    81    1
    65   112   113    1
    66    62    64    1
    67    62    59    1
    68    59    58    1
    69   116   118   ar
    70    42    41    1
    71   113   115   ar
    72    52    51    2
    73    41    39   ar
    74    41    40   ar
    75    39    37   ar
    76    58    51   am
    77    40    38   ar
    78   118   119    1
    79   118   117   ar
    80    51    50    1
    81   106   105    2
    82    37    36   ar
    83   115   117   ar
    84    38    36   ar
    85   149   150    1
    86    36    35    1
    87   150   153    1
    88   150   151    1
    89   153   154    1
    90   105   104    1
    91    50    53    1
    92    50    49    1
    93    35    32    1
    94    53    54    1
    95    97    96    2
    96    46    45    2
    97   154   156   ar
    98   154   155   ar
    99   104   107    1
   100   104   103    1
   101   151   152    2
   102    49    45   am
   103    45    44    1
   104    96   103   am
   105    96    95    1
   106    54    55    1
   107    32    33    1
   108    32    31    1
   109    56    55    2
   110    33    43   am
   111    33    34    2
   112    43    44    1
   113    55    57   am
   114    31    25   am
   115    95    98    1
   116    95    94    1
   117    44    47    1
   118    98    99    1
   119    22    20    1
   120    47    48    1
   121    25    24    1
   122    25    26    2
   123    99   100    1
   124    21    20    1
   125    24    27    1
   126    24    23    1
   127    20    19    2
   128    27    28    1
   129   100   101    1
   130    30    28   ar
   131    19    18    1
   132   101   102    1
   133    28    29   ar
   134   157   158    1
   135    86    85    2
   136    18    17    1
   137   160   159    2
   138    93    91    1
   139   158   159    1
   140   158   161    1
   141   163   162   ar
   142   164   162   ar
   143    85    84    1
   144   162   161    1
   145    17    16    1
   146    91    92    1
   147    91    90    2
   148    84    87    1
   149    84    83    1
   150    88    87    1
   151    88    89    1
   152    90    89    1
   153    16    13    1
   154    12    13    1
   155    13    14    1
   156    14    15    2
