@<TRIPOS>MOLECULE
tmp/4ezdA04.pdb
 109 102 0 0 0
SMALL
GASTEIGER

@<TRIPOS>ATOM
      1  N         38.8230   -8.7050   16.3120 N.3   132  VAL132     -0.1231
      2  CA        39.1120   -7.3410   16.7340 C.3   132  VAL132      0.1692
      3  C         40.4540   -7.2710   17.4720 C.2   132  VAL132      0.2591
      4  O         41.3200   -6.4770   17.1150 O.2   132  VAL132     -0.2718
      5  CB        37.9930   -6.7830   17.6490 C.3   132  VAL132      0.0266
      6  CG1       38.3540   -5.4050   18.1910 C.3   132  VAL132      0.0020
      7  CG2       36.6720   -6.7040   16.8960 C.3   132  VAL132      0.0020
      8  N         40.6100   -8.1070   18.4980 N.am  133  LEU133     -0.1980
      9  CA        41.7620   -8.0540   19.3950 C.3   133  LEU133      0.1596
     10  C         43.0860   -8.5430   18.7810 C.2   133  LEU133      0.2287
     11  O         44.1670   -8.0670   19.1620 O.2   133  LEU133     -0.2864
     12  CB        41.4570   -8.8030   20.6970 C.3   133  LEU133      0.0297
     13  CG        40.3610   -8.1850   21.5750 C.3   133  LEU133      0.0022
     14  CD1       39.9940   -9.1240   22.7120 C.3   133  LEU133      0.0001
     15  CD2       40.7900   -6.8290   22.1090 C.3   133  LEU133      0.0001
     16  N         45.6900   -5.9960   17.4280 N.3   136  TRP136     -0.1241
     17  CA        46.7040   -5.4910   18.3490 C.3   136  TRP136      0.1605
     18  C         47.4640   -6.6190   18.9620 C.2   136  TRP136      0.2264
     19  O         48.2120   -6.4040   19.9200 O.2   136  TRP136     -0.2867
     20  CB        46.0670   -4.6660   19.4580 C.3   136  TRP136      0.0550
     21  CG        45.6430   -3.3060   19.0030 C.ar  136  TRP136      0.0003
     22  CD1       46.3710   -2.1240   19.0650 C.ar  136  TRP136      0.0946
     23  CD2       44.3780   -2.9440   18.3700 C.ar  136  TRP136      0.0152
     24  NE1       45.6580   -1.0870   18.5350 N.ar  136  TRP136     -0.2442
     25  CE2       44.4510   -1.5070   18.1060 C.ar  136  TRP136      0.0810
     26  CE3       43.2310   -3.6370   18.0150 C.ar  136  TRP136      0.0012
     27  CZ2       43.4120   -0.8190   17.5090 C.ar  136  TRP136      0.0191
     28  CZ3       42.1880   -2.9260   17.4110 C.ar  136  TRP136      0.0001
     29  CH2       42.2800   -1.5510   17.1650 C.ar  136  TRP136      0.0015
     30  N         46.3770   -9.1940   20.7690 N.3   138  LEU138     -0.1245
     31  CA        45.9220   -9.3950   22.1310 C.3   138  LEU138      0.1561
     32  C         45.0760  -10.6370   22.1360 C.2   138  LEU138      0.2260
     33  O         44.3790  -10.8980   21.1580 O.2   138  LEU138     -0.2867
     34  CB        45.0690   -8.2190   22.5860 C.3   138  LEU138      0.0270
     35  CG        45.7040   -6.8290   22.6020 C.3   138  LEU138      0.0019
     36  CD1       44.6160   -5.7740   22.7620 C.3   138  LEU138      0.0001
     37  CD2       46.7370   -6.7350   23.7210 C.3   138  LEU138      0.0001
     38  N         46.0760   -3.0480   40.6950 N.3   283  PHE283     -0.1241
     39  CA        45.1410   -2.3330   39.8470 C.3   283  PHE283      0.1605
     40  C         43.8790   -3.1380   39.5650 C.2   283  PHE283      0.2264
     41  O         42.7680   -2.6080   39.6820 O.2   283  PHE283     -0.2867
     42  CB        45.8230   -1.9570   38.5390 C.3   283  PHE283      0.0534
     43  CG        44.9390   -1.2350   37.5830 C.ar  283  PHE283     -0.0203
     44  CD1       44.1350   -1.9430   36.6910 C.ar  283  PHE283     -0.0042
     45  CD2       44.9210    0.1510   37.5510 C.ar  283  PHE283     -0.0042
     46  CE1       43.3190   -1.2770   35.7960 C.ar  283  PHE283     -0.0003
     47  CE2       44.1120    0.8240   36.6430 C.ar  283  PHE283     -0.0003
     48  CZ        43.3110    0.1100   35.7720 C.ar  283  PHE283     -0.0000
     49  N         39.9550   -2.4740   40.3840 N.3   287  LEU287     -0.1245
     50  CA        38.9560   -2.4290   39.3260 C.3   287  LEU287      0.1561
     51  C         37.8380   -3.4080   39.6420 C.2   287  LEU287      0.2260
     52  O         36.6820   -3.1860   39.2620 O.2   287  LEU287     -0.2867
     53  CB        39.5920   -2.7450   37.9680 C.3   287  LEU287      0.0270
     54  CG        38.7790   -2.6770   36.6650 C.3   287  LEU287      0.0019
     55  CD1       38.1520   -1.3010   36.4540 C.3   287  LEU287      0.0001
     56  CD2       39.6610   -3.0540   35.4790 C.3   287  LEU287      0.0001
     57  N         35.4010   -1.6910   41.8210 N.3   290  SER290     -0.1202
     58  CA        34.6830   -0.7630   40.9590 C.3   290  SER290      0.2020
     59  C         33.5770   -1.4810   40.1920 C.2   290  SER290      0.2618
     60  O         32.4110   -1.1130   40.2740 O.2   290  SER290     -0.2717
     61  CB        35.6640   -0.0870   39.9830 C.3   290  SER290      0.2103
     62  OG        35.0230    0.8790   39.1660 O.3   290  SER290     -0.2182
     63  N         33.9420   -2.5340   39.4750 N.am  291  MET291     -0.1979
     64  CA        32.9840   -3.2310   38.6400 C.3   291  MET291      0.1605
     65  C         31.8900   -3.9230   39.4520 C.2   291  MET291      0.2287
     66  O         30.7330   -3.9370   39.0400 O.2   291  MET291     -0.2864
     67  CB        33.7050   -4.1810   37.6770 C.3   291  MET291      0.0413
     68  CG        34.7000   -3.4470   36.7810 C.3   291  MET291      0.0598
     69  SD        35.2770   -4.4010   35.3830 S.3   291  MET291     -0.1393
     70  CE        33.8130   -4.3410   34.3620 C.3   291  MET291      0.0692
     71  N         29.3980   -1.0540   40.5640 N.3   294  VAL294     -0.1245
     72  CA        28.6150   -0.6230   39.3950 C.3   294  VAL294      0.1561
     73  C         27.6650   -1.7200   38.8740 C.2   294  VAL294      0.2260
     74  O         26.4820   -1.4620   38.5960 O.2   294  VAL294     -0.2867
     75  CB        29.5300   -0.0720   38.2700 C.3   294  VAL294      0.0252
     76  CG1       28.7710    0.0710   36.9550 C.3   294  VAL294      0.0019
     77  CG2       30.1120    1.2780   38.6700 C.3   294  VAL294      0.0019
     78  N         39.8280   -6.6340   31.5260 N.3   309  LEU309     -0.1245
     79  CA        40.0390   -5.2340   31.1520 C.3   309  LEU309      0.1561
     80  C         41.3970   -4.6820   31.6230 C.2   309  LEU309      0.2260
     81  O         42.1130   -4.0140   30.8540 O.2   309  LEU309     -0.2867
     82  CB        38.8690   -4.3620   31.6270 C.3   309  LEU309      0.0270
     83  CG        37.5010   -4.7320   31.0100 C.3   309  LEU309      0.0019
     84  CD1       36.3860   -3.8390   31.5230 C.3   309  LEU309      0.0001
     85  CD2       37.5340   -4.7120   29.4810 C.3   309  LEU309      0.0001
     86  N         44.4060   -6.5590   29.6070 N.3   312  LEU312     -0.1231
     87  CA        44.4480   -5.9940   28.2510 C.3   312  LEU312      0.1693
     88  C         45.0380   -4.6000   28.2480 C.2   312  LEU312      0.2591
     89  O         45.7480   -4.2150   27.3100 O.2   312  LEU312     -0.2718
     90  CB        43.0540   -5.9600   27.6290 C.3   312  LEU312      0.0284
     91  CG        42.5180   -7.3190   27.1630 C.3   312  LEU312      0.0019
     92  CD1       41.0370   -7.2260   26.8170 C.3   312  LEU312      0.0001
     93  CD2       43.3430   -7.8600   25.9980 C.3   312  LEU312      0.0001
     94  N         44.7520   -3.8490   29.3110 N.am  313  LEU313     -0.1980
     95  CA        45.2690   -2.4930   29.4520 C.3   313  LEU313      0.1596
     96  C         46.7890   -2.5140   29.6310 C.2   313  LEU313      0.2287
     97  O         47.5000   -1.7670   28.9830 O.2   313  LEU313     -0.2864
     98  CB        44.6050   -1.8040   30.6350 C.3   313  LEU313      0.0297
     99  CG        44.6680   -0.2920   30.7780 C.3   313  LEU313      0.0022
    100  CD1       43.5900    0.3540   29.9180 C.3   313  LEU313      0.0001
    101  CD2       44.4840    0.0580   32.2560 C.3   313  LEU313      0.0001
    102  N         48.5600   -3.4410   26.4180 N.3   316  LEU316     -0.1245
    103  CA        48.5670   -2.3830   25.4020 C.3   316  LEU316      0.1561
    104  C         49.5420   -1.2500   25.7350 C.2   316  LEU316      0.2260
    105  O         49.8200   -0.3820   24.8940 O.2   316  LEU316     -0.2867
    106  CB        47.1700   -1.8140   25.1840 C.3   316  LEU316      0.0270
    107  CG        46.2010   -2.5960   24.2970 C.3   316  LEU316      0.0019
    108  CD1       44.7750   -2.1630   24.5980 C.3   316  LEU316      0.0001
    109  CD2       46.5330   -2.4470   22.8130 C.3   316  LEU316      0.0001
@<TRIPOS>BOND
     1     1     2    1
     2     2     3    1
     3     2     5    1
     4     7     5    1
     5     4     3    2
     6    29    28   ar
     7    29    27   ar
     8    28    26   ar
     9    16    17    1
    10     3     8   am
    11    27    25   ar
    12     5     6    1
    13    26    23   ar
    14    25    23   ar
    15    25    24   ar
    16    17    18    1
    17    17    20    1
    18    23    21   ar
    19     8     9    1
    20    24    22   ar
    21    10    11    2
    22    10     9    1
    23    18    19    2
    24    21    22   ar
    25    21    20    1
    26     9    12    1
    27    12    13    1
    28    30    31    1
    29    33    32    2
    30    13    15    1
    31    13    14    1
    32    31    32    1
    33    31    34    1
    34    34    35    1
    35    35    36    1
    36    35    37    1
    37   109   107    1
    38   107   108    1
    39   107   106    1
    40   105   104    2
    41   106   103    1
    42   103   104    1
    43   103   102    1
    44    93    91    1
    45    92    91    1
    46    91    90    1
    47    89    88    2
    48    90    87    1
    49    88    87    1
    50    88    94   am
    51    87    86    1
    52    97    96    2
    53    94    95    1
    54    95    96    1
    55    95    98    1
    56    85    83    1
    57   100    99    1
    58    98    99    1
    59    99   101    1
    60    81    80    2
    61    83    84    1
    62    83    82    1
    63    79    78    1
    64    79    80    1
    65    79    82    1
    66    70    69    1
    67    69    68    1
    68    56    54    1
    69    48    46   ar
    70    48    47   ar
    71    46    44   ar
    72    55    54    1
    73    47    45   ar
    74    54    53    1
    75    44    43   ar
    76    68    67    1
    77    76    75    1
    78    45    43   ar
    79    43    42    1
    80    67    64    1
    81    53    50    1
    82    75    77    1
    83    75    72    1
    84    42    39    1
    85    74    73    2
    86    64    65    1
    87    64    63    1
    88    73    72    1
    89    66    65    2
    90    62    61    1
    91    52    51    2
    92    50    51    1
    93    50    49    1
    94    72    71    1
    95    63    59   am
    96    40    41    2
    97    40    39    1
    98    39    38    1
    99    61    58    1
   100    59    60    2
   101    59    58    1
   102    58    57    1
