@<TRIPOS>MOLECULE
tmp/4ezdA05.pdb
 112 103 0 0 0
SMALL
GASTEIGER

@<TRIPOS>ATOM
      1  N         31.6160  -15.9020   20.4310 N.3   125  PHE125     -0.1241
      2  CA        32.2480  -14.7740   21.1210 C.3   125  PHE125      0.1605
      3  C         33.7610  -14.7520   20.9150 C.2   125  PHE125      0.2264
      4  O         34.3510  -13.6850   20.6780 O.2   125  PHE125     -0.2867
      5  CB        31.9710  -14.8480   22.6190 C.3   125  PHE125      0.0534
      6  CG        30.6360  -14.2950   23.0410 C.ar  125  PHE125     -0.0203
      7  CD1       30.3110  -12.9560   22.8230 C.ar  125  PHE125     -0.0042
      8  CD2       29.7230  -15.1010   23.7200 C.ar  125  PHE125     -0.0042
      9  CE1       29.0850  -12.4430   23.2480 C.ar  125  PHE125     -0.0003
     10  CE2       28.5010  -14.5960   24.1510 C.ar  125  PHE125     -0.0003
     11  CZ        28.1810  -13.2650   23.9120 C.ar  125  PHE125     -0.0000
     12  N         34.6820  -13.7130   17.2070 N.3   128  ALA128     -0.1231
     13  CA        34.3780  -12.3000   17.0040 C.3   128  ALA128      0.1694
     14  C         35.3490  -11.3970   17.7390 C.2   128  ALA128      0.2591
     15  O         35.8520  -10.4180   17.1740 O.2   128  ALA128     -0.2718
     16  CB        32.9500  -11.9850   17.4170 C.3   128  ALA128      0.0304
     17  N         35.6310  -11.7240   18.9930 N.am  129  LEU129     -0.1980
     18  CA        36.5900  -10.9310   19.7620 C.3   129  LEU129      0.1596
     19  C         38.0190  -11.0660   19.2100 C.2   129  LEU129      0.2287
     20  O         38.7510  -10.0690   19.1720 O.2   129  LEU129     -0.2864
     21  CB        36.5250  -11.2650   21.2580 C.3   129  LEU129      0.0297
     22  CG        35.2910  -10.7760   22.0220 C.3   129  LEU129      0.0022
     23  CD1       35.0490  -11.6240   23.2680 C.3   129  LEU129      0.0001
     24  CD2       35.4110   -9.2920   22.3670 C.3   129  LEU129      0.0001
     25  N         38.8230   -8.7050   16.3120 N.3   132  VAL132     -0.1245
     26  CA        39.1120   -7.3410   16.7340 C.3   132  VAL132      0.1561
     27  C         40.4540   -7.2710   17.4720 C.2   132  VAL132      0.2260
     28  O         41.3200   -6.4770   17.1150 O.2   132  VAL132     -0.2867
     29  CB        37.9930   -6.7830   17.6490 C.3   132  VAL132      0.0252
     30  CG1       38.3540   -5.4050   18.1910 C.3   132  VAL132      0.0019
     31  CG2       36.6720   -6.7040   16.8960 C.3   132  VAL132      0.0019
     32  N         30.9920  -12.1340   28.8340 N.3   147  MET147     -0.1245
     33  CA        29.8910  -11.6810   27.9960 C.3   147  MET147      0.1570
     34  C         28.7190  -12.6330   28.0930 C.2   147  MET147      0.2261
     35  O         27.5940  -12.1960   28.3400 O.2   147  MET147     -0.2867
     36  CB        30.3320  -11.4940   26.5420 C.3   147  MET147      0.0387
     37  CG        31.1780  -10.2430   26.3620 C.3   147  MET147      0.0595
     38  SD        31.7280  -10.0060   24.6760 S.3   147  MET147     -0.1393
     39  CE        32.4380   -8.3690   24.8140 C.3   147  MET147      0.0692
     40  N         27.1850  -12.2910   31.6680 N.3   150  SER150     -0.1202
     41  CA        26.4600  -11.0260   31.9190 C.3   150  SER150      0.2020
     42  C         25.1510  -10.9730   31.1370 C.2   150  SER150      0.2618
     43  O         24.1340  -10.4690   31.6380 O.2   150  SER150     -0.2717
     44  CB        27.3250   -9.7960   31.6160 C.3   150  SER150      0.2103
     45  OG        28.4510   -9.7600   32.4810 O.3   150  SER150     -0.2182
     46  N         25.1910  -11.5170   29.9200 N.am  151  MET151     -0.1979
     47  CA        24.0270  -11.6180   29.0600 C.3   151  MET151      0.1605
     48  C         22.9690  -12.5390   29.6850 C.2   151  MET151      0.2287
     49  O         21.8080  -12.1430   29.8480 O.2   151  MET151     -0.2864
     50  CB        24.4580  -12.1230   27.6750 C.3   151  MET151      0.0413
     51  CG        23.3430  -12.2960   26.6590 C.3   151  MET151      0.0598
     52  SD        24.0000  -12.8770   25.0840 S.3   151  MET151     -0.1393
     53  CE        22.5430  -13.6670   24.3950 C.3   151  MET151      0.0692
     54  N         21.5430  -11.3140   33.1700 N.3   154  SER154     -0.1217
     55  CA        20.7170  -10.1090   33.0620 C.3   154  SER154      0.1889
     56  C         19.4210  -10.3410   32.2600 C.2   154  SER154      0.2288
     57  O         18.4150   -9.6510   32.4890 O.2   154  SER154     -0.2866
     58  CB        21.5240   -8.9330   32.5180 C.3   154  SER154      0.2089
     59  OG        21.8210   -9.1240   31.1550 O.3   154  SER154     -0.2183
     60  N         33.9420   -2.5340   39.4750 N.3   291  MET291     -0.1245
     61  CA        32.9840   -3.2310   38.6400 C.3   291  MET291      0.1570
     62  C         31.8900   -3.9230   39.4520 C.2   291  MET291      0.2261
     63  O         30.7330   -3.9370   39.0400 O.2   291  MET291     -0.2867
     64  CB        33.7050   -4.1810   37.6770 C.3   291  MET291      0.0387
     65  CG        34.7000   -3.4470   36.7810 C.3   291  MET291      0.0595
     66  SD        35.2770   -4.4010   35.3830 S.3   291  MET291     -0.1393
     67  CE        33.8130   -4.3410   34.3620 C.3   291  MET291      0.0692
     68  N         28.1640   -2.9480   38.7790 N.3   295  MET295     -0.1245
     69  CA        27.3380   -4.0420   38.2660 C.3   295  MET295      0.1570
     70  C         26.2290   -4.5150   39.2270 C.2   295  MET295      0.2261
     71  O         25.1920   -5.0160   38.7880 O.2   295  MET295     -0.2867
     72  CB        28.2110   -5.1710   37.7230 C.3   295  MET295      0.0387
     73  CG        28.9030   -4.7480   36.4320 C.3   295  MET295      0.0595
     74  SD        30.0790   -5.9170   35.7390 S.3   295  MET295     -0.1393
     75  CE        28.9880   -6.8760   34.7080 C.3   295  MET295      0.0692
     76  N         22.6990   -3.2560   38.5510 N.3   298  VAL298     -0.1245
     77  CA        21.8630   -3.9530   37.5720 C.3   298  VAL298      0.1561
     78  C         21.7010   -5.4220   37.9590 C.2   298  VAL298      0.2260
     79  O         21.2020   -6.2270   37.1750 O.2   298  VAL298     -0.2867
     80  CB        22.3790   -3.7810   36.1070 C.3   298  VAL298      0.0252
     81  CG1       22.5080   -2.3010   35.7500 C.3   298  VAL298      0.0019
     82  CG2       23.7120   -4.4910   35.8750 C.3   298  VAL298      0.0019
     83  N         24.0870   -7.6940   38.6840 N.3   300  LEU300     -0.1245
     84  CA        25.0820   -8.6050   38.1280 C.3   300  LEU300      0.1561
     85  C         26.3290   -8.7260   39.0020 C.2   300  LEU300      0.2260
     86  O         26.6720   -7.7760   39.7210 O.2   300  LEU300     -0.2867
     87  CB        25.5020   -8.1170   36.7450 C.3   300  LEU300      0.0270
     88  CG        24.5430   -8.2670   35.5700 C.3   300  LEU300      0.0019
     89  CD1       25.2050   -7.6720   34.3340 C.3   300  LEU300      0.0001
     90  CD2       24.1180   -9.7200   35.3510 C.3   300  LEU300      0.0001
     91  N         35.5300   -9.8380   34.2990 N.3   305  TRP305     -0.1241
     92  CA        35.7310   -8.5610   33.5930 C.3   305  TRP305      0.1605
     93  C         36.9300   -7.7690   34.0830 C.2   305  TRP305      0.2264
     94  O         37.7170   -7.2760   33.2580 O.2   305  TRP305     -0.2867
     95  CB        34.4900   -7.6650   33.6930 C.3   305  TRP305      0.0550
     96  CG        33.3100   -8.0820   32.8520 C.ar  305  TRP305      0.0003
     97  CD1       32.1550   -8.7430   33.2700 C.ar  305  TRP305      0.0946
     98  CD2       33.1240   -7.8580   31.4200 C.ar  305  TRP305      0.0152
     99  NE1       31.2940   -8.9420   32.2210 N.ar  305  TRP305     -0.2442
    100  CE2       31.8110   -8.4350   31.0810 C.ar  305  TRP305      0.0810
    101  CE3       33.8760   -7.2540   30.4190 C.ar  305  TRP305      0.0012
    102  CZ2       31.3020   -8.3900   29.7910 C.ar  305  TRP305      0.0191
    103  CZ3       33.3570   -7.2250   29.1140 C.ar  305  TRP305      0.0001
    104  CH2       32.1020   -7.7740   28.8130 C.ar  305  TRP305      0.0015
    105  N         39.8280   -6.6340   31.5260 N.3   309  LEU309     -0.1245
    106  CA        40.0390   -5.2340   31.1520 C.3   309  LEU309      0.1561
    107  C         41.3970   -4.6820   31.6230 C.2   309  LEU309      0.2260
    108  O         42.1130   -4.0140   30.8540 O.2   309  LEU309     -0.2867
    109  CB        38.8690   -4.3620   31.6270 C.3   309  LEU309      0.0270
    110  CG        37.5010   -4.7320   31.0100 C.3   309  LEU309      0.0019
    111  CD1       36.3860   -3.8390   31.5230 C.3   309  LEU309      0.0001
    112  CD2       37.5340   -4.7120   29.4810 C.3   309  LEU309      0.0001
@<TRIPOS>BOND
     1    25    26    1
     2    26    27    1
     3    26    29    1
     4    31    29    1
     5    13    12    1
     6    13    16    1
     7    13    14    1
     8    28    27    2
     9    15    14    2
    10    29    30    1
    11    14    17   am
    12    17    18    1
    13    20    19    2
    14    19    18    1
    15    18    21    1
    16     1     2    1
    17     4     3    2
    18     3     2    1
    19     2     5    1
    20    21    22    1
    21    22    24    1
    22    22    23    1
    23     5     6    1
    24     7     6   ar
    25     7     9   ar
    26     6     8   ar
    27     9    11   ar
    28     8    10   ar
    29    11    10   ar
    30    53    52    1
    31    38    39    1
    32    38    37    1
    33    52    51    1
    34    37    36    1
    35    36    33    1
    36    51    50    1
    37    50    47    1
    38    33    34    1
    39    33    32    1
    40    34    35    2
    41   104   103   ar
    42   104   102   ar
    43    47    48    1
    44    47    46    1
    45   103   101   ar
    46   112   110    1
    47    48    49    2
    48   102   100   ar
    49    46    42   am
    50   101    98   ar
    51   108   107    2
    52   110   111    1
    53   110   109    1
    54   100    98   ar
    55   100    99   ar
    56    42    43    2
    57    42    41    1
    58   106   105    1
    59   106   107    1
    60   106   109    1
    61    59    58    1
    62    98    96   ar
    63    44    41    1
    64    44    45    1
    65    40    41    1
    66    99    97   ar
    67    56    57    2
    68    56    55    1
    69    58    55    1
    70    96    97   ar
    71    96    95    1
    72    55    54    1
    73    94    93    2
    74    92    95    1
    75    92    93    1
    76    92    91    1
    77    89    88    1
    78    67    66    1
    79    75    74    1
    80    90    88    1
    81    66    65    1
    82    88    87    1
    83    74    73    1
    84    81    80    1
    85    82    80    1
    86    80    77    1
    87    73    72    1
    88    87    84    1
    89    65    64    1
    90    79    78    2
    91    77    78    1
    92    77    76    1
    93    64    61    1
    94    72    69    1
    95    84    83    1
    96    84    85    1
    97    69    68    1
    98    69    70    1
    99    61    62    1
   100    61    60    1
   101    71    70    2
   102    85    86    2
   103    63    62    2
