@<TRIPOS>MOLECULE
tmp/4ezdA02.pdb
 82 77 0 0 0
SMALL
GASTEIGER

@<TRIPOS>ATOM
      1  N         40.1900   -5.1570   65.6770 N.3   180  PRO180     -0.2116
      2  CA        40.7950   -6.1470   66.6020 C.3   180  PRO180      0.1372
      3  C         40.4990   -7.6140   66.2410 C.2   180  PRO180      0.2244
      4  O         41.3380   -8.4830   66.4630 O.2   180  PRO180     -0.2868
      5  CB        40.1750   -5.7940   67.9630 C.3   180  PRO180      0.0268
      6  CG        39.8250   -4.3470   67.8540 C.3   180  PRO180      0.0207
      7  CD        39.4480   -4.1100   66.4120 C.3   180  PRO180      0.0892
      8  N         40.5350   -8.8740   63.3750 N.3   182  LEU182     -0.1231
      9  CA        41.2840   -9.2820   62.1830 C.3   182  LEU182      0.1693
     10  C         42.1960  -10.4650   62.4890 C.2   182  LEU182      0.2593
     11  O         42.9090  -10.4650   63.4790 O.2   182  LEU182     -0.2718
     12  CB        42.0860   -8.1230   61.5750 C.3   182  LEU182      0.0284
     13  CG        42.8130   -8.3890   60.2460 C.3   182  LEU182      0.0019
     14  CD1       41.8510   -8.8440   59.1490 C.3   182  LEU182      0.0001
     15  CD2       43.6020   -7.1610   59.8000 C.3   182  LEU182      0.0001
     16  N         42.1700  -11.4640   61.6220 N.am  183  SER183     -0.1938
     17  CA        42.9070  -12.6920   61.8610 C.3   183  SER183      0.2055
     18  C         43.9640  -12.9710   60.7950 C.2   183  SER183      0.2643
     19  O         43.6400  -13.1290   59.6220 O.2   183  SER183     -0.2714
     20  CB        41.9310  -13.8650   61.9710 C.3   183  SER183      0.2130
     21  OG        42.5710  -15.0670   61.6220 O.3   183  SER183     -0.2179
     22  N         45.2210  -13.0360   61.2220 N.am  184  ALA184     -0.1963
     23  CA        46.3210  -13.4310   60.3590 C.3   184  ALA184      0.1728
     24  C         46.0720  -14.7940   59.7230 C.2   184  ALA184      0.2616
     25  O         46.2420  -14.9470   58.5120 O.2   184  ALA184     -0.2715
     26  CB        47.6370  -13.4270   61.1260 C.3   184  ALA184      0.0334
     27  N         45.6530  -15.7700   60.5290 N.am  185  LEU185     -0.1977
     28  CA        45.3640  -17.1120   60.0300 C.3   185  LEU185      0.1596
     29  C         44.2900  -17.1170   58.9360 C.2   185  LEU185      0.2287
     30  O         44.4480  -17.7930   57.9190 O.2   185  LEU185     -0.2864
     31  CB        44.9590  -18.0480   61.1690 C.3   185  LEU185      0.0297
     32  CG        44.6670  -19.5160   60.8110 C.3   185  LEU185      0.0022
     33  CD1       45.9210  -20.2710   60.3880 C.3   185  LEU185      0.0001
     34  CD2       43.9900  -20.2220   61.9800 C.3   185  LEU185      0.0001
     35  N         43.3560  -14.5170   57.0730 N.3   187  LEU187     -0.1231
     36  CA        43.9320  -13.7880   55.9400 C.3   187  LEU187      0.1693
     37  C         44.8570  -14.6810   55.1290 C.2   187  LEU187      0.2591
     38  O         44.8440  -14.6520   53.9050 O.2   187  LEU187     -0.2718
     39  CB        44.7040  -12.5630   56.4150 C.3   187  LEU187      0.0284
     40  CG        43.9410  -11.3190   56.8650 C.3   187  LEU187      0.0019
     41  CD1       44.9530  -10.2360   57.1870 C.3   187  LEU187      0.0001
     42  CD2       42.9580  -10.8300   55.8080 C.3   187  LEU187      0.0001
     43  N         45.6610  -15.4700   55.8260 N.am  188  LEU188     -0.1980
     44  CA        46.5780  -16.3940   55.1880 C.3   188  LEU188      0.1596
     45  C         45.8390  -17.4720   54.3930 C.2   188  LEU188      0.2287
     46  O         46.2550  -17.8260   53.2880 O.2   188  LEU188     -0.2864
     47  CB        47.4840  -17.0210   56.2380 C.3   188  LEU188      0.0297
     48  CG        48.6880  -17.8350   55.7790 C.3   188  LEU188      0.0022
     49  CD1       49.3880  -17.1870   54.5890 C.3   188  LEU188      0.0001
     50  CD2       49.6340  -18.0100   56.9650 C.3   188  LEU188      0.0001
     51  N         47.4250  -12.6910   47.0700 N.3   230  LEU230     -0.1245
     52  CA        47.9320  -11.8830   48.1790 C.3   230  LEU230      0.1561
     53  C         47.7090  -10.3700   47.9710 C.2   230  LEU230      0.2260
     54  O         47.2220   -9.6680   48.8690 O.2   230  LEU230     -0.2867
     55  CB        49.4220  -12.1930   48.4070 C.3   230  LEU230      0.0270
     56  CG        50.1670  -11.4800   49.5420 C.3   230  LEU230      0.0019
     57  CD1       49.5330  -11.7630   50.9010 C.3   230  LEU230      0.0001
     58  CD2       51.6410  -11.8640   49.5350 C.3   230  LEU230      0.0001
     59  N         44.1720   -9.2990   48.5410 N.3   233  ILE233     -0.1231
     60  CA        43.9210   -9.1970   49.9670 C.3   233  ILE233      0.1692
     61  C         44.3950   -7.8440   50.4880 C.2   233  ILE233      0.2591
     62  O         43.6700   -7.1650   51.2120 O.2   233  ILE233     -0.2718
     63  CB        44.6290  -10.3370   50.7280 C.3   233  ILE233      0.0266
     64  CG1       44.0010  -11.6800   50.3370 C.3   233  ILE233      0.0019
     65  CG2       44.6120  -10.0940   52.2410 C.3   233  ILE233      0.0020
     66  CD1       44.8220  -12.8980   50.7220 C.3   233  ILE233      0.0001
     67  N         45.6090   -7.4510   50.1080 N.am  234  ILE234     -0.1980
     68  CA        46.1480   -6.1580   50.5130 C.3   234  ILE234      0.1595
     69  C         45.2230   -5.0310   50.0400 C.2   234  ILE234      0.2287
     70  O         44.8780   -4.1450   50.8230 O.2   234  ILE234     -0.2864
     71  CB        47.6140   -5.9710   50.0470 C.3   234  ILE234      0.0276
     72  CG1       48.5360   -6.9470   50.8070 C.3   234  ILE234      0.0022
     73  CG2       48.0760   -4.5300   50.2570 C.3   234  ILE234      0.0022
     74  CD1       49.9320   -7.0950   50.2270 C.3   234  ILE234      0.0001
     75  N         42.0020   -4.7740   52.2250 N.3   237  LEU237     -0.1245
     76  CA        42.3320   -4.1430   53.4940 C.3   237  LEU237      0.1561
     77  C         42.4910   -2.6400   53.3130 C.2   237  LEU237      0.2260
     78  O         41.9600   -1.8570   54.1000 O.2   237  LEU237     -0.2867
     79  CB        43.5880   -4.7690   54.1040 C.3   237  LEU237      0.0270
     80  CG        43.4310   -6.2060   54.6380 C.3   237  LEU237      0.0019
     81  CD1       44.7860   -6.8670   54.8210 C.3   237  LEU237      0.0001
     82  CD2       42.6340   -6.2570   55.9410 C.3   237  LEU237      0.0001
@<TRIPOS>BOND
     1    51    52    1
     2    53    52    1
     3    53    54    2
     4    52    55    1
     5    55    56    1
     6    59    60    1
     7    58    56    1
     8    56    57    1
     9    60    61    1
    10    60    63    1
    11    69    68    1
    12    69    70    2
    13    71    73    1
    14    71    68    1
    15    71    72    1
    16    67    61   am
    17    67    68    1
    18    74    72    1
    19    64    66    1
    20    64    63    1
    21    61    62    2
    22    63    65    1
    23    75    76    1
    24    46    45    2
    25    77    76    1
    26    77    78    2
    27    76    79    1
    28    38    37    2
    29    79    80    1
    30    45    44    1
    31    49    48    1
    32    80    81    1
    33    80    82    1
    34    37    43   am
    35    37    36    1
    36    44    43    1
    37    44    47    1
    38    48    47    1
    39    48    50    1
    40    42    40    1
    41    36    39    1
    42    36    35    1
    43    39    40    1
    44    40    41    1
    45    30    29    2
    46    25    24    2
    47    29    28    1
    48    14    13    1
    49    19    18    2
    50    24    23    1
    51    24    27   am
    52    15    13    1
    53    28    27    1
    54    28    31    1
    55    13    12    1
    56    23    26    1
    57    23    22    1
    58    33    32    1
    59    18    22   am
    60    18    17    1
    61    32    31    1
    62    32    34    1
    63    12     9    1
    64    21    20    1
    65    16    17    1
    66    16    10   am
    67    17    20    1
    68     9    10    1
    69     9     8    1
    70    10    11    2
    71     1     7    1
    72     1     2    1
    73     3     4    2
    74     3     2    1
    75     7     6    1
    76     2     5    1
    77     6     5    1
