@<TRIPOS>MOLECULE
tmp/4eziA00.pdb
 133 129 0 0 0
SMALL
GASTEIGER

@<TRIPOS>ATOM
      1  N         36.8220   62.3810   21.2430 N.3    76  THR76      -0.1218
      2  CA        35.7260   61.7420   21.9930 C.3    76  THR76       0.1862
      3  C         34.8390   62.7990   22.6180 C.2    76  THR76       0.2287
      4  O         35.3240   63.6780   23.3390 O.2    76  THR76      -0.2866
      5  CB        36.2850   60.8780   23.1230 C.3    76  THR76       0.1770
      6  OG1       37.1240   59.8670   22.5900 O.3    76  THR76      -0.2211
      7  CG2       35.1720   60.2490   23.9580 C.3    76  THR76       0.0375
      8  N         30.9320   54.3810   18.9250 N.3   122  TYR122     -0.1227
      9  CA        32.1970   54.9630   19.3590 C.3   122  TYR122      0.1736
     10  C         33.3780   54.1410   18.8610 C.2   122  TYR122      0.2595
     11  O         33.4930   52.9370   19.1170 O.2   122  TYR122     -0.2718
     12  CB        32.1920   55.0440   20.8770 C.3   122  TYR122      0.0548
     13  CG        33.4250   55.6510   21.4870 C.ar  122  TYR122     -0.0200
     14  CD1       33.9280   56.8890   21.0820 C.ar  122  TYR122     -0.0009
     15  CD2       34.1110   54.9970   22.4760 C.ar  122  TYR122     -0.0009
     16  CE1       35.0410   57.4570   21.6690 C.ar  122  TYR122      0.0417
     17  CE2       35.2140   55.5490   23.0920 C.ar  122  TYR122      0.0417
     18  CZ        35.6860   56.7620   22.6780 C.ar  122  TYR122      0.1957
     19  OH        36.8050   57.2590   23.3010 O.3   122  TYR122     -0.2866
     20  N         34.2820   54.7750   18.1300 N.am  123  VAL123     -0.1980
     21  CA        35.4480   54.0690   17.5570 C.3   123  VAL123      0.1595
     22  C         34.9780   52.8380   16.7620 C.2   123  VAL123      0.2287
     23  O         35.6230   51.7980   16.7990 O.2   123  VAL123     -0.2864
     24  CB        36.5730   53.7310   18.5970 C.3   123  VAL123      0.0276
     25  CG1       37.9200   53.6120   17.8540 C.3   123  VAL123      0.0022
     26  CG2       36.6570   54.7810   19.6900 C.3   123  VAL123      0.0022
     27  N         42.5200   62.1600   18.3620 N.3   159  SER159     -0.1202
     28  CA        42.0470   61.1430   19.3160 C.3   159  SER159      0.2020
     29  C         41.0700   60.2150   18.5850 C.2   159  SER159      0.2618
     30  O         41.4710   59.6310   17.5680 O.2   159  SER159     -0.2717
     31  CB        41.5340   61.8370   20.5800 C.3   159  SER159      0.2103
     32  OG        41.4240   60.9500   21.6720 O.3   159  SER159     -0.2182
     33  N         39.8290   60.0450   19.0450 N.am  160  GLU160     -0.1979
     34  CA        38.8560   59.2810   18.2490 C.3   160  GLU160      0.1602
     35  C         38.8670   59.7710   16.7970 C.2   160  GLU160      0.2287
     36  O         38.7350   58.9770   15.8680 O.2   160  GLU160     -0.2864
     37  CB        37.4260   59.4120   18.8050 C.3   160  GLU160      0.0415
     38  CG        36.4300   58.5740   18.0270 C.3   160  GLU160      0.1163
     39  CD        34.9860   58.7910   18.3760 C.2   160  GLU160      0.3649
     40  OE1       34.6500   59.7560   19.0740 O.co2 160  GLU160     -0.2457
     41  OE2       34.1640   57.9330   17.9240 O.co2 160  GLU160     -0.2457
     42  N         44.4010   56.3010   18.2320 N.3   188  PRO188     -0.2116
     43  CA        44.6270   54.9190   18.6790 C.3   188  PRO188      0.1372
     44  C         44.9340   54.0460   17.4910 C.2   188  PRO188      0.2244
     45  O         44.2060   54.0670   16.5140 O.2   188  PRO188     -0.2868
     46  CB        43.2990   54.5180   19.3190 C.3   188  PRO188      0.0268
     47  CG        42.2710   55.3260   18.5710 C.3   188  PRO188      0.0207
     48  CD        42.9650   56.6440   18.2210 C.3   188  PRO188      0.0892
     49  N         44.4050   47.0850   17.8730 N.3   191  TRP191     -0.1241
     50  CA        43.4920   46.5660   18.8840 C.3   191  TRP191      0.1605
     51  C         44.2570   46.1040   20.1250 C.2   191  TRP191      0.2264
     52  O         43.9650   46.5310   21.2320 O.2   191  TRP191     -0.2867
     53  CB        42.6820   45.4240   18.2910 C.3   191  TRP191      0.0550
     54  CG        41.8100   44.7550   19.2790 C.ar  191  TRP191      0.0003
     55  CD1       41.9400   43.4880   19.7560 C.ar  191  TRP191      0.0946
     56  CD2       40.7020   45.3370   19.9820 C.ar  191  TRP191      0.0152
     57  NE1       40.9620   43.2240   20.6890 N.ar  191  TRP191     -0.2442
     58  CE2       40.1960   44.3450   20.8480 C.ar  191  TRP191      0.0810
     59  CE3       40.0780   46.5950   19.9670 C.ar  191  TRP191      0.0012
     60  CZ2       39.1100   44.5750   21.6830 C.ar  191  TRP191      0.0191
     61  CZ3       38.9960   46.8180   20.7830 C.ar  191  TRP191      0.0001
     62  CH2       38.5200   45.8130   21.6360 C.ar  191  TRP191      0.0015
     63  N         46.2190   49.0760   21.8530 N.3   194  THR194     -0.1218
     64  CA        45.3550   50.0130   22.5290 C.3   194  THR194      0.1862
     65  C         44.6890   49.3710   23.7500 C.2   194  THR194      0.2287
     66  O         44.6350   49.9830   24.8220 O.2   194  THR194     -0.2866
     67  CB        44.3380   50.6330   21.5470 C.3   194  THR194      0.1770
     68  OG1       45.0420   51.2940   20.4990 O.3   194  THR194     -0.2211
     69  CG2       43.4400   51.6630   22.2410 C.3   194  THR194      0.0375
     70  N         45.1250   50.9370   27.5190 N.3   197  VAL197     -0.1245
     71  CA        44.0070   51.5840   28.1820 C.3   197  VAL197      0.1561
     72  C         43.5550   50.7620   29.3910 C.2   197  VAL197      0.2260
     73  O         43.2060   51.3110   30.4260 O.2   197  VAL197     -0.2867
     74  CB        42.8800   51.9010   27.1660 C.3   197  VAL197      0.0252
     75  CG1       41.7360   52.6080   27.8260 C.3   197  VAL197      0.0019
     76  CG2       43.4220   52.7640   26.0160 C.3   197  VAL197      0.0019
     77  N         36.6350   55.9090   28.4670 N.3   207  TYR207     -0.1227
     78  CA        36.7460   55.4680   27.0910 C.3   207  TYR207      0.1736
     79  C         36.2490   54.0210   26.9410 C.2   207  TYR207      0.2595
     80  O         35.5600   53.6720   25.9820 O.2   207  TYR207     -0.2718
     81  CB        38.1900   55.5330   26.6060 C.3   207  TYR207      0.0548
     82  CG        38.8620   56.8810   26.5260 C.ar  207  TYR207     -0.0200
     83  CD1       38.1770   58.0150   26.1380 C.ar  207  TYR207     -0.0009
     84  CD2       40.2080   56.9950   26.7660 C.ar  207  TYR207     -0.0009
     85  CE1       38.8330   59.2380   25.9780 C.ar  207  TYR207      0.0417
     86  CE2       40.8770   58.2030   26.6190 C.ar  207  TYR207      0.0417
     87  CZ        40.1650   59.3340   26.2370 C.ar  207  TYR207      0.1957
     88  OH        40.8160   60.5320   26.0730 O.3   207  TYR207     -0.2866
     89  N         36.6940   53.1420   27.8310 N.am  208  LEU208     -0.1980
     90  CA        36.3480   51.7240   27.7160 C.3   208  LEU208      0.1596
     91  C         34.8780   51.4880   27.9840 C.2   208  LEU208      0.2287
     92  O         34.2530   50.6550   27.3250 O.2   208  LEU208     -0.2864
     93  CB        37.2200   50.8680   28.6460 C.3   208  LEU208      0.0297
     94  CG        38.6880   50.8120   28.2170 C.3   208  LEU208      0.0022
     95  CD1       39.5210   50.1870   29.3300 C.3   208  LEU208      0.0001
     96  CD2       38.8950   50.0680   26.9100 C.3   208  LEU208      0.0001
     97  N         33.1270   52.5660   24.8450 N.3   211  PHE211     -0.1241
     98  CA        33.3810   51.6870   23.7420 C.3   211  PHE211      0.1605
     99  C         32.5680   50.3960   23.8230 C.2   211  PHE211      0.2264
    100  O         31.8910   50.0140   22.8820 O.2   211  PHE211     -0.2867
    101  CB        34.8900   51.3550   23.6300 C.3   211  PHE211      0.0534
    102  CG        35.1990   50.4590   22.4630 C.ar  211  PHE211     -0.0203
    103  CD1       35.2200   50.9750   21.1780 C.ar  211  PHE211     -0.0042
    104  CD2       35.3820   49.1000   22.6250 C.ar  211  PHE211     -0.0042
    105  CE1       35.4190   50.1830   20.0840 C.ar  211  PHE211     -0.0003
    106  CE2       35.5900   48.2980   21.5130 C.ar  211  PHE211     -0.0003
    107  CZ        35.6110   48.8450   20.2490 C.ar  211  PHE211     -0.0000
    108  N         39.0540   47.5240   14.4930 N.3   284  PHE284     -0.1241
    109  CA        40.0290   48.4570   15.0200 C.3   284  PHE284      0.1605
    110  C         41.2130   48.7000   14.1230 C.2   284  PHE284      0.2264
    111  O         41.7750   49.7770   14.1780 O.2   284  PHE284     -0.2867
    112  CB        40.5360   48.0220   16.3970 C.3   284  PHE284      0.0534
    113  CG        40.7280   49.1540   17.3500 C.ar  284  PHE284     -0.0203
    114  CD1       39.6540   49.6780   18.0540 C.ar  284  PHE284     -0.0042
    115  CD2       41.9740   49.7150   17.5530 C.ar  284  PHE284     -0.0042
    116  CE1       39.8340   50.7110   18.9520 C.ar  284  PHE284     -0.0003
    117  CE2       42.1450   50.7530   18.4370 C.ar  284  PHE284     -0.0003
    118  CZ        41.0770   51.2500   19.1310 C.ar  284  PHE284     -0.0000
    119  N         46.9320   58.4260   27.1090 N.3   305  ASP305     -0.1225
    120  CA        45.5810   58.0120   26.6900 C.3   305  ASP305      0.1805
    121  C         45.5840   56.9780   25.5780 C.2   305  ASP305      0.2597
    122  O         44.7450   56.0730   25.5940 O.2   305  ASP305     -0.2718
    123  CB        44.7570   59.1870   26.1960 C.3   305  ASP305      0.1424
    124  CG        44.2860   60.1210   27.2850 C.2   305  ASP305      0.3668
    125  OD1       44.9770   60.2910   28.3020 O.co2 305  ASP305     -0.2456
    126  OD2       43.1870   60.6940   27.1020 O.co2 305  ASP305     -0.2456
    127  N         46.4690   57.1430   24.5970 N.am  306  VAL306     -0.1980
    128  CA        46.6330   56.2130   23.4870 C.3   306  VAL306      0.1595
    129  C         48.1280   55.9410   23.2830 C.2   306  VAL306      0.2287
    130  O         48.9430   56.8500   23.4280 O.2   306  VAL306     -0.2864
    131  CB        45.9840   56.7040   22.1760 C.3   306  VAL306      0.0276
    132  CG1       44.4630   56.8260   22.3320 C.3   306  VAL306      0.0022
    133  CG2       46.5710   57.9840   21.7850 C.3   306  VAL306      0.0022
@<TRIPOS>BOND
     1   110   111    2
     2   110   109    1
     3   108   109    1
     4   109   112    1
     5    36    35    2
     6   112   113    1
     7    45    44    2
     8    22    23    2
     9    22    21    1
    10    35    34    1
    11   113   115   ar
    12   113   114   ar
    13    44    43    1
    14   115   117   ar
    15    21    20    1
    16    21    24    1
    17    30    29    2
    18    25    24    1
    19    49    50    1
    20    41    39   ar
    21    38    39    1
    22    38    37    1
    23   114   116   ar
    24    20    10   am
    25    48    42    1
    26    48    47    1
    27    42    43    1
    28    34    37    1
    29    34    33    1
    30    53    50    1
    31    53    54    1
    32    27    28    1
    33    39    40   ar
    34   117   118   ar
    35    47    46    1
    36    29    33   am
    37    29    28    1
    38    24    26    1
    39    43    46    1
    40    10    11    2
    41    10     9    1
    42    50    51    1
    43     8     9    1
    44   116   118   ar
    45    54    55   ar
    46    54    56   ar
    47    28    31    1
    48     9    12    1
    49    55    57   ar
    50    59    56   ar
    51    59    61   ar
    52    56    58   ar
    53   105   107   ar
    54   105   103   ar
    55    51    52    2
    56   107   106   ar
    57    68    67    1
    58    31    32    1
    59    57    58   ar
    60    61    62   ar
    61    58    60   ar
    62    12    13    1
    63    14    13   ar
    64    14    16   ar
    65   103   102   ar
    66     1     2    1
    67    13    15   ar
    68   106   104   ar
    69    67    69    1
    70    67    64    1
    71    62    60   ar
    72    16    18   ar
    73   133   131    1
    74    63    64    1
    75     2     3    1
    76     2     5    1
    77   131   132    1
    78   131   128    1
    79   102   104   ar
    80   102   101    1
    81    15    17   ar
    82    64    65    1
    83     6     5    1
    84     3     4    2
    85    18    17   ar
    86    18    19    1
    87   100    99    2
    88     5     7    1
    89   129   130    2
    90   129   128    1
    91   128   127    1
    92   101    98    1
    93    98    99    1
    94    98    97    1
    95    65    66    2
    96   127   121   am
    97   121   122    2
    98   121   120    1
    99    85    83   ar
   100    85    87   ar
   101    80    79    2
   102    76    74    1
   103    88    87    1
   104    83    82   ar
   105   123   120    1
   106   123   124    1
   107    87    86   ar
   108    82    81    1
   109    82    84   ar
   110    81    78    1
   111    86    84   ar
   112   120   119    1
   113    96    94    1
   114    79    78    1
   115    79    89   am
   116    78    77    1
   117   126   124   ar
   118    74    75    1
   119    74    71    1
   120   124   125   ar
   121    92    91    2
   122    70    71    1
   123    90    89    1
   124    90    91    1
   125    90    93    1
   126    71    72    1
   127    94    93    1
   128    94    95    1
   129    72    73    2
