@<TRIPOS>MOLECULE
tmp/4ezkA00.pdb
 220 207 0 0 0
SMALL
GASTEIGER

@<TRIPOS>ATOM
      1  N         11.9730   -6.1870   10.7920 N.3   565  THR565     -0.1203
      2  CA        12.5520   -4.9660   10.2780 C.3   565  THR565      0.1994
      3  C         14.0540   -5.1120   10.1830 C.2   565  THR565      0.2618
      4  O         14.6180   -6.1160   10.5680 O.2   565  THR565     -0.2717
      5  CB        12.2280   -3.7700   11.1810 C.3   565  THR565      0.1784
      6  OG1       13.1130   -3.7350   12.3020 O.3   565  THR565     -0.2211
      7  CG2       10.8340   -3.8820   11.6970 C.3   565  THR565      0.0376
      8  N         14.6900   -4.0220    9.7630 N.am  566  VAL566     -0.1965
      9  CA        16.1360   -3.8490    9.7860 C.3   566  VAL566      0.1727
     10  C         16.4950   -2.7960   10.8360 C.2   566  VAL566      0.2616
     11  O         15.9650   -1.6980   10.8140 O.2   566  VAL566     -0.2715
     12  CB        16.6260   -3.3550    8.4270 C.3   566  VAL566      0.0290
     13  CG1       18.0900   -2.9840    8.4790 C.3   566  VAL566      0.0023
     14  CG2       16.3870   -4.4060    7.3690 C.3   566  VAL566      0.0023
     15  N         17.4010   -3.1350   11.7470 N.am  567  MET567     -0.1963
     16  CA        17.7020   -2.3000   12.9170 C.3   567  MET567      0.1736
     17  C         18.4550   -1.0130   12.5720 C.2   567  MET567      0.2616
     18  O         19.0750   -0.9040   11.5130 O.2   567  MET567     -0.2715
     19  CB        18.4610   -3.1120   13.9760 C.3   567  MET567      0.0427
     20  CG        17.8410   -3.0800   15.3880 C.3   567  MET567      0.0599
     21  SD        18.1680   -4.5960   16.3500 S.3   567  MET567     -0.1393
     22  CE        17.7570   -5.8020   15.1070 C.3   567  MET567      0.0692
     23  N         18.4010   -0.0370   13.4750 N.am  568  ALA568     -0.1963
     24  CA        19.0250    1.2630   13.2280 C.3   568  ALA568      0.1728
     25  C         20.4860    1.3280   13.6780 C.2   568  ALA568      0.2616
     26  O         20.8960    2.2690   14.3580 O.2   568  ALA568     -0.2715
     27  CB        18.2120    2.3830   13.8750 C.3   568  ALA568      0.0334
     28  N         21.2700    0.3290   13.2880 N.am  569  SER569     -0.1950
     29  CA        22.7040    0.3380   13.5540 C.3   569  SER569      0.1924
     30  C         23.5020    0.2050   12.2600 C.2   569  SER569      0.2314
     31  O         23.1190   -0.5470   11.3730 O.2   569  SER569     -0.2863
     32  CB        23.0960   -0.7910   14.4990 C.3   569  SER569      0.2116
     33  OG        24.5100   -0.9150   14.5480 O.3   569  SER569     -0.2180
     34  N         21.5220   -5.1660   11.4620 N.3   573  PRO573     -0.2116
     35  CA        21.0350   -6.4840   11.8880 C.3   573  PRO573      0.1372
     36  C         19.5250   -6.6540   11.6600 C.2   573  PRO573      0.2244
     37  O         18.7750   -5.6710   11.6620 O.2   573  PRO573     -0.2868
     38  CB        21.3700   -6.5220   13.3880 C.3   573  PRO573      0.0268
     39  CG        21.9890   -5.1500   13.7180 C.3   573  PRO573      0.0207
     40  CD        21.6580   -4.2380   12.5920 C.3   573  PRO573      0.0892
     41  N         15.9360   -7.6650   12.8120 N.3   575  TRP575     -0.1241
     42  CA        14.9820   -7.9090   13.8950 C.3   575  TRP575      0.1605
     43  C         13.8940   -8.8360   13.3790 C.2   575  TRP575      0.2264
     44  O         12.9960   -8.3860   12.6720 O.2   575  TRP575     -0.2867
     45  CB        14.3420   -6.5780   14.2930 C.3   575  TRP575      0.0550
     46  CG        13.3190   -6.6390   15.3860 C.ar  575  TRP575      0.0003
     47  CD1       12.0020   -7.0070   15.2720 C.ar  575  TRP575      0.0946
     48  CD2       13.5040   -6.2560   16.7540 C.ar  575  TRP575      0.0152
     49  NE1       11.3670   -6.8940   16.4890 N.ar  575  TRP575     -0.2442
     50  CE2       12.2670   -6.4330   17.4140 C.ar  575  TRP575      0.0810
     51  CE3       14.6040   -5.7940   17.4880 C.ar  575  TRP575      0.0012
     52  CZ2       12.1010   -6.1720   18.7760 C.ar  575  TRP575      0.0191
     53  CZ3       14.4300   -5.5280   18.8480 C.ar  575  TRP575      0.0001
     54  CH2       13.1890   -5.7190   19.4710 C.ar  575  TRP575      0.0015
     55  N         17.2460  -11.4630   16.9680 N.3   594  ILE594     -0.1245
     56  CA        18.0620  -10.5830   16.1350 C.3   594  ILE594      0.1561
     57  C         19.1330  -11.3640   15.4060 C.2   594  ILE594      0.2260
     58  O         20.0000  -11.9570   16.0360 O.2   594  ILE594     -0.2867
     59  CB        18.7670   -9.4540   16.9210 C.3   594  ILE594      0.0252
     60  CG1       17.7420   -8.5600   17.6430 C.3   594  ILE594      0.0019
     61  CG2       19.7030   -8.6400   15.9630 C.3   594  ILE594      0.0019
     62  CD1       18.3640   -7.4140   18.3770 C.3   594  ILE594      0.0001
     63  N         22.4120  -11.3220   13.2720 N.3   596  LYS596     -0.1245
     64  CA        23.4340  -10.3420   12.9700 C.3   596  LYS596      0.1561
     65  C         24.6040  -10.8100   12.1390 C.2   596  LYS596      0.2260
     66  O         25.0530  -11.9400   12.2390 O.2   596  LYS596     -0.2867
     67  CB        23.9650   -9.6830   14.2370 C.3   596  LYS596      0.0271
     68  CG        24.9120   -8.5360   13.9260 C.3   596  LYS596      0.0035
     69  CD        25.3460   -7.7660   15.1610 C.3   596  LYS596      0.0206
     70  CE        26.0240   -6.4610   14.7690 C.3   596  LYS596      0.1093
     71  NZ        26.7480   -5.8100   15.8950 N.3   596  LYS596     -0.1314
     72  N         29.4800   -9.0960   12.9100 N.3   599  ASP599     -0.1239
     73  CA        30.2320   -9.0090   14.1410 C.3   599  ASP599      0.1674
     74  C         30.6320  -10.4500   14.4660 C.2   599  ASP599      0.2266
     75  O         30.1460  -11.3860   13.8390 O.2   599  ASP599     -0.2867
     76  CB        29.3480   -8.4110   15.2430 C.3   599  ASP599      0.1410
     77  CG        30.1430   -7.7450   16.3540 C.2   599  ASP599      0.3668
     78  OD1       31.2280   -8.2610   16.7090 O.co2 599  ASP599     -0.2456
     79  OD2       29.6690   -6.7050   16.8700 O.co2 599  ASP599     -0.2456
     80  N         30.2510  -12.9530   17.3980 N.3   601  LEU601     -0.1245
     81  CA        29.5180  -13.1510   18.6600 C.3   601  LEU601      0.1561
     82  C         30.2320  -14.0480   19.6810 C.2   601  LEU601      0.2260
     83  O         29.6990  -14.3470   20.7440 O.2   601  LEU601     -0.2867
     84  CB        28.1090  -13.6960   18.3870 C.3   601  LEU601      0.0270
     85  CG        27.0820  -12.6950   17.8730 C.3   601  LEU601      0.0019
     86  CD1       27.5090  -11.2800   18.2440 C.3   601  LEU601      0.0001
     87  CD2       26.8280  -12.8210   16.3730 C.3   601  LEU601      0.0001
     88  N         30.7770  -12.2050   23.1210 N.3   604  ASP604     -0.1239
     89  CA        29.5110  -12.1100   23.8480 C.3   604  ASP604      0.1674
     90  C         29.0970  -13.4380   24.4430 C.2   604  ASP604      0.2266
     91  O         28.7680  -13.4920   25.6250 O.2   604  ASP604     -0.2867
     92  CB        28.4030  -11.6040   22.9380 C.3   604  ASP604      0.1410
     93  CG        28.7740  -10.3310   22.2490 C.2   604  ASP604      0.3668
     94  OD1       29.4990  -10.3960   21.2250 O.co2 604  ASP604     -0.2456
     95  OD2       28.3450   -9.2690   22.7380 O.co2 604  ASP604     -0.2456
     96  N         20.5240  -13.0470   28.2930 N.3   630  TYR630     -0.1241
     97  CA        19.7500  -13.4550   27.1060 C.3   630  TYR630      0.1605
     98  C         20.5580  -14.3600   26.1730 C.2   630  TYR630      0.2264
     99  O         21.8030  -14.3300   26.1810 O.2   630  TYR630     -0.2867
    100  CB        19.3270  -12.2140   26.2910 C.3   630  TYR630      0.0534
    101  CG        20.5410  -11.3500   25.9780 C.ar  630  TYR630     -0.0201
    102  CD1       20.9900  -10.4080   26.8900 C.ar  630  TYR630     -0.0009
    103  CD2       21.2770  -11.5210   24.8090 C.ar  630  TYR630     -0.0009
    104  CE1       22.1050   -9.6460   26.6540 C.ar  630  TYR630      0.0417
    105  CE2       22.4030  -10.7510   24.5620 C.ar  630  TYR630      0.0417
    106  CZ        22.8100   -9.8140   25.4900 C.ar  630  TYR630      0.1957
    107  OH        23.9260   -9.0450   25.2760 O.3   630  TYR630     -0.2866
    108  N         22.4850  -15.9690   23.1870 N.3   632  CYS632     -0.1235
    109  CA        23.3810  -15.4950   22.1450 C.3   632  CYS632      0.1677
    110  C         24.2410  -16.6330   21.6040 C.2   632  CYS632      0.2270
    111  O         25.0830  -17.1790   22.3150 O.2   632  CYS632     -0.2867
    112  CB        24.2580  -14.3590   22.6490 C.3   632  CYS632      0.0956
    113  SG        25.4230  -13.7790   21.3870 S.3   632  CYS632     -0.0801
    114  N         20.6940  -13.7030   18.3360 N.3   642  ILE642     -0.1231
    115  CA        20.5210  -13.0670   19.6420 C.3   642  ILE642      0.1692
    116  C         19.0650  -13.0620   20.0710 C.2   642  ILE642      0.2592
    117  O         18.1690  -12.6930   19.2990 O.2   642  ILE642     -0.2718
    118  CB        21.0260  -11.5910   19.5820 C.3   642  ILE642      0.0266
    119  CG1       22.5170  -11.5430   19.1980 C.3   642  ILE642      0.0019
    120  CG2       20.7790  -10.8650   20.8830 C.3   642  ILE642      0.0020
    121  CD1       23.0180  -10.1740   18.8910 C.3   642  ILE642      0.0001
    122  N         18.8280  -13.4960   21.3030 N.am  643  GLU643     -0.1966
    123  CA        17.4910  -13.4480   21.8790 C.3   643  GLU643      0.1733
    124  C         17.0070  -12.0160   22.0540 C.2   643  GLU643      0.2616
    125  O         17.7210  -11.1770   22.5860 O.2   643  GLU643     -0.2715
    126  CB        17.4850  -14.1410   23.2280 C.3   643  GLU643      0.0429
    127  CG        16.1070  -14.2230   23.8400 C.3   643  GLU643      0.1163
    128  CD        16.1190  -14.7570   25.2650 C.2   643  GLU643      0.3649
    129  OE1       15.0150  -14.8000   25.8790 O.co2 643  GLU643     -0.2457
    130  OE2       17.2150  -15.1190   25.7710 O.co2 643  GLU643     -0.2457
    131  N         15.8000  -11.7400   21.5940 N.am  644  ILE644     -0.1963
    132  CA        15.1420  -10.4710   21.9040 C.3   644  ILE644      0.1727
    133  C         14.3900  -10.5280   23.2570 C.2   644  ILE644      0.2616
    134  O         13.4150  -11.2520   23.3890 O.2   644  ILE644     -0.2715
    135  CB        14.1130  -10.0610   20.7930 C.3   644  ILE644      0.0290
    136  CG1       14.7940   -9.7630   19.4480 C.3   644  ILE644      0.0022
    137  CG2       13.3400   -8.8500   21.2360 C.3   644  ILE644      0.0023
    138  CD1       13.8240   -9.5470   18.3040 C.3   644  ILE644      0.0001
    139  N         14.8450   -9.7660   24.2480 N.am  645  VAL645     -0.1977
    140  CA        14.1400   -9.6300   25.5220 C.3   645  VAL645      0.1596
    141  C         12.8780   -8.7630   25.4010 C.2   645  VAL645      0.2287
    142  O         12.9350   -7.5730   25.0720 O.2   645  VAL645     -0.2864
    143  CB        15.0640   -9.1000   26.6350 C.3   645  VAL645      0.0276
    144  CG1       14.3230   -9.0760   27.9350 C.3   645  VAL645      0.0022
    145  CG2       16.2900   -9.9800   26.7550 C.3   645  VAL645      0.0022
    146  N         11.8070   -4.6090   26.3690 N.3   648  ALA648     -0.1231
    147  CA        13.0500   -3.9650   26.7890 C.3   648  ALA648      0.1694
    148  C         13.3530   -2.7540   25.9230 C.2   648  ALA648      0.2593
    149  O         13.2030   -2.8030   24.7060 O.2   648  ALA648     -0.2718
    150  CB        14.2030   -4.9400   26.7180 C.3   648  ALA648      0.0304
    151  N         13.7900   -1.6740   26.5590 N.am  649  THR649     -0.1939
    152  CA        14.2810   -0.5070   25.8380 C.3   649  THR649      0.2028
    153  C         15.6810   -0.1530   26.3140 C.2   649  THR649      0.2642
    154  O         16.0820   -0.4720   27.4310 O.2   649  THR649     -0.2714
    155  CB        13.3790    0.7070   26.0210 C.3   649  THR649      0.1808
    156  OG1       12.0190    0.2720   26.0780 O.3   649  THR649     -0.2208
    157  CG2       13.5560    1.6770   24.8760 C.3   649  THR649      0.0379
    158  N         16.4250    0.5000   25.4370 N.am  650  THR650     -0.1950
    159  CA        17.7490    1.0230   25.7410 C.3   650  THR650      0.1897
    160  C         17.6370    2.2000   26.7170 C.2   650  THR650      0.2313
    161  O         16.6920    2.9900   26.6310 O.2   650  THR650     -0.2863
    162  CB        18.4010    1.4420   24.4150 C.3   650  THR650      0.1794
    163  OG1       18.7880    0.2530   23.7180 O.3   650  THR650     -0.2208
    164  CG2       19.6020    2.3430   24.6190 C.3   650  THR650      0.0378
    165  N         17.5690    5.5040   24.8830 N.3   653  LYS653     -0.1245
    166  CA        16.3380    5.8920   24.2080 C.3   653  LYS653      0.1561
    167  C         15.3690    6.5350   25.1790 C.2   653  LYS653      0.2260
    168  O         14.6170    7.4370   24.8040 O.2   653  LYS653     -0.2867
    169  CB        15.7090    4.6970   23.5030 C.3   653  LYS653      0.0271
    170  CG        16.3180    4.4550   22.1460 C.3   653  LYS653      0.0035
    171  CD        16.0810    3.0480   21.6450 C.3   653  LYS653      0.0206
    172  CE        16.9960    2.7610   20.4680 C.3   653  LYS653      0.1093
    173  NZ        18.2370    2.0510   20.8820 N.3   653  LYS653     -0.1314
    174  N         23.8660    3.4480   25.9540 N.3   713  ASP713     -0.1239
    175  CA        23.3440    2.7060   24.8220 C.3   713  ASP713      0.1674
    176  C         23.2780    1.1950   25.0310 C.2   713  ASP713      0.2266
    177  O         22.3420    0.5490   24.5770 O.2   713  ASP713     -0.2867
    178  CB        24.2520    2.9820   23.6240 C.3   713  ASP713      0.1410
    179  CG        23.5570    3.7220   22.5320 C.2   713  ASP713      0.3668
    180  OD1       22.3960    3.3580   22.2200 O.co2 713  ASP713     -0.2456
    181  OD2       24.1760    4.6660   21.9910 O.co2 713  ASP713     -0.2456
    182  N         20.2300   -1.8840   29.0480 N.3   716  MET716     -0.1245
    183  CA        18.8140   -1.9330   28.7440 C.3   716  MET716      0.1570
    184  C         17.9710   -2.2160   29.9580 C.2   716  MET716      0.2261
    185  O         18.4680   -2.5830   31.0190 O.2   716  MET716     -0.2867
    186  CB        18.5280   -2.9670   27.6610 C.3   716  MET716      0.0387
    187  CG        19.1990   -2.6710   26.3340 C.3   716  MET716      0.0595
    188  SD        18.5300   -3.6810   25.0140 S.3   716  MET716     -0.1393
    189  CE        16.9280   -2.9120   24.7990 C.3   716  MET716      0.0692
    190  N         19.6920   -4.7090   32.2800 N.3   724  PHE724     -0.1241
    191  CA        20.6080   -5.7110   31.7370 C.3   724  PHE724      0.1605
    192  C         21.4850   -5.1160   30.6590 C.2   724  PHE724      0.2264
    193  O         21.0430   -4.2890   29.8740 O.2   724  PHE724     -0.2867
    194  CB        19.8740   -6.9830   31.2610 C.3   724  PHE724      0.0534
    195  CG        18.9910   -6.7780   30.0530 C.ar  724  PHE724     -0.0203
    196  CD1       17.7780   -6.0940   30.1680 C.ar  724  PHE724     -0.0042
    197  CD2       19.3560   -7.2760   28.8090 C.ar  724  PHE724     -0.0042
    198  CE1       16.9420   -5.8980   29.0580 C.ar  724  PHE724     -0.0003
    199  CE2       18.5350   -7.0820   27.6980 C.ar  724  PHE724     -0.0003
    200  CZ        17.3150   -6.3910   27.8220 C.ar  724  PHE724     -0.0000
    201  N         24.1100   -5.1950   27.3510 N.3   726  ILE726     -0.1231
    202  CA        24.1320   -5.8790   26.0670 C.3   726  ILE726      0.1692
    203  C         25.3960   -5.5240   25.2990 C.2   726  ILE726      0.2592
    204  O         26.1060   -4.6040   25.6540 O.2   726  ILE726     -0.2718
    205  CB        22.8650   -5.5840   25.1950 C.3   726  ILE726      0.0266
    206  CG1       22.7330   -4.0960   24.8960 C.3   726  ILE726      0.0019
    207  CG2       21.5910   -6.1360   25.8350 C.3   726  ILE726      0.0020
    208  CD1       22.6410   -3.7740   23.4770 C.3   726  ILE726      0.0001
    209  N         25.6580   -6.2420   24.1970 N.am  727  ASP727     -0.1974
    210  CA        26.7630   -5.9340   23.2470 C.3   727  ASP727      0.1709
    211  C         28.3040   -5.9550   23.4540 C.2   727  ASP727      0.2293
    212  O         28.9890   -5.0250   23.0260 O.2   727  ASP727     -0.2864
    213  CB        26.4220   -4.6630   22.4580 C.3   727  ASP727      0.1436
    214  CG        27.1330   -4.5980   21.1220 C.2   727  ASP727      0.3671
    215  OD1       27.9140   -5.5230   20.8170 O.co2 727  ASP727     -0.2456
    216  OD2       26.9110   -3.6220   20.3750 O.co2 727  ASP727     -0.2456
    217  N         30.3740   -7.1590   21.9310 N.3   729  GLY729     -0.1225
    218  CA        30.9910   -7.4010   20.6400 C.3   729  GLY729      0.1811
    219  C         32.2370   -6.5640   20.4280 C.2   729  GLY729      0.2280
    220  O         33.2350   -7.0440   19.8900 O.2   729  GLY729     -0.2866
@<TRIPOS>BOND
     1    14    12    1
     2    12    13    1
     3    12     9    1
     4     8     9    1
     5     8     3   am
     6     9    10    1
     7     3     2    1
     8     3     4    2
     9     2     1    1
    10     2     5    1
    11    11    10    2
    12    10    15   am
    13     5     7    1
    14     5     6    1
    15    31    30    2
    16    34    35    1
    17    34    40    1
    18    18    17    2
    19    36    37    2
    20    36    35    1
    21    15    16    1
    22    35    38    1
    23    65    66    2
    24    65    64    1
    25    30    29    1
    26    17    16    1
    27    17    23   am
    28    40    39    1
    29    44    43    2
    30    41    42    1
    31    72    73    1
    32    16    19    1
    33    64    63    1
    34    64    67    1
    35    24    23    1
    36    24    25    1
    37    24    27    1
    38    28    29    1
    39    28    25   am
    40    43    42    1
    41    38    39    1
    42    29    32    1
    43    25    26    2
    44    75    74    2
    45    42    45    1
    46    68    67    1
    47    68    69    1
    48    19    20    1
    49    73    74    1
    50    73    76    1
    51    45    46    1
    52    32    33    1
    53    70    69    1
    54    70    71    1
    55    22    21    1
    56    76    77    1
    57    47    46   ar
    58    47    49   ar
    59    46    48   ar
    60    20    21    1
    61    57    58    2
    62    57    56    1
    63    61    59    1
    64    56    59    1
    65    56    55    1
    66    77    78   ar
    67    77    79   ar
    68    87    85    1
    69    49    50   ar
    70    48    50   ar
    71    48    51   ar
    72    59    60    1
    73    80    81    1
    74    50    52   ar
    75    51    53   ar
    76    60    62    1
    77    85    86    1
    78    85    84    1
    79   138   136    1
    80   114   115    1
    81    84    81    1
    82    81    82    1
    83    52    54   ar
    84    53    54   ar
    85   121   119    1
    86   119   118    1
    87   117   116    2
    88   136   135    1
    89   118   115    1
    90   118   120    1
    91   115   116    1
    92    82    83    2
    93   220   219    2
    94   116   122   am
    95   216   214   ar
    96   219   218    1
    97   172   173    1
    98   172   171    1
    99   218   217    1
   100   135   137    1
   101   135   132    1
   102   215   214   ar
   103   214   213    1
   104    94    93   ar
   105   122   123    1
   106   113   112    1
   107   131   132    1
   108   131   124   am
   109   110   109    1
   110   110   111    2
   111   171   170    1
   112   123   124    1
   113   123   126    1
   114   132   133    1
   115   181   179   ar
   116   124   125    2
   117   109   112    1
   118   109   108    1
   119   170   169    1
   120   180   179   ar
   121    93    95   ar
   122    93    92    1
   123   213   210    1
   124   179   178    1
   125    92    89    1
   126   212   211    2
   127    88    89    1
   128   126   127    1
   129   210   211    1
   130   210   209    1
   131   133   134    2
   132   133   139   am
   133   208   206    1
   134   169   166    1
   135   178   175    1
   136   163   162    1
   137   127   128    1
   138    89    90    1
   139   209   203   am
   140   166   165    1
   141   166   167    1
   142   139   140    1
   143   162   164    1
   144   162   159    1
   145    90    91    2
   146   105   103   ar
   147   105   106   ar
   148   177   176    2
   149   149   148    2
   150   189   188    1
   151   168   167    2
   152   103   101   ar
   153   175   176    1
   154   175   174    1
   155   157   155    1
   156   206   205    1
   157   188   187    1
   158   142   141    2
   159   205   207    1
   160   205   202    1
   161   128   130   ar
   162   128   129   ar
   163   107   106    1
   164   203   204    2
   165   203   202    1
   166   141   140    1
   167   158   159    1
   168   158   153   am
   169   106   104   ar
   170   140   143    1
   171   159   160    1
   172   152   155    1
   173   152   153    1
   174   152   151    1
   175   148   151   am
   176   148   147    1
   177   101   100    1
   178   101   102   ar
   179   155   156    1
   180   202   201    1
   181    98    99    2
   182    98    97    1
   183   100    97    1
   184   153   154    2
   185   187   186    1
   186   146   147    1
   187   161   160    2
   188   143   145    1
   189   143   144    1
   190   104   102   ar
   191   150   147    1
   192    97    96    1
   193   186   183    1
   194   199   200   ar
   195   199   197   ar
   196   200   198   ar
   197   183   182    1
   198   183   184    1
   199   197   195   ar
   200   198   196   ar
   201   193   192    2
   202   184   185    2
   203   195   196   ar
   204   195   194    1
   205   192   191    1
   206   194   191    1
   207   191   190    1
