@<TRIPOS>MOLECULE
tmp/4ezlA00.pdb
 210 199 0 0 0
SMALL
GASTEIGER

@<TRIPOS>ATOM
      1  N         12.8690   -5.1100   11.2180 N.3   557  THR557     -0.1203
      2  CA        13.3970   -3.8090   10.7960 C.3   557  THR557      0.1994
      3  C         14.9330   -3.7840   10.8190 C.2   557  THR557      0.2618
      4  O         15.5660   -4.7260   11.2950 O.2   557  THR557     -0.2717
      5  CB        12.8810   -2.6830   11.7010 C.3   557  THR557      0.1784
      6  OG1       13.3190   -1.4170   11.1930 O.3   557  THR557     -0.2211
      7  CG2       13.4030   -2.8640   13.1160 C.3   557  THR557      0.0376
      8  N         15.5300   -2.7150   10.2910 N.am  558  VAL558     -0.1965
      9  CA        16.9840   -2.5410   10.3660 C.3   558  VAL558      0.1727
     10  C         17.3470   -1.4630   11.3810 C.2   558  VAL558      0.2616
     11  O         16.9530   -0.3040   11.2370 O.2   558  VAL558     -0.2715
     12  CB        17.5830   -2.1440    9.0050 C.3   558  VAL558      0.0290
     13  CG1       19.0550   -1.7710    9.1560 C.3   558  VAL558      0.0023
     14  CG2       17.4270   -3.2710    8.0140 C.3   558  VAL558      0.0023
     15  N         18.0980   -1.8160   12.3910 N.am  559  MET559     -0.1963
     16  CA        18.4390   -0.8630   13.4110 C.3   559  MET559      0.1736
     17  C         19.5360    0.0980   13.0570 C.2   559  MET559      0.2616
     18  O         20.3380   -0.1370   12.1900 O.2   559  MET559     -0.2715
     19  CB        18.8570   -1.6070   14.6560 C.3   559  MET559      0.0427
     20  CG        17.9780   -2.7820   14.9800 C.3   559  MET559      0.0599
     21  SD        18.6910   -3.7360   16.2930 S.3   559  MET559     -0.1393
     22  CE        19.3920   -2.4780   17.2940 C.3   559  MET559      0.0692
     23  N         19.3030    1.2920   13.5620 N.am  560  ALA560     -0.1963
     24  CA        20.0660    2.4530   13.2340 C.3   560  ALA560      0.1728
     25  C         21.1870    2.5460   14.1940 C.2   560  ALA560      0.2616
     26  O         21.3020    3.5190   14.9240 O.2   560  ALA560     -0.2715
     27  CB        19.1900    3.6720   13.3580 C.3   560  ALA560      0.0334
     28  N         21.9650    1.4830   14.2790 N.am  561  SER561     -0.1950
     29  CA        22.9380    1.4010   15.3310 C.3   561  SER561      0.1924
     30  C         24.3570    1.3440   14.9560 C.2   561  SER561      0.2314
     31  O         25.1950    1.4250   15.8220 O.2   561  SER561     -0.2863
     32  CB        22.7250    0.1400   16.1310 C.3   561  SER561      0.2116
     33  OG        23.9930   -0.4820   16.3030 O.3   561  SER561     -0.2180
     34  N         22.4460   -3.5980   12.1450 N.3   565  PRO565     -0.2116
     35  CA        21.9250   -4.8800   12.6570 C.3   565  PRO565      0.1372
     36  C         20.4580   -5.1660   12.2900 C.2   565  PRO565      0.2244
     37  O         19.6390   -4.2500   12.2360 O.2   565  PRO565     -0.2868
     38  CB        22.0230   -4.7060   14.1760 C.3   565  PRO565      0.0268
     39  CG        22.1020   -3.2810   14.4220 C.3   565  PRO565      0.0207
     40  CD        22.6670   -2.6180   13.2240 C.3   565  PRO565      0.0892
     41  N         16.8840   -6.4160   13.2560 N.3   567  TRP567     -0.1241
     42  CA        15.9980   -6.7110   14.3710 C.3   567  TRP567      0.1605
     43  C         14.9120   -7.6820   13.9200 C.2   567  TRP567      0.2264
     44  O         14.0490   -7.3240   13.1150 O.2   567  TRP567     -0.2867
     45  CB        15.3770   -5.3970   14.8460 C.3   567  TRP567      0.0550
     46  CG        14.2600   -5.5120   15.8280 C.ar  567  TRP567      0.0003
     47  CD1       12.9950   -5.9810   15.6100 C.ar  567  TRP567      0.0946
     48  CD2       14.3340   -5.1870   17.2180 C.ar  567  TRP567      0.0152
     49  NE1       12.2710   -5.9400   16.7770 N.ar  567  TRP567     -0.2442
     50  CE2       13.0720   -5.4600   17.7800 C.ar  567  TRP567      0.0810
     51  CE3       15.3460   -4.6800   18.0400 C.ar  567  TRP567      0.0012
     52  CZ2       12.7950   -5.2450   19.1280 C.ar  567  TRP567      0.0191
     53  CZ3       15.0710   -4.4660   19.3750 C.ar  567  TRP567      0.0001
     54  CH2       13.8060   -4.7480   19.9070 C.ar  567  TRP567      0.0015
     55  N         18.2130  -10.3220   17.3930 N.3   586  ILE586     -0.1245
     56  CA        19.0950   -9.4060   16.6410 C.3   586  ILE586      0.1561
     57  C         20.1660  -10.1630   15.8650 C.2   586  ILE586      0.2260
     58  O         20.8230  -11.0470   16.4310 O.2   586  ILE586     -0.2867
     59  CB        19.7810   -8.4270   17.5900 C.3   586  ILE586      0.0252
     60  CG1       18.7340   -7.4730   18.1570 C.3   586  ILE586      0.0019
     61  CG2       20.8250   -7.6110   16.8640 C.3   586  ILE586      0.0019
     62  CD1       19.3080   -6.3880   19.0040 C.3   586  ILE586      0.0001
     63  N         23.7300   -9.5680   13.8120 N.3   588  LYS588     -0.1245
     64  CA        24.6240   -8.4450   13.4620 C.3   588  LYS588      0.1561
     65  C         26.0390   -8.7390   12.9570 C.2   588  LYS588      0.2260
     66  O         26.7480   -9.5560   13.5510 O.2   588  LYS588     -0.2867
     67  CB        24.7480   -7.5250   14.6850 C.3   588  LYS588      0.0271
     68  CG        25.5010   -6.2240   14.4680 C.3   588  LYS588      0.0035
     69  CD        25.7010   -5.5110   15.8010 C.3   588  LYS588      0.0206
     70  CE        26.3110   -4.1280   15.6310 C.3   588  LYS588      0.1093
     71  NZ        26.6930   -3.5460   16.9510 N.3   588  LYS588     -0.1314
     72  N         30.7470   -7.2870   14.9290 N.3   591  ASP591     -0.1239
     73  CA        31.3210   -7.1490   16.2740 C.3   591  ASP591      0.1674
     74  C         31.9110   -8.5310   16.4030 C.2   591  ASP591      0.2266
     75  O         31.3400   -9.4790   15.8690 O.2   591  ASP591     -0.2867
     76  CB        30.3360   -6.7890   17.3990 C.3   591  ASP591      0.1410
     77  CG        29.9190   -5.3370   17.3850 C.2   591  ASP591      0.3668
     78  OD1       30.7020   -4.4840   17.8640 O.co2 591  ASP591     -0.2456
     79  OD2       28.8010   -5.0510   16.9390 O.co2 591  ASP591     -0.2456
     80  N         31.5640  -11.1180   18.2630 N.3   593  LEU593     -0.1245
     81  CA        30.6220  -11.5730   19.2640 C.3   593  LEU593      0.1561
     82  C         31.1930  -12.6810   20.1450 C.2   593  LEU593      0.2260
     83  O         30.5790  -13.0400   21.1510 O.2   593  LEU593     -0.2867
     84  CB        29.3170  -12.0210   18.5930 C.3   593  LEU593      0.0270
     85  CG        28.5290  -10.9230   17.8700 C.3   593  LEU593      0.0019
     86  CD1       27.3330  -11.4790   17.1390 C.3   593  LEU593      0.0001
     87  CD2       28.0690   -9.8760   18.8580 C.3   593  LEU593      0.0001
     88  N         31.6950  -10.9260   23.2890 N.3   596  ASP596     -0.1239
     89  CA        30.3920  -10.8250   23.9300 C.3   596  ASP596      0.1674
     90  C         29.9720  -12.1540   24.5680 C.2   596  ASP596      0.2266
     91  O         29.5480  -12.1620   25.7240 O.2   596  ASP596     -0.2867
     92  CB        29.3510  -10.3920   22.8970 C.3   596  ASP596      0.1410
     93  CG        29.6740   -9.0430   22.2770 C.2   596  ASP596      0.3668
     94  OD1       30.7180   -8.9390   21.5960 O.co2 596  ASP596     -0.2456
     95  OD2       28.8870   -8.0900   22.4700 O.co2 596  ASP596     -0.2456
     96  N         21.5840  -11.9990   28.5290 N.3   622  TYR622     -0.1241
     97  CA        20.7940  -12.4360   27.3850 C.3   622  TYR622      0.1605
     98  C         21.6140  -13.3870   26.5210 C.2   622  TYR622      0.2264
     99  O         22.8430  -13.3270   26.5320 O.2   622  TYR622     -0.2867
    100  CB        20.3100  -11.2390   26.5750 C.3   622  TYR622      0.0534
    101  CG        21.4470  -10.2920   26.3040 C.ar  622  TYR622     -0.0201
    102  CD1       21.7650   -9.2950   27.2190 C.ar  622  TYR622     -0.0009
    103  CD2       22.2190  -10.4020   25.1590 C.ar  622  TYR622     -0.0009
    104  CE1       22.8190   -8.4250   26.9980 C.ar  622  TYR622      0.0417
    105  CE2       23.2790   -9.5380   24.9290 C.ar  622  TYR622      0.0417
    106  CZ        23.5730   -8.5480   25.8510 C.ar  622  TYR622      0.1957
    107  OH        24.6220   -7.6870   25.6200 O.3   622  TYR622     -0.2866
    108  N         21.8910  -12.3180   18.7590 N.3   634  ILE634     -0.1231
    109  CA        21.7710  -11.7370   20.0860 C.3   634  ILE634      0.1692
    110  C         20.3000  -11.8260   20.4850 C.2   634  ILE634      0.2592
    111  O         19.4180  -11.5330   19.6780 O.2   634  ILE634     -0.2718
    112  CB        22.2180  -10.2500   20.0830 C.3   634  ILE634      0.0266
    113  CG1       23.6510  -10.1020   19.5550 C.3   634  ILE634      0.0019
    114  CG2       22.0710   -9.6340   21.4680 C.3   634  ILE634      0.0020
    115  CD1       24.0520   -8.6760   19.2470 C.3   634  ILE634      0.0001
    116  N         20.0340  -12.2170   21.7280 N.am  635  GLU635     -0.1966
    117  CA        18.6610  -12.3010   22.2220 C.3   635  GLU635      0.1733
    118  C         18.0680  -10.9210   22.4490 C.2   635  GLU635      0.2616
    119  O         18.6940  -10.0930   23.1030 O.2   635  GLU635     -0.2715
    120  CB        18.5880  -13.0960   23.5230 C.3   635  GLU635      0.0429
    121  CG        17.2170  -12.9910   24.1830 C.3   635  GLU635      0.1163
    122  CD        17.1530  -13.6160   25.5620 C.2   635  GLU635      0.3649
    123  OE1       16.0650  -13.5710   26.1740 O.co2 635  GLU635     -0.2457
    124  OE2       18.1720  -14.1730   26.0230 O.co2 635  GLU635     -0.2457
    125  N         16.8810  -10.6610   21.9110 N.am  636  ILE636     -0.1963
    126  CA        16.1730   -9.4310   22.2570 C.3   636  ILE636      0.1727
    127  C         15.4030   -9.5870   23.5620 C.2   636  ILE636      0.2616
    128  O         14.5240  -10.4490   23.6690 O.2   636  ILE636     -0.2715
    129  CB        15.1590   -9.0240   21.1660 C.3   636  ILE636      0.0290
    130  CG1       15.8690   -8.5600   19.8940 C.3   636  ILE636      0.0022
    131  CG2       14.2380   -7.9270   21.6810 C.3   636  ILE636      0.0023
    132  CD1       14.9480   -8.4290   18.6960 C.3   636  ILE636      0.0001
    133  N         15.7510   -8.7900   24.5710 N.am  637  VAL637     -0.1977
    134  CA        14.9860   -8.8430   25.8010 C.3   637  VAL637      0.1596
    135  C         13.7660   -7.9750   25.5750 C.2   637  VAL637      0.2287
    136  O         13.8970   -6.8230   25.1570 O.2   637  VAL637     -0.2864
    137  CB        15.7780   -8.3440   27.0270 C.3   637  VAL637      0.0276
    138  CG1       14.8850   -8.3000   28.2580 C.3   637  VAL637      0.0022
    139  CG2       16.9940   -9.2080   27.2730 C.3   637  VAL637      0.0022
    140  N         12.5140   -3.5650   26.6840 N.3   640  ALA640     -0.1231
    141  CA        13.7880   -2.9980   27.1170 C.3   640  ALA640      0.1694
    142  C         14.2010   -1.8340   26.2060 C.2   640  ALA640      0.2593
    143  O         14.0860   -1.9310   24.9830 O.2   640  ALA640     -0.2718
    144  CB        14.8710   -4.0680   27.1810 C.3   640  ALA640      0.0304
    145  N         14.6850   -0.7440   26.7940 N.am  641  THR641     -0.1939
    146  CA        15.2550    0.3650   26.0270 C.3   641  THR641      0.2028
    147  C         16.6190    0.7430   26.5960 C.2   641  THR641      0.2642
    148  O         16.9570    0.3580   27.7140 O.2   641  THR641     -0.2714
    149  CB        14.3430    1.6070   26.0370 C.3   641  THR641      0.1808
    150  OG1       14.8700    2.5940   25.1400 O.3   641  THR641     -0.2208
    151  CG2       14.2490    2.1950   27.4320 C.3   641  THR641      0.0379
    152  N         17.4020    1.4930   25.8300 N.am  642  THR642     -0.1950
    153  CA        18.7210    1.9140   26.2840 C.3   642  THR642      0.1897
    154  C         18.5650    3.1880   27.1190 C.2   642  THR642      0.2313
    155  O         17.7550    4.0570   26.7970 O.2   642  THR642     -0.2863
    156  CB        19.6770    2.1710   25.0950 C.3   642  THR642      0.1794
    157  OG1       19.5750    3.5350   24.6690 O.3   642  THR642     -0.2208
    158  CG2       19.3590    1.2440   23.9320 C.3   642  THR642      0.0378
    159  N         18.5260    6.3130   25.2200 N.3   645  LYS645     -0.1245
    160  CA        17.2860    6.7060   24.5530 C.3   645  LYS645      0.1561
    161  C         16.3610    7.3940   25.5280 C.2   645  LYS645      0.2260
    162  O         15.7160    8.3930   25.1910 O.2   645  LYS645     -0.2867
    163  CB        16.6150    5.4990   23.9010 C.3   645  LYS645      0.0271
    164  CG        15.4440    5.8150   22.9900 C.3   645  LYS645      0.0035
    165  CD        14.8050    4.5160   22.5230 C.3   645  LYS645      0.0206
    166  CE        13.6250    4.7590   21.6090 C.3   645  LYS645      0.1093
    167  NZ        14.0510    5.5730   20.4440 N.3   645  LYS645     -0.1314
    168  N         24.7430    4.3860   26.1140 N.3   705  ASP705     -0.1239
    169  CA        24.0950    3.8500   24.9300 C.3   705  ASP705      0.1674
    170  C         24.2140    2.3320   24.9520 C.2   705  ASP705      0.2266
    171  O         23.4510    1.6210   24.2900 O.2   705  ASP705     -0.2867
    172  CB        24.7010    4.4370   23.6590 C.3   705  ASP705      0.1410
    173  CG        23.8330    4.2140   22.4480 C.2   705  ASP705      0.3668
    174  OD1       22.6040    4.0700   22.6170 O.co2 705  ASP705     -0.2456
    175  OD2       24.3800    4.1990   21.3250 O.co2 705  ASP705     -0.2456
    176  N         21.0950   -0.7820   29.0960 N.3   708  MET708     -0.1245
    177  CA        19.6520   -0.8530   28.9290 C.3   708  MET708      0.1570
    178  C         18.8760   -1.0700   30.2180 C.2   708  MET708      0.2261
    179  O         19.4500   -1.3480   31.2680 O.2   708  MET708     -0.2867
    180  CB        19.3190   -1.9640   27.9440 C.3   708  MET708      0.0387
    181  CG        20.0130   -1.7580   26.6180 C.3   708  MET708      0.0595
    182  SD        19.4160   -2.8960   25.3720 S.3   708  MET708     -0.1393
    183  CE        17.9010   -2.0630   24.9220 C.3   708  MET708      0.0692
    184  N         20.6770   -3.5300   32.5680 N.3   716  PHE716     -0.1241
    185  CA        21.6840   -4.4500   32.0280 C.3   716  PHE716      0.1605
    186  C         22.5340   -3.8250   30.9100 C.2   716  PHE716      0.2264
    187  O         22.0370   -3.0510   30.0930 O.2   716  PHE716     -0.2867
    188  CB        21.0550   -5.7680   31.5520 C.3   716  PHE716      0.0534
    189  CG        20.0940   -5.6160   30.4050 C.ar  716  PHE716     -0.0203
    190  CD1       18.8240   -5.0920   30.5910 C.ar  716  PHE716     -0.0042
    191  CD2       20.4640   -6.0250   29.1360 C.ar  716  PHE716     -0.0042
    192  CE1       17.9480   -4.9670   29.5210 C.ar  716  PHE716     -0.0003
    193  CE2       19.5970   -5.9050   28.0690 C.ar  716  PHE716     -0.0003
    194  CZ        18.3390   -5.3760   28.2610 C.ar  716  PHE716     -0.0000
    195  N         25.2210   -4.0150   27.5080 N.3   718  ILE718     -0.1231
    196  CA        25.3420   -4.7340   26.2320 C.3   718  ILE718      0.1692
    197  C         26.6360   -4.3980   25.4610 C.2   718  ILE718      0.2592
    198  O         27.4350   -3.5830   25.9210 O.2   718  ILE718     -0.2718
    199  CB        24.1670   -4.3820   25.3000 C.3   718  ILE718      0.0266
    200  CG1       24.2370   -2.8990   24.9230 C.3   718  ILE718      0.0019
    201  CG2       22.8270   -4.7150   25.9410 C.3   718  ILE718      0.0020
    202  CD1       23.1150   -2.4350   24.0260 C.3   718  ILE718      0.0001
    203  N         26.8230   -5.0230   24.2890 N.am  719  ASP719     -0.1974
    204  CA        27.9210   -4.6960   23.3510 C.3   719  ASP719      0.1709
    205  C         29.3240   -4.8370   23.9440 C.2   719  ASP719      0.2293
    206  O         30.1050   -3.8870   23.9250 O.2   719  ASP719     -0.2864
    207  CB        27.7730   -3.2700   22.8440 C.3   719  ASP719      0.1436
    208  CG        28.3580   -3.0980   21.4520 C.2   719  ASP719      0.3671
    209  OD1       29.3670   -3.7720   21.1460 O.co2 719  ASP719     -0.2456
    210  OD2       27.8050   -2.3170   20.6540 O.co2 719  ASP719     -0.2456
@<TRIPOS>BOND
     1    14    12    1
     2    12    13    1
     3    12     9    1
     4     8     9    1
     5     8     3   am
     6     9    10    1
     7     2     3    1
     8     2     1    1
     9     2     5    1
    10     3     4    2
    11     6     5    1
    12    11    10    2
    13    10    15   am
    14     5     7    1
    15    34    35    1
    16    34    40    1
    17    18    17    2
    18    37    36    2
    19    36    35    1
    20    15    16    1
    21    35    38    1
    22    65    64    1
    23    65    66    2
    24    17    16    1
    25    17    23   am
    26    44    43    2
    27    40    39    1
    28    24    27    1
    29    24    23    1
    30    24    25    1
    31    41    42    1
    32    16    19    1
    33    64    63    1
    34    64    67    1
    35    43    42    1
    36    38    39    1
    37    25    28   am
    38    25    26    2
    39    28    29    1
    40    42    45    1
    41    68    67    1
    42    68    69    1
    43    19    20    1
    44    45    46    1
    45    72    73    1
    46    30    29    1
    47    30    31    2
    48    20    21    1
    49    29    32    1
    50    47    46   ar
    51    47    49   ar
    52    70    69    1
    53    70    71    1
    54    46    48   ar
    55    57    58    2
    56    57    56    1
    57    75    74    2
    58    32    33    1
    59    73    74    1
    60    73    76    1
    61    21    22    1
    62    56    55    1
    63    56    59    1
    64    49    50   ar
    65    61    59    1
    66    79    77   ar
    67    86    85    1
    68    48    50   ar
    69    48    51   ar
    70    77    76    1
    71    77    78   ar
    72    59    60    1
    73    50    52   ar
    74    85    84    1
    75    85    87    1
    76    51    53   ar
    77    60    62    1
    78    80    81    1
    79    84    81    1
    80   132   130    1
    81   108   109    1
    82    52    54   ar
    83   115   113    1
    84    81    82    1
    85    53    54   ar
    86   113   112    1
    87   111   110    2
    88   130   129    1
    89   112   109    1
    90   112   114    1
    91   109   110    1
    92    82    83    2
    93   167   166    1
    94   110   116   am
    95   210   208   ar
    96   209   208   ar
    97   129   131    1
    98   129   126    1
    99   175   173   ar
   100   208   207    1
   101    94    93   ar
   102   166   165    1
   103   116   117    1
   104   125   126    1
   105   125   118   am
   106   117   118    1
   107   117   120    1
   108   126   127    1
   109    93    95   ar
   110    93    92    1
   111   173   174   ar
   112   173   172    1
   113   118   119    2
   114   165   164    1
   115   207   204    1
   116    92    89    1
   117   164   163    1
   118    88    89    1
   119   204   205    1
   120   204   203    1
   121   120   121    1
   122   127   128    2
   123   127   133   am
   124   172   169    1
   125   163   160    1
   126   206   205    2
   127    89    90    1
   128   158   156    1
   129   202   200    1
   130   121   122    1
   131   203   197   am
   132   171   170    2
   133   160   159    1
   134   160   161    1
   135    90    91    2
   136   133   134    1
   137   157   156    1
   138   183   182    1
   139   200   199    1
   140   105   103   ar
   141   105   106   ar
   142   169   170    1
   143   169   168    1
   144   143   142    2
   145   156   153    1
   146   150   149    1
   147   136   135    2
   148   103   101   ar
   149   162   161    2
   150   199   201    1
   151   199   196    1
   152   182   181    1
   153   197   198    2
   154   197   196    1
   155   122   124   ar
   156   122   123   ar
   157   135   134    1
   158   107   106    1
   159   134   137    1
   160   152   153    1
   161   152   147   am
   162   106   104   ar
   163   146   149    1
   164   146   147    1
   165   146   145    1
   166   149   151    1
   167   142   145   am
   168   142   141    1
   169   196   195    1
   170   153   154    1
   171   101   100    1
   172   101   102   ar
   173    98    99    2
   174    98    97    1
   175   100    97    1
   176   147   148    2
   177   181   180    1
   178   140   141    1
   179   155   154    2
   180   104   102   ar
   181   137   139    1
   182   137   138    1
   183   141   144    1
   184    97    96    1
   185   180   177    1
   186   193   194   ar
   187   193   191   ar
   188   194   192   ar
   189   177   176    1
   190   177   178    1
   191   191   189   ar
   192   192   190   ar
   193   187   186    2
   194   178   179    2
   195   189   190   ar
   196   189   188    1
   197   186   185    1
   198   188   185    1
   199   185   184    1
