@<TRIPOS>MOLECULE
tmp/4eznB00.pdb
 212 202 0 0 0
SMALL
GASTEIGER

@<TRIPOS>ATOM
      1  N         23.8120  -17.4580  -17.0450 N.3    13  ILE13      -0.1231
      2  CA        23.8610  -17.1520  -15.6200 C.3    13  ILE13       0.1692
      3  C         22.9180  -16.0290  -15.2660 C.2    13  ILE13       0.2592
      4  O         22.5230  -15.2190  -16.1460 O.2    13  ILE13      -0.2718
      5  CB        25.3170  -16.7730  -15.1590 C.3    13  ILE13       0.0266
      6  CG1       25.8920  -15.5280  -15.8890 C.3    13  ILE13       0.0019
      7  CG2       26.2670  -17.9260  -15.4320 C.3    13  ILE13       0.0020
      8  CD1       27.2310  -15.0610  -15.2850 C.3    13  ILE13       0.0001
      9  N         22.6780  -15.9040  -13.9620 N.am   14  GLU14      -0.1966
     10  CA        21.8740  -14.8300  -13.4650 C.3    14  GLU14       0.1733
     11  C         22.6700  -13.5540  -13.3830 C.2    14  GLU14       0.2617
     12  O         23.7860  -13.5600  -12.8850 O.2    14  GLU14      -0.2715
     13  CB        21.3570  -15.1750  -12.0530 C.3    14  GLU14       0.0429
     14  CG        20.2080  -14.1980  -11.7320 C.3    14  GLU14       0.1163
     15  CD        19.5700  -14.4270  -10.3870 C.2    14  GLU14       0.3649
     16  OE1       19.9140  -15.4270   -9.7150 O.co2  14  GLU14      -0.2457
     17  OE2       18.6580  -13.6210  -10.0480 O.co2  14  GLU14      -0.2457
     18  N         22.0800  -12.4360  -13.8410 N.am   15  THR15      -0.1937
     19  CA        22.7930  -11.1880  -13.6850 C.3    15  THR15       0.2028
     20  C         21.8580  -10.2170  -12.9920 C.2    15  THR15       0.2642
     21  O         20.6640  -10.5180  -12.7340 O.2    15  THR15      -0.2714
     22  CB        23.2470  -10.5890  -15.0460 C.3    15  THR15       0.1808
     23  OG1       22.1170  -10.4570  -15.8950 O.3    15  THR15      -0.2208
     24  CG2       24.3460  -11.4980  -15.7830 C.3    15  THR15       0.0379
     25  N         22.4440   -9.0850  -12.6100 N.am   16  MET16      -0.1976
     26  CA        21.8040   -8.0830  -11.7530 C.3    16  MET16       0.1605
     27  C         20.3100   -7.8360  -12.0920 C.2    16  MET16       0.2287
     28  O         19.9530   -7.5130  -13.2560 O.2    16  MET16      -0.2864
     29  CB        22.5820   -6.7450  -11.7900 C.3    16  MET16       0.0413
     30  CG        22.0510   -5.7290  -10.7240 C.3    16  MET16       0.0598
     31  SD        22.8190   -4.1270  -11.0790 S.3    16  MET16      -0.1393
     32  CE        22.0680   -3.1370   -9.7330 C.3    16  MET16       0.0692
     33  N         21.2370  -14.2410  -18.5060 N.3    21  THR21      -0.1218
     34  CA        22.0820  -13.8780  -19.5970 C.3    21  THR21       0.1862
     35  C         22.6710  -15.1370  -20.1950 C.2    21  THR21       0.2287
     36  O         23.4110  -15.8460  -19.5370 O.2    21  THR21      -0.2866
     37  CB        23.1860  -12.9400  -19.0930 C.3    21  THR21       0.1770
     38  OG1       22.5440  -11.7320  -18.5860 O.3    21  THR21      -0.2211
     39  CG2       24.1190  -12.5440  -20.1980 C.3    21  THR21       0.0375
     40  N         32.4180  -15.1630  -21.7800 N.3    36  GLN36      -0.1231
     41  CA        31.9410  -13.7610  -21.8100 C.3    36  GLN36       0.1698
     42  C         32.4460  -13.1250  -20.5340 C.2    36  GLN36       0.2592
     43  O         32.5950  -13.8080  -19.5030 O.2    36  GLN36      -0.2718
     44  CB        30.3850  -13.6330  -21.8330 C.3    36  GLN36       0.0381
     45  CG        29.6740  -13.9720  -23.1300 C.3    36  GLN36       0.0905
     46  CD        28.1760  -13.7640  -23.0530 C.2    36  GLN36       0.2608
     47  OE1       27.6810  -12.8280  -22.3820 O.2    36  GLN36      -0.2717
     48  NE2       27.4380  -14.6370  -23.7310 N.am   36  GLN36      -0.0878
     49  N         32.7030  -11.8130  -20.5850 N.am   37  VAL37      -0.1966
     50  CA        33.1810  -11.0500  -19.4170 C.3    37  VAL37       0.1727
     51  C         32.0260  -10.3590  -18.7280 C.2    37  VAL37       0.2616
     52  O         31.1360   -9.7520  -19.3960 O.2    37  VAL37      -0.2715
     53  CB        34.2580   -9.9870  -19.8430 C.3    37  VAL37       0.0290
     54  CG1       34.8330   -9.3080  -18.6110 C.3    37  VAL37       0.0023
     55  CG2       35.3900  -10.6710  -20.6030 C.3    37  VAL37       0.0023
     56  N         31.9850  -10.5000  -17.4020 N.am   38  PHE38      -0.1960
     57  CA        30.9810   -9.8820  -16.5660 C.3    38  PHE38       0.1771
     58  C         31.7050   -8.9940  -15.5640 C.2    38  PHE38       0.2620
     59  O         32.9530   -8.9940  -15.4920 O.2    38  PHE38      -0.2715
     60  CB        30.1940  -10.9710  -15.8460 C.3    38  PHE38       0.0574
     61  CG        29.3370  -11.7530  -16.7650 C.ar   38  PHE38      -0.0200
     62  CD1       29.8760  -12.8160  -17.4450 C.ar   38  PHE38      -0.0042
     63  CD2       27.9920  -11.3790  -17.0010 C.ar   38  PHE38      -0.0042
     64  CE1       29.1020  -13.5340  -18.3580 C.ar   38  PHE38      -0.0003
     65  CE2       27.1800  -12.1410  -17.8570 C.ar   38  PHE38      -0.0003
     66  CZ        27.7620  -13.2180  -18.5360 C.ar   38  PHE38      -0.0000
     67  N         30.9390   -8.2000  -14.8430 N.am   39  SER39      -0.1936
     68  CA        31.5300   -7.3110  -13.8040 C.3    39  SER39       0.2055
     69  C         30.6410   -7.2620  -12.5660 C.2    39  SER39       0.2644
     70  O         29.6560   -8.0400  -12.4140 O.2    39  SER39      -0.2714
     71  CB        31.8620   -5.9030  -14.3710 C.3    39  SER39       0.2130
     72  OG        32.6870   -5.1580  -13.4800 O.3    39  SER39      -0.2179
     73  N         31.0680   -6.4670  -11.5820 N.am   40  THR40      -0.1936
     74  CA        30.3180   -6.2850  -10.3500 C.3    40  THR40       0.2028
     75  C         29.1070   -5.3050  -10.5480 C.2    40  THR40       0.2642
     76  O         29.1010   -4.4100  -11.4200 O.2    40  THR40      -0.2714
     77  CB        31.2110   -5.6470   -9.2680 C.3    40  THR40       0.1808
     78  OG1       31.8420   -4.5140   -9.8950 O.3    40  THR40      -0.2208
     79  CG2       32.2500   -6.6540   -8.7340 C.3    40  THR40       0.0379
     80  N         28.0770   -5.5480   -9.7570 N.am   41  ALA41      -0.1963
     81  CA        26.8330   -4.7560   -9.6860 C.3    41  ALA41       0.1728
     82  C         26.9480   -3.5060   -8.8130 C.2    41  ALA41       0.2616
     83  O         26.1760   -2.5770   -9.0220 O.2    41  ALA41      -0.2715
     84  CB        25.6860   -5.6530   -9.1530 C.3    41  ALA41       0.0334
     85  N         27.8020   -3.5420   -7.7880 N.am   42  GLU42      -0.1977
     86  CA        27.9200   -2.4550   -6.8230 C.3    42  GLU42       0.1602
     87  C         29.3900   -2.0590   -6.5440 C.2    42  GLU42       0.2287
     88  O         30.2830   -2.8900   -6.5830 O.2    42  GLU42      -0.2864
     89  CB        27.2380   -2.8150   -5.5010 C.3    42  GLU42       0.0415
     90  CG        25.7440   -3.2100   -5.5680 C.3    42  GLU42       0.1163
     91  CD        24.8050   -2.1360   -6.1180 C.2    42  GLU42       0.3649
     92  OE1       25.1600   -0.9640   -6.2030 O.co2  42  GLU42      -0.2457
     93  OE2       23.6500   -2.4910   -6.4440 O.co2  42  GLU42      -0.2457
     94  N         32.3190   -4.2340   -4.4820 N.3    45  GLN45      -0.1245
     95  CA        31.7660   -5.5780   -4.2580 C.3    45  GLN45       0.1566
     96  C         32.9390   -6.5420   -4.2360 C.2    45  GLN45       0.2260
     97  O         33.7440   -6.5560   -5.1600 O.2    45  GLN45      -0.2867
     98  CB        30.8840   -5.9270   -5.4300 C.3    45  GLN45       0.0367
     99  CG        30.1490   -7.2420   -5.2960 C.3    45  GLN45       0.0905
    100  CD        29.1410   -7.3780   -6.4670 C.2    45  GLN45       0.2608
    101  OE1       28.5600   -6.3830   -6.9240 O.2    45  GLN45      -0.2717
    102  NE2       28.8890   -8.6150   -6.9050 N.am   45  GLN45      -0.0878
    103  N         32.7930   -9.9490   -3.9470 N.3    47  ALA47      -0.1231
    104  CA        32.5510  -11.3360   -4.4070 C.3    47  ALA47       0.1694
    105  C         31.3540  -11.3480   -5.3200 C.2    47  ALA47       0.2592
    106  O         30.4860  -10.4400   -5.2850 O.2    47  ALA47      -0.2718
    107  CB        32.2700  -12.2650   -3.2260 C.3    47  ALA47       0.0304
    108  N         31.2860  -12.3750   -6.1740 N.am   48  VAL48      -0.1966
    109  CA        30.1120  -12.4840   -7.0890 C.3    48  VAL48       0.1727
    110  C         29.5760  -13.9190   -6.9630 C.2    48  VAL48       0.2617
    111  O         30.3330  -14.8360   -6.6050 O.2    48  VAL48      -0.2715
    112  CB        30.4690  -12.2250   -8.5840 C.3    48  VAL48       0.0290
    113  CG1       30.7300  -10.7350   -8.8340 C.3    48  VAL48       0.0023
    114  CG2       31.6690  -13.0960   -9.0360 C.3    48  VAL48       0.0023
    115  N         28.2780  -14.1040   -7.1620 N.am   49  THR49      -0.1937
    116  CA        27.7190  -15.4330   -7.1800 C.3    49  THR49       0.2028
    117  C         27.4670  -15.7370   -8.6710 C.2    49  THR49       0.2642
    118  O         26.9280  -14.8870   -9.3860 O.2    49  THR49      -0.2714
    119  CB        26.3850  -15.4960   -6.4350 C.3    49  THR49       0.1808
    120  OG1       26.6580  -15.3150   -5.0480 O.3    49  THR49      -0.2208
    121  CG2       25.7200  -16.9000   -6.6360 C.3    49  THR49       0.0379
    122  N         27.9640  -16.8950   -9.0960 N.am   50  ILE50      -0.1963
    123  CA        27.7180  -17.4120  -10.4470 C.3    50  ILE50       0.1727
    124  C         26.5870  -18.4740  -10.2790 C.2    50  ILE50       0.2616
    125  O         26.8280  -19.6090   -9.8480 O.2    50  ILE50      -0.2715
    126  CB        28.9690  -18.1010  -11.0290 C.3    50  ILE50       0.0290
    127  CG1       30.2260  -17.1460  -11.0760 C.3    50  ILE50       0.0022
    128  CG2       28.6730  -18.6490  -12.4360 C.3    50  ILE50       0.0023
    129  CD1       29.9440  -15.8580  -11.7700 C.3    50  ILE50       0.0001
    130  N         25.3710  -18.0790  -10.6330 N.am   51  HIS51      -0.1973
    131  CA        24.1910  -18.9930  -10.5160 C.3    51  HIS51       0.1656
    132  C         23.8790  -19.4500  -11.9220 C.2    51  HIS51       0.2291
    133  O         23.5520  -18.6550  -12.8230 O.2    51  HIS51      -0.2864
    134  CB        23.0480  -18.1890   -9.9260 C.3    51  HIS51       0.0771
    135  CG        21.7760  -18.9410   -9.7410 C.ar   51  HIS51       0.0820
    136  ND1       20.5490  -18.2910   -9.6340 N.ar   51  HIS51      -0.2267
    137  CD2       21.5050  -20.3170   -9.6300 C.ar   51  HIS51       0.1154
    138  CE1       19.5690  -19.2320   -9.4790 C.ar   51  HIS51       0.1986
    139  NE2       20.1710  -20.4560   -9.4210 N.ar   51  HIS51      -0.2212
    140  N         25.5450  -23.4510   -8.4040 N.3    68  GLN68      -0.1245
    141  CA        25.9980  -22.0690   -8.0670 C.3    68  GLN68       0.1566
    142  C         27.2910  -22.1490   -7.3650 C.2    68  GLN68       0.2260
    143  O         27.5410  -23.1030   -6.5730 O.2    68  GLN68      -0.2867
    144  CB        24.9450  -21.2000   -7.2810 C.3    68  GLN68       0.0367
    145  CG        24.6450  -21.7640   -5.8550 C.3    68  GLN68       0.0905
    146  CD        23.7400  -20.8930   -4.9740 C.2    68  GLN68       0.2608
    147  OE1       22.5580  -21.2090   -4.7580 O.2    68  GLN68      -0.2717
    148  NE2       24.2850  -19.8420   -4.4360 N.am   68  GLN68      -0.0878
    149  N         30.5290  -19.2340   -5.6750 N.3    70  ASN70      -0.1240
    150  CA        30.9700  -17.8480   -5.4580 C.3    70  ASN70       0.1653
    151  C         32.3960  -17.6670   -5.8710 C.2    70  ASN70       0.2266
    152  O         33.2120  -18.5910   -5.7280 O.2    70  ASN70      -0.2867
    153  CB        30.8530  -17.5820   -3.9600 C.3    70  ASN70       0.1155
    154  CG        29.3880  -17.5760   -3.5380 C.2    70  ASN70       0.2627
    155  OD1       28.5020  -17.3110   -4.3580 O.2    70  ASN70      -0.2716
    156  ND2       29.1270  -17.8720   -2.2840 N.am   70  ASN70      -0.0877
    157  N         35.3270  -14.9880   -4.7700 N.3    72  ASP72      -0.1239
    158  CA        35.6220  -13.9540   -3.7820 C.3    72  ASP72       0.1674
    159  C         36.9540  -13.2880   -4.1440 C.2    72  ASP72       0.2266
    160  O         37.6020  -13.6780   -5.1070 O.2    72  ASP72      -0.2867
    161  CB        35.7900  -14.5660   -2.3780 C.3    72  ASP72       0.1410
    162  CG        34.6430  -15.4740   -1.9560 C.2    72  ASP72       0.3668
    163  OD1       33.4670  -15.2070   -2.2730 O.co2  72  ASP72      -0.2456
    164  OD2       34.9250  -16.4640   -1.2380 O.co2  72  ASP72      -0.2456
    165  N         31.8320    0.0690   -9.4190 N.3    79  ARG79      -0.1231
    166  CA        31.0040   -1.0100  -10.0170 C.3    79  ARG79       0.1694
    167  C         31.2530   -1.0810  -11.5250 C.2    79  ARG79       0.2592
    168  O         31.4750   -0.0400  -12.1980 O.2    79  ARG79      -0.2718
    169  CB        29.4980   -0.7310   -9.7540 C.3    79  ARG79       0.0321
    170  CG        28.9280    0.5370  -10.4250 C.3    79  ARG79       0.0489
    171  CD        27.5260    0.9030   -9.8840 C.3    79  ARG79       0.2205
    172  NE        27.0680    2.2670  -10.2880 N.pl3  79  ARG79      -0.0865
    173  CZ        26.6160    3.2390   -9.4570 C.cat  79  ARG79       0.5346
    174  NH1       26.4830    3.0420   -8.1250 N.pl3  79  ARG79       0.1354
    175  NH2       26.2420    4.4290   -9.9710 N.pl3  79  ARG79       0.1354
    176  N         31.1970   -2.2870  -12.1070 N.am   80  GLY80      -0.1957
    177  CA        31.4020   -2.3740  -13.5620 C.3    80  GLY80       0.1869
    178  C         32.8410   -2.3580  -14.1080 C.2    80  GLY80       0.2309
    179  O         33.0700   -2.5890  -15.3240 O.2    80  GLY80      -0.2863
    180  N         35.4490  -10.1590  -14.8790 N.3    84  ILE84      -0.1245
    181  CA        35.2780  -11.5400  -14.4210 C.3    84  ILE84       0.1561
    182  C         34.9100  -12.3920  -15.6380 C.2    84  ILE84       0.2260
    183  O         33.7900  -12.2560  -16.1620 O.2    84  ILE84      -0.2867
    184  CB        34.1080  -11.7060  -13.3900 C.3    84  ILE84       0.0252
    185  CG1       34.2400  -10.7300  -12.1850 C.3    84  ILE84       0.0019
    186  CG2       34.0040  -13.1830  -12.9110 C.3    84  ILE84       0.0019
    187  CD1       35.5590  -10.8890  -11.4310 C.3    84  ILE84       0.0001
    188  N         33.6340  -15.5170  -17.4410 N.3    86  VAL86      -0.1245
    189  CA        32.9050  -16.7660  -17.2100 C.3    86  VAL86       0.1561
    190  C         32.9660  -17.6300  -18.4800 C.2    86  VAL86       0.2260
    191  O         32.6890  -17.1400  -19.5650 O.2    86  VAL86      -0.2867
    192  CB        31.4340  -16.4340  -16.8300 C.3    86  VAL86       0.0252
    193  CG1       30.6040  -17.7050  -16.6260 C.3    86  VAL86       0.0019
    194  CG2       31.4330  -15.5730  -15.5540 C.3    86  VAL86       0.0019
    195  N         17.7750   -1.3600  -12.0560 N.3   149  ASN149     -0.1240
    196  CA        19.2290   -1.3870  -11.8020 C.3   149  ASN149      0.1653
    197  C         19.8000    0.0430  -11.5860 C.2   149  ASN149      0.2266
    198  O         20.6700    0.2330  -10.7340 O.2   149  ASN149     -0.2867
    199  CB        20.0340   -2.1920  -12.8700 C.3   149  ASN149      0.1155
    200  CG        19.7750   -3.6940  -12.7790 C.2   149  ASN149      0.2627
    201  OD1       19.2230   -4.1550  -11.7830 O.2   149  ASN149     -0.2716
    202  ND2       20.1780   -4.4500  -13.7920 N.am  149  ASN149     -0.0877
    203  N         21.4920    1.3760   -8.0640 N.3   153  HIS153     -0.1241
    204  CA        22.7900    2.0740   -8.0420 C.3   153  HIS153      0.1621
    205  C         22.7430    3.4250   -7.3690 C.2   153  HIS153      0.2264
    206  O         23.6440    3.7380   -6.5500 O.2   153  HIS153     -0.2867
    207  CB        23.2870    2.2480   -9.4300 C.3   153  HIS153      0.0745
    208  CG        23.8080    0.9520  -10.0330 C.ar  153  HIS153      0.0817
    209  ND1       23.9440    0.7860  -11.3600 N.ar  153  HIS153     -0.2268
    210  CD2       24.2190   -0.2410   -9.4360 C.ar  153  HIS153      0.1154
    211  CE1       24.4320   -0.4490  -11.6120 C.ar  153  HIS153      0.1986
    212  NE2       24.6160   -1.0700  -10.4260 N.ar  153  HIS153     -0.2212
@<TRIPOS>BOND
     1    48    46   am
     2    45    46    1
     3    45    44    1
     4    46    47    2
     5    44    41    1
     6    41    40    1
     7    41    42    1
     8    55    53    1
     9    49    42   am
    10    49    50    1
    11    42    43    2
    12    39    37    1
    13    35    34    1
    14    35    36    2
    15    53    50    1
    16    53    54    1
    17    34    37    1
    18    34    33    1
    19   191   190    2
    20    50    51    1
    21    52    51    2
    22    37    38    1
    23    51    56   am
    24    66    64   ar
    25    66    65   ar
    26   190   189    1
    27    64    62   ar
    28    65    63   ar
    29    62    61   ar
    30   188   189    1
    31    56    57    1
    32   189   192    1
    33     1     2    1
    34    63    61   ar
    35   192   193    1
    36   192   194    1
    37    61    60    1
    38    57    60    1
    39    57    58    1
    40   183   182    2
    41     4     3    2
    42    23    22    1
    43     6     8    1
    44     6     5    1
    45    24    22    1
    46   182   181    1
    47     2     3    1
    48     2     5    1
    49    58    59    2
    50    58    67   am
    51     7     5    1
    52   179   178    2
    53     3     9   am
    54    22    19    1
    55   180   181    1
    56    67    68    1
    57   181   184    1
    58    71    68    1
    59    71    72    1
    60   178   177    1
    61     9    10    1
    62    18    19    1
    63    18    11   am
    64    68    69    1
    65   202   200   am
    66    19    20    1
    67   177   176    1
    68    10    11    1
    69    10    13    1
    70   184   186    1
    71   184   185    1
    72    11    12    2
    73    28    27    2
    74    20    21    2
    75    20    25   am
    76   199   200    1
    77   199   196    1
    78   133   132    2
    79   200   201    2
    80    25    26    1
    81    69    70    2
    82    69    73   am
    83   128   126    1
    84   168   167    2
    85   185   187    1
    86   176   167   am
    87    27    26    1
    88   195   196    1
    89    13    14    1
    90   132   131    1
    91   196   197    1
    92    29    26    1
    93    29    30    1
    94   129   127    1
    95    14    15    1
    96   211   209   ar
    97   211   212   ar
    98   197   198    2
    99    73    74    1
   100   167   166    1
   101    76    75    2
   102   209   208   ar
   103    31    30    1
   104    31    32    1
   105   127   126    1
   106   126   123    1
   107   130   131    1
   108   130   124   am
   109    75    74    1
   110    75    80   am
   111   131   134    1
   112   123   124    1
   113   123   122    1
   114   212   210   ar
   115   170   171    1
   116   170   169    1
   117    15    17   ar
   118    15    16   ar
   119    74    77    1
   120   172   171    1
   121   172   173    2
   122   124   125    2
   123   208   210   ar
   124   208   207    1
   125   166   169    1
   126   166   165    1
   127   175   173    1
   128   134   135    1
   129    78    77    1
   130    80    81    1
   131   135   136   ar
   132   135   137   ar
   133    81    84    1
   134    81    82    1
   135   136   138   ar
   136   137   139   ar
   137   138   139   ar
   138   173   174    1
   139   207   204    1
   140   118   117    2
   141    77    79    1
   142   122   117   am
   143   114   112    1
   144    83    82    2
   145   113   112    1
   146    82    85   am
   147   117   116    1
   148   112   109    1
   149   140   141    1
   150   141   142    1
   151   141   144    1
   152   203   204    1
   153   204   205    1
   154    85    86    1
   155   205   206    2
   156   142   143    2
   157   144   145    1
   158   116   115    1
   159   116   119    1
   160   115   110   am
   161   109   110    1
   162   109   108    1
   163   110   111    2
   164   101   100    2
   165   102   100   am
   166    86    87    1
   167    86    89    1
   168   121   119    1
   169    88    87    2
   170   100    99    1
   171    93    91   ar
   172   119   120    1
   173    92    91   ar
   174   108   105   am
   175    91    90    1
   176   151   152    2
   177   151   150    1
   178   145   146    1
   179   149   150    1
   180    90    89    1
   181   150   153    1
   182    98    99    1
   183    98    95    1
   184   105   106    2
   185   105   104    1
   186    97    96    2
   187   160   159    2
   188   146   147    2
   189   146   148   am
   190   157   158    1
   191    94    95    1
   192   104   103    1
   193   104   107    1
   194   155   154    2
   195    95    96    1
   196   159   158    1
   197   153   154    1
   198   158   161    1
   199   154   156   am
   200   161   162    1
   201   163   162   ar
   202   162   164   ar
