@<TRIPOS>MOLECULE
tmp/4eznA00.pdb
 192 187 0 0 0
SMALL
GASTEIGER

@<TRIPOS>ATOM
      1  N          6.8030  -33.0470   -1.7740 N.3    13  ILE13      -0.1231
      2  CA         6.5900  -33.4150   -3.1610 C.3    13  ILE13       0.1692
      3  C          6.1980  -32.3030   -4.0440 C.2    13  ILE13       0.2592
      4  O          5.6660  -31.2570   -3.5960 O.2    13  ILE13      -0.2718
      5  CB         5.5600  -34.5890   -3.2960 C.3    13  ILE13       0.0266
      6  CG1        4.1910  -34.2050   -2.7000 C.3    13  ILE13       0.0019
      7  CG2        6.0200  -35.8280   -2.5500 C.3    13  ILE13       0.0020
      8  CD1        3.1430  -35.2550   -3.0860 C.3    13  ILE13       0.0001
      9  N          6.3970  -32.5490   -5.3700 N.am   14  GLU14      -0.1966
     10  CA         5.8870  -31.5430   -6.3570 C.3    14  GLU14       0.1733
     11  C          4.3750  -31.6790   -6.5210 C.2    14  GLU14       0.2617
     12  O          3.8610  -32.8170   -6.6470 O.2    14  GLU14      -0.2715
     13  CB         6.5910  -31.6530   -7.7070 C.3    14  GLU14       0.0429
     14  CG         6.0810  -30.6070   -8.7010 C.3    14  GLU14       0.1163
     15  CD         6.8670  -30.6600  -10.0100 C.2    14  GLU14       0.3649
     16  OE1        7.6430  -31.6030  -10.2270 O.co2  14  GLU14      -0.2457
     17  OE2        6.7460  -29.7240  -10.7960 O.co2  14  GLU14      -0.2457
     18  N          3.6720  -30.5710   -6.4980 N.am   15  THR15      -0.1937
     19  CA         2.2700  -30.5740   -6.7360 C.3    15  THR15       0.2028
     20  C          1.8770  -29.6720   -7.9250 C.2    15  THR15       0.2642
     21  O          2.6580  -28.9660   -8.4200 O.2    15  THR15      -0.2714
     22  CB         1.4760  -30.1780   -5.4930 C.3    15  THR15       0.1808
     23  OG1        1.8180  -28.8720   -5.1070 O.3    15  THR15      -0.2208
     24  CG2        1.7210  -31.1300   -4.3420 C.3    15  THR15       0.0379
     25  N          0.6210  -29.7030   -8.3060 N.am   16  MET16      -0.1962
     26  CA         0.1640  -29.1790   -9.5600 C.3    16  MET16       0.1736
     27  C          0.6490  -27.7570   -9.7380 C.2    16  MET16       0.2617
     28  O          0.5670  -26.9870   -8.8670 O.2    16  MET16      -0.2715
     29  CB        -1.3550  -29.1590   -9.5440 C.3    16  MET16       0.0427
     30  CG        -1.9780  -28.3650  -10.6570 C.3    16  MET16       0.0599
     31  SD        -3.7790  -28.2930  -10.5500 S.3    16  MET16      -0.1393
     32  CE        -4.0190  -27.8180   -8.8760 C.3    16  MET16       0.0692
     33  N          1.1920  -27.4500  -10.8970 N.am   17  GLY17      -0.1940
     34  CA         1.7020  -26.1400  -11.1640 C.3    17  GLY17       0.2014
     35  C          3.1360  -25.8340  -10.8400 C.2    17  GLY17       0.2639
     36  O          3.5580  -24.7500  -11.0670 O.2    17  GLY17      -0.2714
     37  N          3.8530  -26.8190  -10.3500 N.am   18  GLY18      -0.1954
     38  CA         5.3400  -26.7330  -10.1050 C.3    18  GLY18       0.1869
     39  C          5.6380  -26.1820   -8.7110 C.2    18  GLY18       0.2309
     40  O          6.6660  -25.5290   -8.5060 O.2    18  GLY18      -0.2863
     41  N          5.2540  -28.9370   -2.0580 N.3    21  THR21      -0.1218
     42  CA         4.3930  -29.0370   -0.9130 C.3    21  THR21       0.1862
     43  C          5.1000  -29.8650    0.1690 C.2    21  THR21       0.2287
     44  O          5.4040  -31.0320   -0.0620 O.2    21  THR21      -0.2866
     45  CB         3.0920  -29.7170   -1.3300 C.3    21  THR21       0.1770
     46  OG1        2.4150  -28.8160   -2.2170 O.3    21  THR21      -0.2211
     47  CG2        2.1670  -30.0370   -0.0400 C.3    21  THR21       0.0375
     48  N         -0.1150  -37.5250    4.1560 N.3    36  GLN36      -0.1231
     49  CA        -1.0710  -36.4840    3.7790 C.3    36  GLN36       0.1698
     50  C         -1.7400  -37.0510    2.5540 C.2    36  GLN36       0.2592
     51  O         -1.0640  -37.7120    1.7650 O.2    36  GLN36      -0.2718
     52  CB        -0.3740  -35.1880    3.4000 C.3    36  GLN36       0.0381
     53  CG        -1.2650  -34.0800    2.8650 C.3    36  GLN36       0.0905
     54  CD        -0.5350  -32.7150    2.7710 C.2    36  GLN36       0.2608
     55  OE1        0.5220  -32.5280    3.3770 O.2    36  GLN36      -0.2717
     56  NE2       -1.0760  -31.8000    1.9550 N.am   36  GLN36      -0.0878
     57  N         -3.0440  -36.7920    2.4060 N.am   37  VAL37      -0.1966
     58  CA        -3.7600  -37.2340    1.1620 C.3    37  VAL37       0.1727
     59  C         -3.7500  -36.1910    0.0670 C.2    37  VAL37       0.2616
     60  O         -3.9860  -34.9990    0.3370 O.2    37  VAL37      -0.2715
     61  CB        -5.2080  -37.6250    1.5190 C.3    37  VAL37       0.0290
     62  CG1       -5.9900  -38.0780    0.2770 C.3    37  VAL37       0.0023
     63  CG2       -5.1950  -38.7400    2.6100 C.3    37  VAL37       0.0023
     64  N         -3.4760  -36.6180   -1.1630 N.am   38  PHE38      -0.1960
     65  CA        -3.4450  -35.7650   -2.3150 C.3    38  PHE38       0.1771
     66  C         -4.5010  -36.3170   -3.3030 C.2    38  PHE38       0.2620
     67  O         -5.0190  -37.4380   -3.1030 O.2    38  PHE38      -0.2715
     68  CB        -2.0660  -35.8190   -2.9640 C.3    38  PHE38       0.0574
     69  CG        -0.9990  -35.1210   -2.1190 C.ar   38  PHE38      -0.0200
     70  CD1       -0.3800  -35.8030   -1.0750 C.ar   38  PHE38      -0.0042
     71  CD2       -0.7650  -33.7520   -2.2360 C.ar   38  PHE38      -0.0042
     72  CE1        0.5480  -35.1490   -0.2560 C.ar   38  PHE38      -0.0003
     73  CE2        0.1160  -33.1020   -1.3820 C.ar   38  PHE38      -0.0003
     74  CZ         0.7980  -33.8180   -0.4000 C.ar   38  PHE38      -0.0000
     75  N         -4.8420  -35.5510   -4.3120 N.am   39  SER39      -0.1936
     76  CA        -5.7650  -36.0780   -5.3440 C.3    39  SER39       0.2055
     77  C         -5.2630  -35.6980   -6.7580 C.2    39  SER39       0.2644
     78  O         -4.1560  -35.1390   -6.9460 O.2    39  SER39      -0.2714
     79  CB        -7.2170  -35.5780   -5.1080 C.3    39  SER39       0.2130
     80  OG        -8.0820  -36.3780   -5.9420 O.3    39  SER39      -0.2179
     81  N         -6.0220  -36.0860   -7.7580 N.am   40  THR40      -0.1936
     82  CA        -5.6720  -35.7310   -9.1310 C.3    40  THR40       0.2028
     83  C         -6.0560  -34.3420   -9.4670 C.2    40  THR40       0.2642
     84  O         -7.0870  -33.8110   -9.0520 O.2    40  THR40      -0.2714
     85  CB        -6.3430  -36.6560  -10.1480 C.3    40  THR40       0.1808
     86  OG1       -7.7040  -36.8070   -9.7270 O.3    40  THR40      -0.2208
     87  CG2       -5.6760  -38.0710  -10.1010 C.3    40  THR40       0.0379
     88  N         -5.2270  -33.7780  -10.3310 N.am   41  ALA41      -0.1963
     89  CA        -5.4030  -32.4150  -10.7930 C.3    41  ALA41       0.1728
     90  C         -6.4710  -32.2230  -11.8770 C.2    41  ALA41       0.2616
     91  O         -7.0730  -31.1350  -11.9200 O.2    41  ALA41      -0.2715
     92  CB        -4.0340  -31.9020  -11.3000 C.3    41  ALA41       0.0334
     93  N         -6.7050  -33.2380  -12.7560 N.am   42  GLU42      -0.1963
     94  CA        -7.6860  -33.1230  -13.8530 C.3    42  GLU42       0.1733
     95  C         -8.6070  -34.3460  -13.8800 C.2    42  GLU42       0.2616
     96  O         -8.2890  -35.3670  -13.2760 O.2    42  GLU42      -0.2715
     97  CB        -6.9750  -33.0370  -15.2330 C.3    42  GLU42       0.0429
     98  CG        -6.3920  -31.6430  -15.5450 C.3    42  GLU42       0.1163
     99  CD        -7.3930  -30.4860  -15.2770 C.2    42  GLU42       0.3649
    100  OE1       -8.6240  -30.6440  -15.5410 O.co2  42  GLU42      -0.2457
    101  OE2       -6.9550  -29.4260  -14.7600 O.co2  42  GLU42      -0.2457
    102  N         -9.7120  -34.2470  -14.5950 N.am   43  ASP43      -0.1971
    103  CA       -10.6400  -35.3970  -14.7180 C.3    43  ASP43       0.1709
    104  C         -9.9520  -36.5800  -15.4030 C.2    43  ASP43       0.2293
    105  O         -9.1190  -36.3720  -16.2940 O.2    43  ASP43      -0.2864
    106  CB       -11.9010  -35.0340  -15.4840 C.3    43  ASP43       0.1436
    107  CG       -12.8820  -34.1890  -14.6590 C.2    43  ASP43       0.3671
    108  OD1      -12.7220  -33.9860  -13.4140 O.co2  43  ASP43      -0.2456
    109  OD2      -13.8400  -33.7060  -15.2890 O.co2  43  ASP43      -0.2456
    110  N         -7.6250  -38.8030  -14.6900 N.3    45  GLN45      -0.1231
    111  CA        -6.1990  -39.0260  -14.5790 C.3    45  GLN45       0.1698
    112  C         -5.9590  -40.4210  -13.9420 C.2    45  GLN45       0.2593
    113  O         -6.3670  -40.6770  -12.8070 O.2    45  GLN45      -0.2718
    114  CB        -5.6070  -37.8890  -13.7200 C.3    45  GLN45       0.0381
    115  CG        -4.0980  -37.9820  -13.5820 C.3    45  GLN45       0.0905
    116  CD        -3.5240  -36.7390  -12.9090 C.2    45  GLN45       0.2608
    117  OE1       -4.1870  -35.6830  -12.8100 O.2    45  GLN45      -0.2717
    118  NE2       -2.2360  -36.8340  -12.5240 N.am   45  GLN45      -0.0878
    119  N         -5.2480  -41.2930  -14.6580 N.am   46  SER46      -0.1938
    120  CA        -5.0550  -42.6560  -14.2310 C.3    46  SER46       0.2055
    121  C         -3.6440  -42.9260  -13.6590 C.2    46  SER46       0.2643
    122  O         -3.3580  -44.0160  -13.1740 O.2    46  SER46      -0.2714
    123  CB        -5.2600  -43.5980  -15.4460 C.3    46  SER46       0.2130
    124  OG        -5.2940  -44.9410  -14.9840 O.3    46  SER46      -0.2179
    125  N         -2.7880  -41.8950  -13.6750 N.am   47  ALA47      -0.1963
    126  CA        -1.3980  -42.0710  -13.2060 C.3    47  ALA47       0.1728
    127  C         -0.9480  -40.7470  -12.6210 C.2    47  ALA47       0.2616
    128  O         -1.3250  -39.6890  -13.1280 O.2    47  ALA47      -0.2715
    129  CB        -0.4490  -42.5260  -14.3170 C.3    47  ALA47       0.0334
    130  N         -0.2700  -40.8190  -11.4770 N.am   48  VAL48      -0.1963
    131  CA         0.3380  -39.6740  -10.8920 C.3    48  VAL48       0.1727
    132  C          1.8520  -39.9260  -10.6960 C.2    48  VAL48       0.2617
    133  O          2.3300  -41.0860  -10.6090 O.2    48  VAL48      -0.2715
    134  CB        -0.3420  -39.2720   -9.5500 C.3    48  VAL48       0.0290
    135  CG1       -1.8240  -38.9420   -9.7710 C.3    48  VAL48       0.0023
    136  CG2       -0.1660  -40.3390   -8.4890 C.3    48  VAL48       0.0023
    137  N          2.5970  -38.8240  -10.6490 N.am   49  THR49      -0.1937
    138  CA         4.0540  -38.8600  -10.3890 C.3    49  THR49       0.2028
    139  C          4.3130  -38.2510   -8.9960 C.2    49  THR49       0.2642
    140  O          3.7840  -37.1940   -8.6730 O.2    49  THR49      -0.2714
    141  CB         4.8330  -38.1120  -11.4770 C.3    49  THR49       0.1808
    142  OG1        4.6180  -38.8300  -12.6830 O.3    49  THR49      -0.2208
    143  CG2        6.3630  -38.2120  -11.2030 C.3    49  THR49       0.0379
    144  N          5.0570  -38.9890   -8.1710 N.am   50  ILE50      -0.1963
    145  CA         5.5010  -38.5490   -6.8380 C.3    50  ILE50       0.1727
    146  C          6.9720  -38.1440   -6.9910 C.2    50  ILE50       0.2616
    147  O          7.8490  -39.0370   -7.1360 O.2    50  ILE50      -0.2715
    148  CB         5.3520  -39.7090   -5.8180 C.3    50  ILE50       0.0290
    149  CG1        3.9300  -40.3300   -5.7800 C.3    50  ILE50       0.0022
    150  CG2        5.7780  -39.2210   -4.4200 C.3    50  ILE50       0.0023
    151  CD1        2.8180  -39.3440   -5.4280 C.3    50  ILE50       0.0001
    152  N          7.2120  -36.8310   -7.0430 N.am   51  HIS51      -0.1973
    153  CA         8.5220  -36.3270   -7.1590 C.3    51  HIS51       0.1656
    154  C          8.9790  -35.7900   -5.7990 C.2    51  HIS51       0.2291
    155  O          8.4430  -34.8410   -5.3190 O.2    51  HIS51      -0.2864
    156  CB         8.5270  -35.2720   -8.2550 C.3    51  HIS51       0.0771
    157  CG         9.8740  -34.7880   -8.5460 C.ar   51  HIS51       0.0820
    158  ND1       10.1040  -33.6010   -9.1230 N.ar   51  HIS51      -0.2267
    159  CD2       11.1330  -35.3130   -8.1700 C.ar   51  HIS51       0.1154
    160  CE1       11.4530  -33.4060   -9.1890 C.ar   51  HIS51       0.1986
    161  NE2       12.0620  -34.4610   -8.5980 N.ar   51  HIS51      -0.2212
    162  N        -11.7600  -35.0160  -11.1340 N.3    79  ARG79      -0.1231
    163  CA       -10.6870  -34.3760  -10.3990 C.3    79  ARG79       0.1694
    164  C        -11.0990  -34.3000   -8.9270 C.2    79  ARG79       0.2592
    165  O        -12.2880  -34.0800   -8.6410 O.2    79  ARG79      -0.2718
    166  CB       -10.4260  -33.0100  -11.0570 C.3    79  ARG79       0.0321
    167  CG       -10.4290  -31.8030  -10.1590 C.3    79  ARG79       0.0489
    168  CD       -10.7750  -30.5270  -10.9380 C.3    79  ARG79       0.2205
    169  NE       -10.1630  -29.3840  -10.2450 N.pl3  79  ARG79      -0.0865
    170  CZ       -10.6890  -28.7210   -9.2100 C.cat  79  ARG79       0.5346
    171  NH1      -11.8890  -29.0440   -8.7240 N.pl3  79  ARG79       0.1354
    172  NH2      -10.0160  -27.6920   -8.6810 N.pl3  79  ARG79       0.1354
    173  N        -10.1710  -34.5890   -8.0280 N.am   80  GLY80      -0.1957
    174  CA       -10.4190  -34.4570   -6.6010 C.3    80  GLY80       0.1869
    175  C        -11.0200  -35.7030   -5.9810 C.2    80  GLY80       0.2309
    176  O        -11.0240  -35.8310   -4.7470 O.2    80  GLY80      -0.2863
    177  N         -5.0980  -40.2820   -2.7010 N.3    84  ILE84      -0.1245
    178  CA        -3.7420  -40.8150   -2.7210 C.3    84  ILE84       0.1561
    179  C         -2.9660  -40.3920   -1.4700 C.2    84  ILE84       0.2260
    180  O         -2.5650  -39.2400   -1.3140 O.2    84  ILE84      -0.2867
    181  CB        -3.0200  -40.3400   -3.9710 C.3    84  ILE84       0.0252
    182  CG1       -3.8460  -40.8110   -5.1910 C.3    84  ILE84       0.0019
    183  CG2       -1.6280  -40.9760   -4.0300 C.3    84  ILE84       0.0019
    184  CD1       -3.7260  -39.9310   -6.3900 C.3    84  ILE84       0.0001
    185  N         -7.4720  -22.7770  -14.5730 N.3   152  ASP152     -0.1239
    186  CA        -7.4880  -23.9500  -15.4280 C.3   152  ASP152      0.1674
    187  C         -8.7130  -24.8150  -15.0780 C.2   152  ASP152      0.2266
    188  O         -9.3260  -25.3730  -15.9540 O.2   152  ASP152     -0.2867
    189  CB        -6.1700  -24.7370  -15.3460 C.3   152  ASP152      0.1410
    190  CG        -6.3080  -26.0520  -14.6030 C.2   152  ASP152      0.3668
    191  OD1       -6.3470  -26.0200  -13.3470 O.co2 152  ASP152     -0.2456
    192  OD2       -6.4100  -27.1160  -15.2650 O.co2 152  ASP152     -0.2456
@<TRIPOS>BOND
     1   105   104    2
     2   188   187    2
     3    98    99    1
     4    98    97    1
     5   100    99   ar
     6   106   103    1
     7   106   107    1
     8   123   124    1
     9   123   120    1
    10   186   189    1
    11   186   187    1
    12   186   185    1
    13   104   103    1
    14   189   190    1
    15   109   107   ar
    16    99   101   ar
    17   192   190   ar
    18    97    94    1
    19   103   102    1
    20   110   111    1
    21   107   108   ar
    22   119   120    1
    23   119   112   am
    24   190   191   ar
    25   102    95   am
    26   111   112    1
    27   111   114    1
    28   129   126    1
    29   120   121    1
    30   112   113    2
    31    95    94    1
    32    95    96    2
    33    94    93    1
    34   114   115    1
    35   125   121   am
    36   125   126    1
    37   121   122    2
    38   115   116    1
    39   126   127    1
    40   128   127    2
    41   116   117    2
    42   116   118   am
    43    93    90   am
    44   142   141    1
    45   127   130   am
    46    91    90    2
    47    90    89    1
    48   141   143    1
    49   141   138    1
    50   130   131    1
    51    92    89    1
    52    34    33    1
    53    34    35    1
    54   162   163    1
    55    36    35    2
    56   166   163    1
    57   166   167    1
    58   168   169    1
    59   168   167    1
    60    33    27   am
    61   131   132    1
    62   131   134    1
    63    35    37   am
    64    17    15   ar
    65    89    88    1
    66   132   137   am
    67   132   133    2
    68    30    31    1
    69    30    29    1
    70   137   138    1
    71    31    32    1
    72   163   164    1
    73   138   139    1
    74    37    38    1
    75    88    83   am
    76   169   170    2
    77    16    15   ar
    78    85    87    1
    79    85    86    1
    80    85    82    1
    81    38    39    1
    82    15    14    1
    83   135   134    1
    84    27    26    1
    85    27    28    2
    86    26    29    1
    87    26    25    1
    88   134   136    1
    89    83    82    1
    90    83    84    2
    91   170   171    1
    92   170   172    1
    93   160   158   ar
    94   160   161   ar
    95    82    81    1
    96   158   157   ar
    97   139   140    2
    98   139   144   am
    99   164   165    2
   100   164   173   am
   101    39    40    2
   102    14    13    1
   103   161   159   ar
   104   157   156    1
   105   157   159   ar
   106    21    20    2
   107    25    20   am
   108   156   153    1
   109   144   145    1
   110   173   174    1
   111    20    19    1
   112    81    77   am
   113    13    10    1
   114   153   152    1
   115   153   154    1
   116   147   146    2
   117   152   146   am
   118   146   145    1
   119    78    77    2
   120   145   148    1
   121    77    76    1
   122    19    18    1
   123    19    22    1
   124    12    11    2
   125   174   175    1
   126    11    18   am
   127    11    10    1
   128   184   182    1
   129    10     9    1
   130   175   176    2
   131    80    79    1
   132   148   149    1
   133   148   150    1
   134   154   155    2
   135   149   151    1
   136    22    23    1
   137    22    24    1
   138     9     3   am
   139    76    79    1
   140    76    75    1
   141   182   181    1
   142    75    66   am
   143     3     4    2
   144     3     2    1
   145   183   181    1
   146   181   178    1
   147    66    67    2
   148    66    65    1
   149     5     2    1
   150     5     6    1
   151     5     7    1
   152     2     1    1
   153     8     6    1
   154    68    65    1
   155    68    69    1
   156   178   177    1
   157   178   179    1
   158    65    64    1
   159    71    69   ar
   160    71    73   ar
   161    46    45    1
   162    69    70   ar
   163    41    42    1
   164   179   180    2
   165    73    74   ar
   166    45    42    1
   167    45    47    1
   168    64    59   am
   169    70    72   ar
   170    42    43    1
   171    74    72   ar
   172    44    43    2
   173    59    60    2
   174    59    58    1
   175    62    61    1
   176    58    61    1
   177    58    57    1
   178    61    63    1
   179    51    50    2
   180    56    54   am
   181    57    50   am
   182    50    49    1
   183    54    53    1
   184    54    55    2
   185    53    52    1
   186    52    49    1
   187    49    48    1
