@<TRIPOS>MOLECULE
tmp/4ezpA00.pdb
 207 198 0 0 0
SMALL
GASTEIGER

@<TRIPOS>ATOM
      1  N        -32.2360   33.0810  -20.5840 N.3    13  ILE13      -0.1231
      2  CA       -32.4520   33.5750  -19.2200 C.3    13  ILE13       0.1692
      3  C        -32.8850   32.4460  -18.3250 C.2    13  ILE13       0.2592
      4  O        -33.3710   31.3590  -18.7950 O.2    13  ILE13      -0.2718
      5  CB       -33.4890   34.7080  -19.0820 C.3    13  ILE13       0.0266
      6  CG1      -34.8880   34.2560  -19.5850 C.3    13  ILE13       0.0019
      7  CG2      -33.0100   35.9540  -19.8380 C.3    13  ILE13       0.0020
      8  CD1      -35.8910   35.3390  -19.2170 C.3    13  ILE13       0.0001
      9  N        -32.6520   32.6620  -17.0330 N.am   14  GLU14      -0.1966
     10  CA       -33.2070   31.6540  -16.0420 C.3    14  GLU14       0.1733
     11  C        -34.7120   31.7920  -15.9010 C.2    14  GLU14       0.2617
     12  O        -35.2590   32.8980  -15.7200 O.2    14  GLU14      -0.2715
     13  CB       -32.5250   31.8160  -14.6990 C.3    14  GLU14       0.0429
     14  CG       -33.0400   30.8550  -13.6470 C.3    14  GLU14       0.1163
     15  CD       -32.1930   30.8720  -12.3960 C.2    14  GLU14       0.3649
     16  OE1      -31.4270   31.8590  -12.1510 O.co2  14  GLU14      -0.2457
     17  OE2      -32.2990   29.8900  -11.6170 O.co2  14  GLU14      -0.2457
     18  N        -35.3890   30.6460  -15.9070 N.am   15  THR15      -0.1937
     19  CA       -36.8560   30.6920  -15.6810 C.3    15  THR15       0.2028
     20  C        -37.2010   29.7720  -14.4720 C.2    15  THR15       0.2642
     21  O        -36.3430   29.0540  -13.9540 O.2    15  THR15      -0.2714
     22  CB       -37.6410   30.2430  -16.9160 C.3    15  THR15       0.1808
     23  OG1      -37.1490   28.9520  -17.3470 O.3    15  THR15      -0.2208
     24  CG2      -37.4310   31.3060  -18.0770 C.3    15  THR15       0.0379
     25  N        -38.4740   29.8120  -14.0620 N.am   16  MET16      -0.1962
     26  CA       -38.9880   29.1710  -12.8430 C.3    16  MET16       0.1736
     27  C        -38.4490   27.7450  -12.6750 C.2    16  MET16       0.2617
     28  O        -38.5920   26.9370  -13.6110 O.2    16  MET16      -0.2715
     29  CB       -40.5140   29.1320  -12.9200 C.3    16  MET16       0.0427
     30  CG       -41.1120   28.4790  -11.6710 C.3    16  MET16       0.0599
     31  SD       -42.9110   28.3090  -12.0190 S.3    16  MET16      -0.1393
     32  CE       -43.4060   27.6150  -10.4300 C.3    16  MET16       0.0692
     33  N        -37.8510   27.4650  -11.5270 N.am   17  GLY17      -0.1955
     34  CA       -37.4380   26.0920  -11.2400 C.3    17  GLY17       0.1869
     35  C        -35.9730   25.8760  -11.5950 C.2    17  GLY17       0.2309
     36  O        -35.4880   24.7420  -11.4400 O.2    17  GLY17      -0.2863
     37  N        -33.8630   29.0010  -20.2590 N.3    21  THR21      -0.1218
     38  CA       -34.7270   29.1040  -21.4690 C.3    21  THR21       0.1862
     39  C        -33.9800   29.9470  -22.5410 C.2    21  THR21       0.2287
     40  O        -33.6130   31.1290  -22.2810 O.2    21  THR21      -0.2866
     41  CB       -36.0110   29.8000  -21.0490 C.3    21  THR21       0.1770
     42  OG1      -36.7430   28.8860  -20.2270 O.3    21  THR21      -0.2211
     43  CG2      -36.8740   30.2090  -22.3290 C.3    21  THR21       0.0375
     44  N        -39.0990   37.4800  -26.4530 N.3    36  GLN36      -0.1231
     45  CA       -40.1180   36.5220  -26.0120 C.3    36  GLN36       0.1698
     46  C        -40.7930   37.0920  -24.8040 C.2    36  GLN36       0.2592
     47  O        -40.1630   37.7430  -23.9930 O.2    36  GLN36      -0.2718
     48  CB       -39.4740   35.2190  -25.6130 C.3    36  GLN36       0.0381
     49  CG       -40.4980   34.2720  -25.0590 C.3    36  GLN36       0.0905
     50  CD       -40.0110   32.8360  -24.9660 C.2    36  GLN36       0.2608
     51  OE1      -40.5300   32.0210  -24.1570 O.2    36  GLN36      -0.2717
     52  NE2      -39.0490   32.4960  -25.7890 N.am   36  GLN36      -0.0878
     53  N        -42.1090   36.8440  -24.7050 N.am   37  VAL37      -0.1966
     54  CA       -42.8460   37.3370  -23.5200 C.3    37  VAL37       0.1727
     55  C        -42.8820   36.2690  -22.4340 C.2    37  VAL37       0.2616
     56  O        -43.1800   35.0850  -22.7140 O.2    37  VAL37      -0.2715
     57  CB       -44.3050   37.7040  -23.9160 C.3    37  VAL37       0.0290
     58  CG1      -45.0730   38.1290  -22.6560 C.3    37  VAL37       0.0023
     59  CG2      -44.2600   38.8130  -24.9710 C.3    37  VAL37       0.0023
     60  N        -42.5840   36.6900  -21.2040 N.am   38  PHE38      -0.1960
     61  CA       -42.6360   35.8200  -20.0570 C.3    38  PHE38       0.1771
     62  C        -43.6370   36.3840  -19.0790 C.2    38  PHE38       0.2620
     63  O        -44.0360   37.5590  -19.1660 O.2    38  PHE38      -0.2715
     64  CB       -41.2430   35.8160  -19.3600 C.3    38  PHE38       0.0574
     65  CG       -40.1810   35.1780  -20.2290 C.ar   38  PHE38      -0.0200
     66  CD1      -39.4780   35.9080  -21.1740 C.ar   38  PHE38      -0.0042
     67  CD2      -39.9090   33.8310  -20.0830 C.ar   38  PHE38      -0.0042
     68  CE1      -38.5690   35.2490  -22.0150 C.ar   38  PHE38      -0.0003
     69  CE2      -38.9430   33.2020  -20.8890 C.ar   38  PHE38      -0.0003
     70  CZ       -38.2880   33.9120  -21.8560 C.ar   38  PHE38      -0.0000
     71  N        -44.0750   35.5620  -18.1680 N.am   39  SER39      -0.1936
     72  CA       -44.9620   36.1100  -17.1180 C.3    39  SER39       0.2055
     73  C        -44.4680   35.6500  -15.7440 C.2    39  SER39       0.2644
     74  O        -43.3740   35.1170  -15.5740 O.2    39  SER39      -0.2714
     75  CB       -46.4080   35.5940  -17.3240 C.3    39  SER39       0.2130
     76  OG       -47.2780   36.3980  -16.5200 O.3    39  SER39      -0.2179
     77  N        -45.2530   35.9230  -14.7250 N.am   40  THR40      -0.1936
     78  CA       -44.9350   35.4940  -13.3130 C.3    40  THR40       0.2028
     79  C        -45.6450   34.1730  -12.9520 C.2    40  THR40       0.2642
     80  O        -46.8340   33.9820  -13.3500 O.2    40  THR40      -0.2714
     81  CB       -45.4300   36.6020  -12.3480 C.3    40  THR40       0.1808
     82  OG1      -46.7710   36.9180  -12.7100 O.3    40  THR40      -0.2208
     83  CG2      -44.5920   37.9880  -12.4670 C.3    40  THR40       0.0379
     84  N        -45.0360   33.3030  -12.0980 N.am   41  ALA41      -0.1963
     85  CA       -45.7320   32.0390  -11.7030 C.3    41  ALA41       0.1728
     86  C        -46.6460   32.0660  -10.5200 C.2    41  ALA41       0.2616
     87  O        -47.4780   31.1230  -10.3340 O.2    41  ALA41      -0.2715
     88  CB       -44.7600   30.9120  -11.4770 C.3    41  ALA41       0.0334
     89  N        -46.5050   33.1120   -9.6880 N.am   42  GLU42      -0.1977
     90  CA       -47.3060   33.1720   -8.5190 C.3    42  GLU42       0.1602
     91  C        -48.0110   34.5230   -8.5180 C.2    42  GLU42       0.2287
     92  O        -47.5370   35.4980   -9.1500 O.2    42  GLU42      -0.2864
     93  CB       -46.4990   32.9620   -7.2440 C.3    42  GLU42       0.0415
     94  CG       -45.5360   34.0940   -6.9530 C.3    42  GLU42       0.1163
     95  CD       -44.8420   33.9080   -5.5800 C.2    42  GLU42       0.3649
     96  OE1      -44.6250   34.9100   -4.9030 O.co2  42  GLU42      -0.2457
     97  OE2      -44.4640   32.7760   -5.2110 O.co2  42  GLU42      -0.2457
     98  N        -46.7130   39.0250   -7.7980 N.3    45  GLN45      -0.1245
     99  CA       -45.3140   39.1890   -7.8940 C.3    45  GLN45       0.1566
    100  C        -45.0950   40.5630   -8.5310 C.2    45  GLN45       0.2260
    101  O        -45.5340   40.7880   -9.6540 O.2    45  GLN45      -0.2867
    102  CB       -44.7400   38.0340   -8.7140 C.3    45  GLN45       0.0367
    103  CG       -43.2500   38.1980   -8.8840 C.3    45  GLN45       0.0905
    104  CD       -42.5660   36.9100   -9.3490 C.2    45  GLN45       0.2608
    105  OE1      -43.2230   35.8430   -9.5620 O.2    45  GLN45      -0.2717
    106  NE2      -41.2070   37.0080   -9.4890 N.am   45  GLN45      -0.0878
    107  N        -41.8440   42.1130   -8.6760 N.3    47  ALA47      -0.1231
    108  CA       -40.4830   42.2450   -9.2000 C.3    47  ALA47       0.1694
    109  C        -40.0240   40.9030   -9.7480 C.2    47  ALA47       0.2592
    110  O        -40.3860   39.8400   -9.2120 O.2    47  ALA47      -0.2718
    111  CB       -39.4930   42.7170   -8.1480 C.3    47  ALA47       0.0304
    112  N        -39.2680   40.9610  -10.8290 N.am   48  VAL48      -0.1966
    113  CA       -38.6740   39.8130  -11.4320 C.3    48  VAL48       0.1727
    114  C        -37.2000   40.0950  -11.6930 C.2    48  VAL48       0.2617
    115  O        -36.7340   41.2320  -11.7670 O.2    48  VAL48      -0.2715
    116  CB       -39.3080   39.4540  -12.7820 C.3    48  VAL48       0.0290
    117  CG1      -40.8070   39.0540  -12.5870 C.3    48  VAL48       0.0023
    118  CG2      -39.1260   40.5580  -13.8310 C.3    48  VAL48       0.0023
    119  N        -36.4520   39.0030  -11.7470 N.am   49  THR49      -0.1937
    120  CA       -35.0120   39.0880  -12.0210 C.3    49  THR49       0.2028
    121  C        -34.7680   38.4340  -13.3640 C.2    49  THR49       0.2642
    122  O        -35.2610   37.2990  -13.6220 O.2    49  THR49      -0.2714
    123  CB       -34.2240   38.3360  -10.9630 C.3    49  THR49       0.1808
    124  OG1      -34.3980   39.0770   -9.7340 O.3    49  THR49      -0.2208
    125  CG2      -32.6610   38.3200  -11.2850 C.3    49  THR49       0.0379
    126  N        -33.9910   39.1440  -14.1890 N.am   50  ILE50      -0.1963
    127  CA       -33.5900   38.6850  -15.5480 C.3    50  ILE50       0.1727
    128  C        -32.1290   38.2460  -15.4020 C.2    50  ILE50       0.2616
    129  O        -31.2390   39.1320  -15.2620 O.2    50  ILE50      -0.2715
    130  CB       -33.7070   39.8170  -16.6020 C.3    50  ILE50       0.0290
    131  CG1      -35.1400   40.4420  -16.6530 C.3    50  ILE50       0.0022
    132  CG2      -33.3640   39.2330  -17.9720 C.3    50  ILE50       0.0023
    133  CD1      -36.2380   39.4050  -16.7090 C.3    50  ILE50       0.0001
    134  N        -31.8740   36.9660  -15.3880 N.am   51  HIS51      -0.1973
    135  CA       -30.5580   36.4540  -15.2400 C.3    51  HIS51       0.1656
    136  C        -30.0980   35.9010  -16.5710 C.2    51  HIS51       0.2291
    137  O        -30.6680   34.9550  -17.0740 O.2    51  HIS51      -0.2864
    138  CB       -30.5270   35.4090  -14.1490 C.3    51  HIS51       0.0771
    139  CG       -29.1840   34.9120  -13.8850 C.ar   51  HIS51       0.0820
    140  ND1      -28.9480   33.7890  -13.2660 N.ar   51  HIS51      -0.2267
    141  CD2      -27.9630   35.4190  -14.2730 C.ar   51  HIS51       0.1154
    142  CE1      -27.6250   33.5940  -13.2310 C.ar   51  HIS51       0.1986
    143  NE2      -27.0420   34.6100  -13.8360 N.ar   51  HIS51      -0.2212
    144  N        -50.9990   35.1890  -11.2920 N.3    79  ARG79      -0.1231
    145  CA       -50.0130   34.4280  -11.9890 C.3    79  ARG79       0.1694
    146  C        -50.4710   34.3900  -13.4720 C.2    79  ARG79       0.2592
    147  O        -51.6860   34.2480  -13.7680 O.2    79  ARG79      -0.2718
    148  CB       -50.0840   33.0150  -11.3920 C.3    79  ARG79       0.0321
    149  CG       -49.9480   31.8950  -12.3830 C.3    79  ARG79       0.0489
    150  CD       -50.3610   30.5920  -11.7000 C.3    79  ARG79       0.2205
    151  NE       -50.3050   29.4680  -12.6470 N.pl3  79  ARG79      -0.0865
    152  CZ       -49.2470   28.6680  -12.7530 C.cat  79  ARG79       0.5346
    153  NH1      -48.1610   28.9060  -11.9950 N.pl3  79  ARG79       0.1354
    154  NH2      -49.2590   27.6270  -13.6030 N.pl3  79  ARG79       0.1354
    155  N        -49.5340   34.6770  -14.3330 N.am   80  GLY80      -0.1957
    156  CA       -49.7320   34.5740  -15.7690 C.3    80  GLY80       0.1869
    157  C        -50.2640   35.8440  -16.3970 C.2    80  GLY80       0.2309
    158  O        -50.2520   35.9630  -17.6390 O.2    80  GLY80      -0.2863
    159  N        -47.1480   40.7180  -18.6570 N.3    83  GLN83      -0.1231
    160  CA       -46.5590   40.3700  -19.9690 C.3    83  GLN83       0.1698
    161  C        -45.2080   41.0720  -19.9950 C.2    83  GLN83       0.2592
    162  O        -45.1350   42.2770  -20.2620 O.2    83  GLN83      -0.2718
    163  CB       -47.4840   40.8630  -21.0700 C.3    83  GLN83       0.0381
    164  CG       -48.9300   40.3120  -20.9480 C.3    83  GLN83       0.0905
    165  CD       -49.0100   38.8200  -21.1360 C.2    83  GLN83       0.2608
    166  OE1      -48.6480   38.3380  -22.2030 O.2    83  GLN83      -0.2717
    167  NE2      -49.5230   38.0690  -20.1290 N.am   83  GLN83      -0.0878
    168  N        -44.1510   40.3290  -19.6840 N.am   84  ILE84      -0.1980
    169  CA       -42.8120   40.9500  -19.5790 C.3    84  ILE84       0.1595
    170  C        -42.0680   40.5230  -20.8400 C.2    84  ILE84       0.2287
    171  O        -41.6770   39.3380  -21.0090 O.2    84  ILE84      -0.2864
    172  CB       -42.0760   40.4660  -18.3340 C.3    84  ILE84       0.0276
    173  CG1      -42.9390   40.9120  -17.1190 C.3    84  ILE84       0.0022
    174  CG2      -40.6710   41.1100  -18.2770 C.3    84  ILE84       0.0022
    175  CD1      -42.8350   40.0140  -15.9680 C.3    84  ILE84       0.0001
    176  N        -39.0020   40.1950  -23.0930 N.3    86  VAL86      -0.1245
    177  CA       -37.5260   40.1780  -22.9290 C.3    86  VAL86       0.1561
    178  C        -36.9360   40.1180  -24.2760 C.2    86  VAL86       0.2260
    179  O        -37.3340   39.2940  -25.1040 O.2    86  VAL86      -0.2867
    180  CB       -37.1070   38.9430  -22.0750 C.3    86  VAL86       0.0252
    181  CG1      -35.5290   38.8080  -22.0550 C.3    86  VAL86       0.0019
    182  CG2      -37.6790   39.0640  -20.6320 C.3    86  VAL86       0.0019
    183  N        -45.4080   45.2160  -20.1280 N.3   103  LYS103     -0.1245
    184  CA       -46.3520   45.8450  -21.0620 C.3   103  LYS103      0.1561
    185  C        -47.3590   46.6930  -20.3420 C.2   103  LYS103      0.2260
    186  O        -47.6850   47.8190  -20.8170 O.2   103  LYS103     -0.2867
    187  CB       -46.9870   44.7710  -21.9310 C.3   103  LYS103      0.0271
    188  CG       -45.9750   44.3110  -22.9680 C.3   103  LYS103      0.0035
    189  CD       -46.6860   43.5570  -24.0880 C.3   103  LYS103      0.0206
    190  CE       -45.7370   42.5640  -24.7420 C.3   103  LYS103      0.1093
    191  NZ       -46.4880   41.9650  -25.8870 N.3   103  LYS103     -0.1314
    192  N        -43.2720   22.5620  -11.3890 N.3   149  ASN149     -0.1240
    193  CA       -43.9330   23.8590  -11.5310 C.3   149  ASN149      0.1653
    194  C        -45.4170   23.6600  -11.6110 C.2   149  ASN149      0.2266
    195  O        -46.1680   24.4560  -11.0320 O.2   149  ASN149     -0.2867
    196  CB       -43.4250   24.6180  -12.7450 C.3   149  ASN149      0.1155
    197  CG       -41.9430   25.0190  -12.5970 C.2   149  ASN149      0.2627
    198  OD1      -41.3920   25.0810  -11.4630 O.2   149  ASN149     -0.2716
    199  ND2      -41.2930   25.3410  -13.7510 N.am  149  ASN149     -0.0877
    200  N        -46.4800   22.7120   -7.9310 N.3   152  ASP152     -0.1239
    201  CA       -46.4770   23.9020   -7.0690 C.3   152  ASP152      0.1674
    202  C        -47.7260   24.7170   -7.3480 C.2   152  ASP152      0.2266
    203  O        -48.3290   25.2330   -6.4070 O.2   152  ASP152     -0.2867
    204  CB       -45.2670   24.7810   -7.3400 C.3   152  ASP152      0.1410
    205  CG       -43.9760   24.2230   -6.6970 C.2   152  ASP152      0.3668
    206  OD1      -44.0440   23.2600   -5.9090 O.co2 152  ASP152     -0.2456
    207  OD2      -42.8520   24.7130   -7.0150 O.co2 152  ASP152     -0.2456
@<TRIPOS>BOND
     1    44    45    1
     2    45    48    1
     3    45    46    1
     4   191   190    1
     5    52    50   am
     6    48    49    1
     7   179   178    2
     8    49    50    1
     9    59    57    1
    10    50    51    2
    11    46    53   am
    12    46    47    2
    13   190   189    1
    14    53    54    1
    15   178   177    1
    16   189   188    1
    17    57    54    1
    18    57    58    1
    19    54    55    1
    20   176   177    1
    21   188   187    1
    22   177   180    1
    23    56    55    2
    24    39    40    2
    25    39    38    1
    26    55    60   am
    27    43    41    1
    28   166   165    2
    29   180   181    1
    30   180   182    1
    31    68    70   ar
    32    68    66   ar
    33   187   184    1
    34    70    69   ar
    35    38    41    1
    36    38    37    1
    37    60    61    1
    38    66    65   ar
    39   165   164    1
    40   165   167   am
    41   163   164    1
    42   163   160    1
    43   184   185    1
    44   184   183    1
    45    41    42    1
    46   171   170    2
    47    69    67   ar
    48   170   169    1
    49   186   185    2
    50     1     2    1
    51   162   161    2
    52    65    67   ar
    53    65    64    1
    54    61    64    1
    55    61    62    1
    56   161   160    1
    57   161   168   am
    58   160   159    1
    59     7     5    1
    60   168   169    1
    61     6     8    1
    62     6     5    1
    63   169   172    1
    64     2     5    1
    65     2     3    1
    66    63    62    2
    67    62    71   am
    68     4     3    2
    69   172   174    1
    70   172   173    1
    71     3     9   am
    72    71    72    1
    73    24    22    1
    74   132   130    1
    75   158   157    2
    76    23    22    1
    77    75    72    1
    78    75    76    1
    79   173   175    1
    80    72    73    1
    81   137   136    2
    82     9    10    1
    83    22    19    1
    84   133   131    1
    85   131   130    1
    86   130   127    1
    87   136   135    1
    88   157   156    1
    89    10    11    1
    90    10    13    1
    91    18    11   am
    92    18    19    1
    93    11    12    2
    94   156   155    1
    95    73    74    2
    96    73    77   am
    97    19    20    1
    98   127   128    1
    99   127   126    1
   100   128   134   am
   101   128   129    2
   102   134   135    1
   103   135   138    1
   104    77    78    1
   105    13    14    1
   106    20    25   am
   107    20    21    2
   108   155   146   am
   109   141   139   ar
   110   141   143   ar
   111   126   121   am
   112   138   139    1
   113    25    26    1
   114   139   140   ar
   115   143   142   ar
   116   118   116    1
   117   147   146    2
   118   199   197   am
   119    14    15    1
   120   122   121    2
   121    28    27    2
   122   154   152    1
   123   146   145    1
   124   121   120    1
   125    80    79    2
   126    78    79    1
   127    78    81    1
   128   140   142   ar
   129    79    84   am
   130    29    26    1
   131    29    30    1
   132    26    27    1
   133   116   117    1
   134   116   113    1
   135   152   151    2
   136   152   153    1
   137   196   197    1
   138   196   193    1
   139    82    81    1
   140    27    33   am
   141   151   150    1
   142   197   198    2
   143    83    81    1
   144    15    16   ar
   145    15    17   ar
   146   149   150    1
   147   149   148    1
   148    84    85    1
   149   120   119    1
   150   120   123    1
   151    31    30    1
   152    31    32    1
   153   145   148    1
   154   145   144    1
   155   115   114    2
   156   119   114   am
   157    85    88    1
   158    85    86    1
   159   114   113    1
   160   194   193    1
   161   194   195    2
   162    35    36    2
   163    35    34    1
   164   193   192    1
   165    33    34    1
   166   113   112    1
   167   125   123    1
   168   123   124    1
   169   112   109   am
   170    86    87    2
   171    86    89   am
   172   109   110    2
   173   109   108    1
   174    89    90    1
   175   101   100    2
   176   105   104    2
   177   106   104   am
   178   104   103    1
   179   108   107    1
   180   108   111    1
   181    92    91    2
   182   103   102    1
   183   102    99    1
   184   100    99    1
   185    90    91    1
   186    90    93    1
   187   200   201    1
   188    99    98    1
   189   202   201    1
   190   202   203    2
   191   204   201    1
   192   204   205    1
   193    93    94    1
   194   207   205   ar
   195    94    95    1
   196   205   206   ar
   197    95    97   ar
   198    95    96   ar
