@<TRIPOS>MOLECULE
tmp/4ezqA00.pdb
 210 200 0 0 0
SMALL
GASTEIGER

@<TRIPOS>ATOM
      1  N        -11.4410  -19.2980  -12.2870 N.3    13  ILE13      -0.1231
      2  CA       -11.7240  -20.3970  -11.3720 C.3    13  ILE13       0.1692
      3  C        -10.4410  -20.8570  -10.7140 C.2    13  ILE13       0.2592
      4  O         -9.3570  -20.6470  -11.2360 O.2    13  ILE13      -0.2718
      5  CB       -12.3950  -21.6250  -12.0290 C.3    13  ILE13       0.0266
      6  CG1      -11.4460  -22.3570  -12.9660 C.3    13  ILE13       0.0019
      7  CG2      -13.6700  -21.2440  -12.7330 C.3    13  ILE13       0.0020
      8  CD1      -12.0010  -23.7180  -13.3040 C.3    13  ILE13       0.0001
      9  N        -10.5900  -21.4550   -9.5380 N.am   14  GLU14      -0.1966
     10  CA        -9.4750  -21.9950   -8.8230 C.3    14  GLU14       0.1733
     11  C         -9.1250  -23.3460   -9.4340 C.2    14  GLU14       0.2617
     12  O        -10.0190  -24.1350   -9.7000 O.2    14  GLU14      -0.2715
     13  CB        -9.8280  -22.1840   -7.3550 C.3    14  GLU14       0.0429
     14  CG        -8.6400  -22.7930   -6.6540 C.3    14  GLU14       0.1163
     15  CD        -8.8900  -23.0150   -5.1830 C.2    14  GLU14       0.3649
     16  OE1      -10.0830  -22.9680   -4.7950 O.co2  14  GLU14      -0.2457
     17  OE2       -7.9180  -23.2060   -4.4350 O.co2  14  GLU14      -0.2457
     18  N         -7.8270  -23.5980   -9.7070 N.am   15  THR15      -0.1937
     19  CA        -7.3820  -24.8870  -10.2730 C.3    15  THR15       0.2028
     20  C         -6.3280  -25.4860   -9.3190 C.2    15  THR15       0.2642
     21  O         -5.8850  -24.8280   -8.4260 O.2    15  THR15      -0.2714
     22  CB        -6.7980  -24.7510  -11.6750 C.3    15  THR15       0.1808
     23  OG1       -5.8660  -23.6900  -11.6300 O.3    15  THR15      -0.2208
     24  CG2       -7.8940  -24.4010  -12.7400 C.3    15  THR15       0.0379
     25  N         -5.9550  -26.7430   -9.5220 N.am   16  MET16      -0.1962
     26  CA        -5.1460  -27.5120   -8.5910 C.3    16  MET16       0.1736
     27  C         -3.9250  -26.7610   -8.0510 C.2    16  MET16       0.2617
     28  O         -3.1710  -26.1840   -8.8240 O.2    16  MET16      -0.2715
     29  CB        -4.7530  -28.8230   -9.3060 C.3    16  MET16       0.0427
     30  CG        -4.1820  -29.9640   -8.4660 C.3    16  MET16       0.0599
     31  SD        -4.8880  -30.1950   -6.7970 S.3    16  MET16      -0.1393
     32  CE        -6.6410  -30.2760   -7.1790 C.3    16  MET16       0.0692
     33  N         -3.7190  -26.7810   -6.7370 N.am   17  GLY17      -0.1940
     34  CA        -2.6000  -26.0790   -6.1420 C.3    17  GLY17       0.2014
     35  C         -3.0030  -24.7310   -5.5840 C.2    17  GLY17       0.2639
     36  O         -2.2130  -24.0390   -4.9580 O.2    17  GLY17      -0.2714
     37  N         -4.2490  -24.3580   -5.8240 N.am   18  GLY18      -0.1954
     38  CA        -4.7790  -23.1100   -5.2770 C.3    18  GLY18       0.1869
     39  C         -4.4520  -21.8870   -6.1020 C.2    18  GLY18       0.2309
     40  O         -4.2400  -20.8310   -5.5580 O.2    18  GLY18      -0.2863
     41  N         -6.8610  -19.5300  -12.3830 N.3    21  THR21      -0.1218
     42  CA        -6.7520  -19.6000  -13.8170 C.3    21  THR21       0.1862
     43  C         -7.8050  -18.6960  -14.4430 C.2    21  THR21       0.2287
     44  O         -8.9890  -18.8000  -14.1800 O.2    21  THR21      -0.2866
     45  CB        -6.9220  -21.0440  -14.2870 C.3    21  THR21       0.1770
     46  OG1       -5.9150  -21.8410  -13.6590 O.3    21  THR21      -0.2211
     47  CG2       -6.7620  -21.1500  -15.8010 C.3    21  THR21       0.0375
     48  N        -12.9150  -23.2590  -21.6190 N.3    36  GLN36      -0.1231
     49  CA       -11.6610  -23.9980  -21.5670 C.3    36  GLN36       0.1698
     50  C        -11.9730  -25.3560  -20.9920 C.2    36  GLN36       0.2592
     51  O        -12.9210  -25.5030  -20.1960 O.2    36  GLN36      -0.2718
     52  CB       -10.7530  -23.2980  -20.5910 C.3    36  GLN36       0.0381
     53  CG        -9.2860  -23.4350  -20.7960 C.3    36  GLN36       0.0905
     54  CD        -8.6560  -22.1160  -20.4810 C.2    36  GLN36       0.2608
     55  OE1       -8.6630  -21.2000  -21.3180 O.2    36  GLN36      -0.2717
     56  NE2       -8.1790  -21.9680  -19.2540 N.am   36  GLN36      -0.0878
     57  N        -11.1360  -26.3270  -21.3190 N.am   37  VAL37      -0.1966
     58  CA       -11.3050  -27.6850  -20.8570 C.3    37  VAL37       0.1727
     59  C        -10.2920  -28.0230  -19.8120 C.2    37  VAL37       0.2616
     60  O         -9.1040  -27.8130  -19.9800 O.2    37  VAL37      -0.2715
     61  CB       -11.2330  -28.6790  -21.9900 C.3    37  VAL37       0.0290
     62  CG1      -11.5990  -30.0330  -21.4620 C.3    37  VAL37       0.0023
     63  CG2      -12.2390  -28.2970  -23.0310 C.3    37  VAL37       0.0023
     64  N        -10.8190  -28.4970  -18.6880 N.am   38  PHE38      -0.1960
     65  CA       -10.0690  -28.9130  -17.5210 C.3    38  PHE38       0.1771
     66  C        -10.2870  -30.4050  -17.3250 C.2    38  PHE38       0.2620
     67  O        -10.9160  -31.0390  -18.1430 O.2    38  PHE38      -0.2715
     68  CB       -10.5620  -28.1420  -16.3050 C.3    38  PHE38       0.0574
     69  CG       -10.3490  -26.6760  -16.4320 C.ar   38  PHE38      -0.0200
     70  CD1      -11.3580  -25.8540  -16.9130 C.ar   38  PHE38      -0.0042
     71  CD2       -9.1060  -26.1210  -16.1550 C.ar   38  PHE38      -0.0042
     72  CE1      -11.1650  -24.5130  -17.1090 C.ar   38  PHE38      -0.0003
     73  CE2       -8.9090  -24.7710  -16.3260 C.ar   38  PHE38      -0.0003
     74  CZ        -9.9450  -23.9600  -16.8010 C.ar   38  PHE38      -0.0000
     75  N         -9.7350  -30.9820  -16.2720 N.am   39  SER39      -0.1936
     76  CA        -9.8000  -32.4150  -16.0810 C.3    39  SER39       0.2055
     77  C         -9.6270  -32.7680  -14.6130 C.2    39  SER39       0.2644
     78  O         -9.6930  -31.8860  -13.7250 O.2    39  SER39      -0.2714
     79  CB        -8.7210  -33.1390  -16.8860 C.3    39  SER39       0.2130
     80  OG        -8.9340  -34.5590  -16.8920 O.3    39  SER39      -0.2179
     81  N         -9.4260  -34.0570  -14.3530 N.am   40  THR40      -0.1936
     82  CA        -9.3240  -34.5430  -12.9820 C.3    40  THR40       0.2028
     83  C         -7.8760  -34.6800  -12.5880 C.2    40  THR40       0.2642
     84  O         -7.0080  -34.8960  -13.4320 O.2    40  THR40      -0.2714
     85  CB       -10.0100  -35.9160  -12.8720 C.3    40  THR40       0.1808
     86  OG1       -9.6280  -36.7330  -13.9870 O.3    40  THR40      -0.2208
     87  CG2      -11.4930  -35.7560  -12.9260 C.3    40  THR40       0.0379
     88  N         -7.6220  -34.5820  -11.2930 N.am   41  ALA41      -0.1963
     89  CA        -6.2840  -34.7150  -10.7540 C.3    41  ALA41       0.1728
     90  C         -5.9630  -36.0930  -10.1970 C.2    41  ALA41       0.2616
     91  O         -4.7990  -36.4040   -9.9790 O.2    41  ALA41      -0.2715
     92  CB        -6.1010  -33.6860   -9.6350 C.3    41  ALA41       0.0334
     93  N         -6.9900  -36.8930   -9.9000 N.am   42  GLU42      -0.1977
     94  CA        -6.8070  -38.2030   -9.3020 C.3    42  GLU42       0.1602
     95  C         -7.5530  -39.2410  -10.1120 C.2    42  GLU42       0.2287
     96  O         -8.6100  -38.9640  -10.6660 O.2    42  GLU42      -0.2864
     97  CB        -7.2890  -38.2200   -7.8420 C.3    42  GLU42       0.0415
     98  CG        -6.9220  -36.9790   -7.0550 C.3    42  GLU42       0.1163
     99  CD        -6.8550  -37.1840   -5.5580 C.2    42  GLU42       0.3649
    100  OE1       -7.4960  -38.1210   -5.0650 O.co2  42  GLU42      -0.2457
    101  OE2       -6.1630  -36.3940   -4.8660 O.co2  42  GLU42      -0.2457
    102  N        -11.5710  -40.0510   -9.8580 N.3    45  GLN45      -0.1245
    103  CA       -12.2590  -38.8770   -9.3400 C.3    45  GLN45       0.1566
    104  C        -13.7010  -38.8370   -9.8840 C.2    45  GLN45       0.2260
    105  O        -13.9260  -39.0510  -11.1110 O.2    45  GLN45      -0.2867
    106  CB       -11.4870  -37.6280   -9.7280 C.3    45  GLN45       0.0367
    107  CG       -11.8040  -36.3450   -8.9690 C.3    45  GLN45       0.0905
    108  CD       -10.8150  -35.2150   -9.2930 C.2    45  GLN45       0.2608
    109  OE1       -9.6170  -35.4340   -9.3880 O.2    45  GLN45      -0.2717
    110  NE2      -11.3320  -33.9960   -9.4640 N.am   45  GLN45      -0.0878
    111  N        -16.0130  -36.1560   -8.9840 N.3    47  ALA47      -0.1231
    112  CA       -16.5320  -34.7840   -9.0260 C.3    47  ALA47       0.1694
    113  C        -15.3890  -33.7360   -9.0150 C.2    47  ALA47       0.2592
    114  O        -14.2510  -34.0620   -8.6590 O.2    47  ALA47      -0.2718
    115  CB       -17.5170  -34.5540   -7.8670 C.3    47  ALA47       0.0304
    116  N        -15.7040  -32.5000   -9.4540 N.am   48  VAL48      -0.1966
    117  CA       -14.8250  -31.3210   -9.4140 C.3    48  VAL48       0.1727
    118  C        -15.6390  -30.2230   -8.7780 C.2    48  VAL48       0.2617
    119  O        -16.8620  -30.0990   -9.0710 O.2    48  VAL48      -0.2715
    120  CB       -14.4800  -30.7440  -10.8120 C.3    48  VAL48       0.0290
    121  CG1      -13.4030  -31.5450  -11.5340 C.3    48  VAL48       0.0023
    122  CG2      -15.7360  -30.5300  -11.6390 C.3    48  VAL48       0.0023
    123  N        -14.9710  -29.4180   -7.9410 N.am   49  THR49      -0.1937
    124  CA       -15.5240  -28.1630   -7.4600 C.3    49  THR49       0.2028
    125  C        -15.1230  -27.0550   -8.4080 C.2    49  THR49       0.2642
    126  O        -13.9370  -26.8580   -8.6530 O.2    49  THR49      -0.2714
    127  CB       -15.0460  -27.8520   -6.0420 C.3    49  THR49       0.1808
    128  OG1      -15.5340  -28.8830   -5.1920 O.3    49  THR49      -0.2208
    129  CG2      -15.6100  -26.5450   -5.5190 C.3    49  THR49       0.0379
    130  N        -16.1040  -26.3260   -8.9420 N.am   50  ILE50      -0.1963
    131  CA       -15.7930  -25.1070   -9.6520 C.3    50  ILE50       0.1727
    132  C        -15.8300  -23.9410   -8.6630 C.2    50  ILE50       0.2616
    133  O        -16.8590  -23.6510   -8.0760 O.2    50  ILE50      -0.2715
    134  CB       -16.7260  -24.8640  -10.8360 C.3    50  ILE50       0.0290
    135  CG1      -16.7840  -26.0740  -11.7990 C.3    50  ILE50       0.0022
    136  CG2      -16.2550  -23.6830  -11.6830 C.3    50  ILE50       0.0023
    137  CD1      -15.4920  -26.8050  -12.0510 C.3    50  ILE50       0.0001
    138  N        -14.6980  -23.2700   -8.4740 N.am   51  HIS51      -0.1973
    139  CA       -14.6620  -22.0850   -7.5980 C.3    51  HIS51       0.1656
    140  C        -14.3550  -20.8180   -8.3690 C.2    51  HIS51       0.2291
    141  O        -13.2670  -20.6720   -8.8920 O.2    51  HIS51      -0.2864
    142  CB       -13.6960  -22.3470   -6.4770 C.3    51  HIS51       0.0771
    143  CG       -13.6110  -21.2380   -5.4940 C.ar   51  HIS51       0.0820
    144  ND1      -12.5240  -21.0250   -4.7550 N.ar   51  HIS51      -0.2267
    145  CD2      -14.5280  -20.2840   -5.1240 C.ar   51  HIS51       0.1154
    146  CE1      -12.7350  -19.9860   -3.9560 C.ar   51  HIS51       0.1986
    147  NE2      -13.9590  -19.5330   -4.1840 N.ar   51  HIS51      -0.2212
    148  N        -18.9780  -21.0170   -5.4020 N.3    68  GLN68      -0.1245
    149  CA       -18.5850  -22.2950   -6.0100 C.3    68  GLN68       0.1566
    150  C        -19.7430  -23.2920   -6.1110 C.2    68  GLN68       0.2260
    151  O        -20.7280  -23.1850   -5.3850 O.2    68  GLN68      -0.2867
    152  CB       -17.3880  -22.9260   -5.3080 C.3    68  GLN68       0.0367
    153  CG       -17.7000  -23.5190   -3.9650 C.3    68  GLN68       0.0905
    154  CD       -16.5820  -23.3400   -2.9870 C.2    68  GLN68       0.2608
    155  OE1      -15.4270  -23.6580   -3.2630 O.2    68  GLN68      -0.2717
    156  NE2      -16.9190  -22.8110   -1.8160 N.am   68  GLN68      -0.0878
    157  N        -20.2510  -27.7850   -7.3520 N.3    70  ASN70      -0.1240
    158  CA       -19.7100  -29.0710   -7.8140 C.3    70  ASN70       0.1653
    159  C        -20.4040  -29.5840   -9.0660 C.2    70  ASN70       0.2266
    160  O        -21.6180  -29.4180   -9.2210 O.2    70  ASN70      -0.2867
    161  CB       -19.9260  -30.1180   -6.7340 C.3    70  ASN70       0.1155
    162  CG       -19.4530  -29.6650   -5.3930 C.2    70  ASN70       0.2627
    163  OD1      -18.4020  -29.0450   -5.2770 O.2    70  ASN70      -0.2716
    164  ND2      -20.2370  -29.9370   -4.3700 N.am   70  ASN70      -0.0877
    165  N         -6.8130  -40.2890  -14.1450 N.3    79  ARG79      -0.1231
    166  CA        -6.6570  -38.8430  -13.9960 C.3    79  ARG79       0.1694
    167  C         -6.2850  -38.2310  -15.3300 C.2    79  ARG79       0.2592
    168  O         -5.4810  -38.8170  -16.0920 O.2    79  ARG79      -0.2718
    169  CB        -5.5740  -38.5170  -12.9580 C.3    79  ARG79       0.0321
    170  CG        -4.1600  -38.9590  -13.3470 C.3    79  ARG79       0.0489
    171  CD        -3.1290  -38.1260  -12.6390 C.3    79  ARG79       0.2205
    172  NE        -3.0040  -38.5560  -11.2520 N.pl3  79  ARG79      -0.0865
    173  CZ        -2.2650  -37.9190  -10.3420 C.cat  79  ARG79       0.5346
    174  NH1       -2.2160  -38.3820   -9.0930 N.pl3  79  ARG79       0.1354
    175  NH2       -1.5930  -36.8100  -10.6870 N.pl3  79  ARG79       0.1354
    176  N         -6.8960  -37.0780  -15.6170 N.am   80  GLY80      -0.1957
    177  CA        -6.5410  -36.2840  -16.7630 C.3    80  GLY80       0.1869
    178  C         -7.1990  -36.7100  -18.0490 C.2    80  GLY80       0.2309
    179  O         -6.9130  -36.1880  -19.1130 O.2    80  GLY80      -0.2863
    180  N        -13.7320  -31.6900  -18.8500 N.3    84  ILE84      -0.1245
    181  CA       -14.6770  -30.8880  -18.0770 C.3    84  ILE84       0.1561
    182  C        -14.5270  -29.5120  -18.6940 C.2    84  ILE84       0.2260
    183  O        -13.5040  -28.8840  -18.5150 O.2    84  ILE84      -0.2867
    184  CB       -14.3080  -30.8670  -16.5480 C.3    84  ILE84       0.0252
    185  CG1      -14.2540  -32.2700  -15.9640 C.3    84  ILE84       0.0019
    186  CG2      -15.2880  -30.0000  -15.7830 C.3    84  ILE84       0.0019
    187  CD1      -15.4980  -33.1370  -16.2250 C.3    84  ILE84       0.0001
    188  N        -15.3320  -25.7360  -19.0200 N.3    86  VAL86      -0.1245
    189  CA       -15.8430  -24.6480  -18.2270 C.3    86  VAL86       0.1561
    190  C        -16.0870  -23.3960  -19.0580 C.2    86  VAL86       0.2260
    191  O        -15.2060  -22.9330  -19.7860 O.2    86  VAL86      -0.2867
    192  CB       -14.9380  -24.3760  -17.0120 C.3    86  VAL86       0.0252
    193  CG1      -15.4740  -23.1990  -16.2340 C.3    86  VAL86       0.0019
    194  CG2      -14.9380  -25.5670  -16.0860 C.3    86  VAL86       0.0019
    195  N          2.9150  -29.5510   -9.2880 N.3   149  ASN149     -0.1240
    196  CA         2.0000  -30.3070  -10.1290 C.3   149  ASN149      0.1653
    197  C          2.7760  -31.1560  -11.1140 C.2   149  ASN149      0.2266
    198  O          2.3160  -32.2210  -11.4380 O.2   149  ASN149     -0.2867
    199  CB         0.9980  -29.4070  -10.8690 C.3   149  ASN149      0.1155
    200  CG        -0.0920  -28.7900   -9.9530 C.2   149  ASN149      0.2627
    201  OD1       -0.3340  -29.2460   -8.8270 O.2   149  ASN149     -0.2716
    202  ND2       -0.7490  -27.7490  -10.4470 N.am  149  ASN149     -0.0877
    203  N          4.0270  -34.0750   -9.0110 N.3   152  ASP152     -0.1239
    204  CA         2.9150  -34.9870   -8.7530 C.3   152  ASP152      0.1674
    205  C          2.5800  -35.8250   -9.9930 C.2   152  ASP152      0.2266
    206  O          2.3290  -37.0260   -9.9190 O.2   152  ASP152     -0.2867
    207  CB         1.7130  -34.1960   -8.2690 C.3   152  ASP152      0.1410
    208  CG         0.5870  -35.0830   -7.7670 C.2   152  ASP152      0.3668
    209  OD1        0.6400  -35.4620   -6.5760 O.co2 152  ASP152     -0.2456
    210  OD2       -0.3650  -35.3580   -8.5500 O.co2 152  ASP152     -0.2456
@<TRIPOS>BOND
     1    63    61    1
     2    61    62    1
     3    61    58    1
     4    48    49    1
     5    49    50    1
     6    49    52    1
     7    57    50   am
     8    57    58    1
     9    55    54    2
    10    50    51    2
    11    58    59    1
    12    53    52    1
    13    53    54    1
    14    54    56   am
    15    60    59    2
    16    59    64   am
    17   191   190    2
    18   179   178    2
    19   190   189    1
    20   188   189    1
    21   180   181    1
    22   182   183    2
    23   182   181    1
    24    64    65    1
    25   189   192    1
    26    67    66    2
    27   181   184    1
    28   178   177    1
    29    65    66    1
    30    65    68    1
    31    66    75   am
    32    72    70   ar
    33    72    74   ar
    34   192   193    1
    35   192   194    1
    36    70    69   ar
    37    80    79    1
    38    79    76    1
    39    74    73   ar
    40   177   176    1
    41   184   185    1
    42   184   186    1
    43    69    68    1
    44    69    71   ar
    45    73    71   ar
    46    75    76    1
    47   187   185    1
    48   168   167    2
    49    76    77    1
    50    47    45    1
    51   176   167   am
    52   167   166    1
    53    77    81   am
    54    77    78    2
    55    43    44    2
    56    43    42    1
    57    81    82    1
    58    45    42    1
    59    45    46    1
    60   165   166    1
    61   166   169    1
    62    86    85    1
    63    42    41    1
    64    84    83    2
    65   170   169    1
    66   170   171    1
    67     8     6    1
    68    82    85    1
    69    82    83    1
    70     6     5    1
    71    87    85    1
    72    24    22    1
    73     7     5    1
    74   171   172    1
    75    83    88   am
    76     1     2    1
    77   137   135    1
    78     5     2    1
    79   135   134    1
    80   136   134    1
    81    22    23    1
    82    22    19    1
    83   122   120    1
    84   121   120    1
    85   198   197    2
    86     2     3    1
    87    88    89    1
    88   172   173    2
    89     4     3    2
    90   197   196    1
    91   105   104    2
    92   199   196    1
    93   199   200    1
    94   134   131    1
    95   120   117    1
    96    89    90    1
    97    89    92    1
    98     3     9   am
    99   175   173    1
   100    96    95    2
   101   202   200   am
   102   173   174    1
   103    19    18    1
   104    19    20    1
   105    90    91    2
   106    90    93   am
   107   196   195    1
   108    95    94    1
   109   205   206    2
   110   205   204    1
   111   200   201    2
   112    93    94    1
   113   104   103    1
   114   102   103    1
   115   106   103    1
   116   106   107    1
   117    18    11   am
   118    12    11    2
   119   131   130    1
   120   131   132    1
   121     9    10    1
   122    25    20   am
   123    25    26    1
   124   110   108   am
   125   116   117    1
   126   116   113   am
   127    11    10    1
   128   117   118    1
   129   109   108    2
   130    20    21    2
   131    29    26    1
   132    29    30    1
   133    94    97    1
   134   108   107    1
   135   160   159    2
   136   119   118    2
   137   159   158    1
   138   112   113    1
   139   112   111    1
   140   112   115    1
   141   113   114    2
   142   203   204    1
   143   130   125   am
   144   141   140    2
   145    28    27    2
   146    10    13    1
   147   118   123   am
   148   204   207    1
   149   132   138   am
   150   132   133    2
   151   126   125    2
   152    26    27    1
   153   210   208   ar
   154   138   139    1
   155    30    31    1
   156   125   124    1
   157   140   139    1
   158   207   208    1
   159    27    33   am
   160   123   124    1
   161    97    98    1
   162   158   157    1
   163   158   161    1
   164   208   209   ar
   165   139   142    1
   166   124   127    1
   167    13    14    1
   168    32    31    1
   169    98    99    1
   170    33    34    1
   171   161   162    1
   172    14    15    1
   173   142   143    1
   174    34    35    1
   175   150   149    1
   176   150   151    2
   177    39    40    2
   178    39    38    1
   179   127   129    1
   180   127   128    1
   181   149   148    1
   182   149   152    1
   183    37    35   am
   184    37    38    1
   185    35    36    2
   186    99   100   ar
   187    99   101   ar
   188   143   145   ar
   189   143   144   ar
   190   162   163    2
   191   162   164   am
   192   152   153    1
   193    15    16   ar
   194    15    17   ar
   195   145   147   ar
   196   144   146   ar
   197   147   146   ar
   198   153   154    1
   199   155   154    2
   200   154   156   am
