@<TRIPOS>MOLECULE
tmp/4ezrA00.pdb
 189 181 0 0 0
SMALL
GASTEIGER

@<TRIPOS>ATOM
      1  N         57.9800   96.9400   30.7030 N.3    13  ILE13      -0.1231
      2  CA        58.2000   95.8670   29.7480 C.3    13  ILE13       0.1692
      3  C         56.9260   95.4590   29.0470 C.2    13  ILE13       0.2592
      4  O         55.8020   95.6250   29.5520 O.2    13  ILE13      -0.2718
      5  CB        58.8850   94.6110   30.3170 C.3    13  ILE13       0.0266
      6  CG1       58.0580   94.0270   31.4860 C.3    13  ILE13       0.0019
      7  CG2       60.2370   94.9520   30.9360 C.3    13  ILE13       0.0020
      8  CD1       58.4170   92.5300   31.6810 C.3    13  ILE13       0.0001
      9  N         57.1180   94.9020   27.8750 N.am   14  GLU14      -0.1966
     10  CA        56.0140   94.2700   27.1860 C.3    14  GLU14       0.1733
     11  C         55.6990   92.9270   27.8300 C.2    14  GLU14       0.2617
     12  O         56.6040   92.1050   28.0440 O.2    14  GLU14      -0.2715
     13  CB        56.3740   94.0770   25.7150 C.3    14  GLU14       0.0429
     14  CG        55.1700   93.4730   24.9840 C.3    14  GLU14       0.1163
     15  CD        55.4270   93.2770   23.4970 C.2    14  GLU14       0.3649
     16  OE1       56.5660   93.5150   23.0680 O.co2  14  GLU14      -0.2457
     17  OE2       54.5000   92.8420   22.7700 O.co2  14  GLU14      -0.2457
     18  N         54.4340   92.7270   28.2220 N.am   15  THR15      -0.1937
     19  CA        53.9840   91.3940   28.7170 C.3    15  THR15       0.2028
     20  C         52.9940   90.7500   27.7110 C.2    15  THR15       0.2642
     21  O         52.6250   91.3920   26.7270 O.2    15  THR15      -0.2714
     22  CB        53.4450   91.4740   30.1430 C.3    15  THR15       0.1808
     23  OG1       52.4170   92.4600   30.1600 O.3    15  THR15      -0.2208
     24  CG2       54.5550   92.0110   31.0230 C.3    15  THR15       0.0379
     25  N         52.5980   89.5070   27.9660 N.am   16  MET16      -0.1976
     26  CA        51.7690   88.6910   27.0740 C.3    16  MET16       0.1605
     27  C         50.5670   89.4700   26.5810 C.2    16  MET16       0.2287
     28  O         49.8110   89.9960   27.4230 O.2    16  MET16      -0.2864
     29  CB        51.2600   87.4850   27.8830 C.3    16  MET16       0.0413
     30  CG        50.4250   86.4280   27.1480 C.3    16  MET16       0.0598
     31  SD        49.8810   85.1690   28.3480 S.3    16  MET16      -0.1393
     32  CE        48.5080   84.3460   27.5340 C.3    16  MET16       0.0692
     33  N         50.9480   91.8690   24.2160 N.3    18  GLY18      -0.1225
     34  CA        51.4340   93.1480   23.6440 C.3    18  GLY18       0.1811
     35  C         51.0270   94.3800   24.4490 C.2    18  GLY18       0.2280
     36  O         50.7860   95.4560   23.9190 O.2    18  GLY18      -0.2866
     37  N         53.7000   96.8710   30.7630 N.3    21  THR21      -0.1203
     38  CA        53.4480   96.6820   32.1570 C.3    21  THR21       0.1994
     39  C         54.4770   97.5730   32.8100 C.2    21  THR21       0.2618
     40  O         55.6560   97.4180   32.5440 O.2    21  THR21      -0.2717
     41  CB        53.6720   95.2110   32.5910 C.3    21  THR21       0.1784
     42  OG1       52.6260   94.3990   32.0710 O.3    21  THR21      -0.2211
     43  CG2       53.6190   95.1010   34.1230 C.3    21  THR21       0.0376
     44  N         54.0490   98.4820   33.6900 N.am   22  THR22      -0.1952
     45  CA        54.9520   99.5130   34.1560 C.3    22  THR22       0.1897
     46  C         55.7320   98.9920   35.3270 C.2    22  THR22       0.2313
     47  O         55.1520   98.3880   36.2430 O.2    22  THR22      -0.2863
     48  CB        54.1400  100.7200   34.6320 C.3    22  THR22       0.1794
     49  OG1       53.5270  101.2860   33.4820 O.3    22  THR22      -0.2208
     50  CG2       55.0430  101.7880   35.3000 C.3    22  THR22       0.0378
     51  N         59.6070   93.2490   39.7070 N.3    36  GLN36      -0.1231
     52  CA        58.3960   92.4430   39.7840 C.3    36  GLN36       0.1698
     53  C         58.7380   91.1090   39.2330 C.2    36  GLN36       0.2592
     54  O         59.6210   91.0030   38.3720 O.2    36  GLN36      -0.2718
     55  CB        57.3080   93.0260   38.9140 C.3    36  GLN36       0.0381
     56  CG        56.8010   94.3520   39.4330 C.3    36  GLN36       0.0905
     57  CD        55.5860   94.8230   38.6860 C.2    36  GLN36       0.2608
     58  OE1       54.8010   94.0090   38.0990 O.2    36  GLN36      -0.2717
     59  NE2       55.4120   96.1410   38.6930 N.am   36  GLN36      -0.0878
     60  N         57.9730   90.1020   39.6220 N.am   37  VAL37      -0.1966
     61  CA        58.2650   88.7390   39.1590 C.3    37  VAL37       0.1727
     62  C         57.2440   88.3260   38.1360 C.2    37  VAL37       0.2616
     63  O         56.0500   88.5160   38.3410 O.2    37  VAL37      -0.2715
     64  CB        58.1880   87.7450   40.3260 C.3    37  VAL37       0.0290
     65  CG1       58.3840   86.3150   39.7920 C.3    37  VAL37       0.0023
     66  CG2       59.2320   88.0620   41.3740 C.3    37  VAL37       0.0023
     67  N         57.7360   87.8250   37.0030 N.am   38  PHE38      -0.1960
     68  CA        56.8940   87.3970   35.8800 C.3    38  PHE38       0.1771
     69  C         57.0810   85.8780   35.6380 C.2    38  PHE38       0.2620
     70  O         57.9480   85.2580   36.2540 O.2    38  PHE38      -0.2715
     71  CB        57.2880   88.2120   34.6620 C.3    38  PHE38       0.0574
     72  CG        56.9780   89.6810   34.8110 C.ar   38  PHE38      -0.0200
     73  CD1       57.9430   90.5620   35.2610 C.ar   38  PHE38      -0.0042
     74  CD2       55.7090   90.1520   34.5490 C.ar   38  PHE38      -0.0042
     75  CE1       57.6640   91.8970   35.4710 C.ar   38  PHE38      -0.0003
     76  CE2       55.4000   91.4840   34.7440 C.ar   38  PHE38      -0.0003
     77  CZ        56.3820   92.3850   35.1650 C.ar   38  PHE38      -0.0000
     78  N         56.3110   85.2690   34.7320 N.am   39  SER39      -0.1936
     79  CA        56.4820   83.8560   34.4390 C.3    39  SER39       0.2055
     80  C         56.3610   83.5960   32.9300 C.2    39  SER39       0.2644
     81  O         56.2900   84.5510   32.1440 O.2    39  SER39      -0.2714
     82  CB        55.4650   82.9860   35.2080 C.3    39  SER39       0.2130
     83  OG        55.7680   81.5740   35.0200 O.3    39  SER39      -0.2179
     84  N         56.2490   82.3240   32.5590 N.am   40  THR40      -0.1936
     85  CA        56.2450   81.9210   31.1290 C.3    40  THR40       0.2028
     86  C         54.7890   81.7520   30.6870 C.2    40  THR40       0.2642
     87  O         53.9330   81.4180   31.5070 O.2    40  THR40      -0.2714
     88  CB        56.9540   80.5650   30.9530 C.3    40  THR40       0.1808
     89  OG1       56.4600   79.5900   31.8910 O.3    40  THR40      -0.2208
     90  CG2       58.4360   80.6850   31.0930 C.3    40  THR40       0.0379
     91  N         54.4900   81.9800   29.4020 N.am   41  ALA41      -0.1963
     92  CA        53.1130   81.7840   28.8630 C.3    41  ALA41       0.1728
     93  C         52.8660   80.3630   28.3720 C.2    41  ALA41       0.2616
     94  O         51.7290   79.9780   28.1310 O.2    41  ALA41      -0.2715
     95  CB        52.8440   82.7550   27.7130 C.3    41  ALA41       0.0334
     96  N         53.9140   79.6000   28.1400 N.am   42  GLU42      -0.1977
     97  CA        53.7470   78.2710   27.5380 C.3    42  GLU42       0.1602
     98  C         54.3950   77.1690   28.3540 C.2    42  GLU42       0.2287
     99  O         55.4540   77.3710   28.8880 O.2    42  GLU42      -0.2864
    100  CB        54.4020   78.1850   26.1360 C.3    42  GLU42       0.0415
    101  CG        53.9670   79.2290   25.1350 C.3    42  GLU42       0.1163
    102  CD        52.6470   78.8830   24.4460 C.2    42  GLU42       0.3649
    103  OE1       52.5040   79.1000   23.2080 O.co2  42  GLU42      -0.2457
    104  OE2       51.7420   78.3980   25.1490 O.co2  42  GLU42      -0.2457
    105  N         58.4220   76.4330   27.9640 N.3    45  GLN45      -0.1245
    106  CA        59.1140   77.5870   27.3980 C.3    45  GLN45       0.1566
    107  C         60.5550   77.6870   27.9300 C.2    45  GLN45       0.2260
    108  O         60.7990   77.6130   29.1500 O.2    45  GLN45      -0.2867
    109  CB        58.3420   78.8520   27.7470 C.3    45  GLN45       0.0367
    110  CG        58.8130   80.1200   27.0650 C.3    45  GLN45       0.0905
    111  CD        57.7640   81.2070   27.2810 C.2    45  GLN45       0.2608
    112  OE1       56.5850   80.8680   27.4870 O.2    45  GLN45      -0.2717
    113  NE2       58.1740   82.5050   27.2730 N.am   45  GLN45      -0.0878
    114  N         62.8660   80.2400   27.0650 N.3    47  ALA47      -0.1231
    115  CA        63.4410   81.5820   27.0400 C.3    47  ALA47       0.1694
    116  C         62.3100   82.6180   27.0580 C.2    47  ALA47       0.2592
    117  O         61.1990   82.3530   26.5440 O.2    47  ALA47      -0.2718
    118  CB        64.3220   81.8010   25.8170 C.3    47  ALA47       0.0304
    119  N         62.5720   83.7720   27.6540 N.am   48  VAL48      -0.1966
    120  CA        61.6630   84.9480   27.4520 C.3    48  VAL48       0.1727
    121  C         62.4070   86.1010   26.8600 C.2    48  VAL48       0.2617
    122  O         63.6290   86.2360   27.0440 O.2    48  VAL48      -0.2715
    123  CB        61.0880   85.5860   28.7360 C.3    48  VAL48       0.0290
    124  CG1       60.0360   84.7140   29.3980 C.3    48  VAL48       0.0023
    125  CG2       62.2090   85.9170   29.6760 C.3    48  VAL48       0.0023
    126  N         61.6550   86.9770   26.2110 N.am   49  THR49      -0.1937
    127  CA        62.2020   88.2200   25.7220 C.3    49  THR49       0.2028
    128  C         61.7380   89.3560   26.6080 C.2    49  THR49       0.2642
    129  O         60.5220   89.5540   26.7950 O.2    49  THR49      -0.2714
    130  CB        61.8120   88.4350   24.2470 C.3    49  THR49       0.1808
    131  OG1       62.4690   87.4020   23.4770 O.3    49  THR49      -0.2208
    132  CG2       62.2460   89.8200   23.7510 C.3    49  THR49       0.0379
    133  N         62.7130   90.0830   27.1560 N.am   50  ILE50      -0.1963
    134  CA        62.4390   91.3230   27.9010 C.3    50  ILE50       0.1727
    135  C         62.5520   92.5330   26.9980 C.2    50  ILE50       0.2616
    136  O         63.6550   92.8830   26.5340 O.2    50  ILE50      -0.2715
    137  CB        63.3730   91.4860   29.1110 C.3    50  ILE50       0.0290
    138  CG1       63.4260   90.2130   29.9130 C.3    50  ILE50       0.0022
    139  CG2       62.9720   92.7240   29.9140 C.3    50  ILE50       0.0023
    140  CD1       62.1310   89.6720   30.5170 C.3    50  ILE50       0.0001
    141  N         61.3780   93.1140   26.6620 N.am   51  HIS51      -0.1973
    142  CA        61.2760   94.2570   25.7770 C.3    51  HIS51       0.1656
    143  C         60.9190   95.4750   26.6160 C.2    51  HIS51       0.2291
    144  O         59.7840   95.6180   27.1200 O.2    51  HIS51      -0.2864
    145  CB        60.2230   94.0280   24.7170 C.3    51  HIS51       0.0771
    146  CG        60.1060   95.1240   23.6990 C.ar   51  HIS51       0.0820
    147  ND1       59.0430   95.2110   22.8370 N.ar   51  HIS51      -0.2267
    148  CD2       60.8740   96.2570   23.4710 C.ar   51  HIS51       0.1154
    149  CE1       59.1810   96.2850   22.0600 C.ar   51  HIS51       0.1986
    150  NE2       60.3160   96.9100   22.4110 N.ar   51  HIS51      -0.2212
    151  N         65.7630   95.4310   23.6650 N.3    68  GLN68      -0.1245
    152  CA        65.2880   94.1810   24.1860 C.3    68  GLN68       0.1566
    153  C         66.4240   93.1860   24.2770 C.2    68  GLN68       0.2260
    154  O         67.4520   93.3270   23.5980 O.2    68  GLN68      -0.2867
    155  CB        64.1620   93.6040   23.3490 C.3    68  GLN68       0.0367
    156  CG        64.5810   93.2460   21.9590 C.3    68  GLN68       0.0905
    157  CD        63.4480   92.6210   21.1440 C.2    68  GLN68       0.2608
    158  OE1       63.6440   91.6000   20.5020 O.2    68  GLN68      -0.2717
    159  NE2       62.2610   93.2220   21.1820 N.am   68  GLN68      -0.0878
    160  N         53.7000   76.2810   32.0240 N.3    79  ARG79      -0.1231
    161  CA        53.4560   77.7380   32.0250 C.3    79  ARG79       0.1694
    162  C         53.0620   78.2360   33.4220 C.2    79  ARG79       0.2592
    163  O         52.3330   77.5520   34.1650 O.2    79  ARG79      -0.2718
    164  CB        52.3850   78.1880   31.0220 C.3    79  ARG79       0.0321
    165  CG        50.9810   77.6900   31.2870 C.3    79  ARG79       0.0489
    166  CD        49.9650   78.3980   30.3670 C.3    79  ARG79       0.2205
    167  NE        49.1130   79.3380   31.0990 N.pl3  79  ARG79      -0.0865
    168  CZ        48.6820   80.5090   30.6370 C.cat  79  ARG79       0.5346
    169  NH1       49.0320   80.9480   29.4260 N.pl3  79  ARG79       0.1354
    170  NH2       47.9220   81.2640   31.4170 N.pl3  79  ARG79       0.1354
    171  N         53.5520   79.4330   33.7420 N.am   80  GLY80      -0.1957
    172  CA        53.2170   80.1010   34.9700 C.3    80  GLY80       0.1869
    173  C         53.9930   79.6700   36.1680 C.2    80  GLY80       0.2309
    174  O         53.8210   80.2420   37.2480 O.2    80  GLY80      -0.2863
    175  N         60.6350   84.6670   36.9560 N.3    84  ILE84      -0.1245
    176  CA        61.5640   85.5340   36.2700 C.3    84  ILE84       0.1561
    177  C         61.4450   86.9270   36.8760 C.2    84  ILE84       0.2260
    178  O         60.4520   87.6600   36.6150 O.2    84  ILE84      -0.2867
    179  CB        61.2400   85.5570   34.7620 C.3    84  ILE84       0.0252
    180  CG1       61.1990   84.1170   34.2470 C.3    84  ILE84       0.0019
    181  CG2       62.2800   86.3930   34.0530 C.3    84  ILE84       0.0019
    182  CD1       62.5730   83.3930   34.3300 C.3    84  ILE84       0.0001
    183  N         62.1370   90.6510   37.1540 N.3    86  VAL86      -0.1245
    184  CA        62.6600   91.7410   36.3740 C.3    86  VAL86       0.1561
    185  C         62.8950   92.9830   37.2170 C.2    86  VAL86       0.2260
    186  O         61.9660   93.4210   37.8520 O.2    86  VAL86      -0.2867
    187  CB        61.6400   92.0900   35.2760 C.3    86  VAL86       0.0252
    188  CG1       62.1900   93.2680   34.4570 C.3    86  VAL86       0.0019
    189  CG2       61.5070   90.8550   34.4460 C.3    86  VAL86       0.0019
@<TRIPOS>BOND
     1   158   157    2
     2   157   159   am
     3   157   156    1
     4   156   155    1
     5   149   150   ar
     6   149   147   ar
     7   150   148   ar
     8    17    15   ar
     9   147   146   ar
    10    16    15   ar
    11   103   102   ar
    12   155   152    1
    13   148   146   ar
    14   131   130    1
    15    15    14    1
    16   154   153    2
    17    34    33    1
    18    34    35    1
    19   151   152    1
    20   146   145    1
    21   132   130    1
    22    36    35    2
    23   152   153    1
    24   130   127    1
    25   102   101    1
    26   102   104   ar
    27   145   142    1
    28    14    13    1
    29   101   100    1
    30    13    10    1
    31   127   126    1
    32   127   128    1
    33   142   143    1
    34   142   141    1
    35   118   115    1
    36   100    97    1
    37   126   121   am
    38   136   135    2
    39   117   116    2
    40    27    26    1
    41    27    28    2
    42   128   129    2
    43   128   133   am
    44   143   144    2
    45   141   135   am
    46    21    20    2
    47   121   122    2
    48   121   120    1
    49   135   134    1
    50   115   116    1
    51   115   114    1
    52   116   119   am
    53   110   111    1
    54   110   109    1
    55    26    29    1
    56    26    25    1
    57    30    29    1
    58    30    31    1
    59   133   134    1
    60    10    11    1
    61    10     9    1
    62   113   111   am
    63   111   112    2
    64   106   109    1
    65   106   107    1
    66   106   105    1
    67   120   119    1
    68   120   123    1
    69    32    31    1
    70    97    96    1
    71    97    98    1
    72    20    25   am
    73    20    19    1
    74    95    92    1
    75    11    12    2
    76    11    18   am
    77     9     3   am
    78   134   137    1
    79   107   108    2
    80    94    93    2
    81    96    93   am
    82    18    19    1
    83    98    99    2
    84    93    92    1
    85    19    22    1
    86   123   124    1
    87   123   125    1
    88    92    91    1
    89     3     4    2
    90     3     2    1
    91   137   138    1
    92   137   139    1
    93    91    86   am
    94   169   168    1
    95     2     5    1
    96     2     1    1
    97   138   140    1
    98    22    23    1
    99    22    24    1
   100     5     7    1
   101     5     6    1
   102   166   167    1
   103   166   165    1
   104   168   167    2
   105   168   170    1
   106    86    85    1
   107    86    87    2
   108    37    38    1
   109    88    90    1
   110    88    85    1
   111    88    89    1
   112   164   165    1
   113   164   161    1
   114    85    84    1
   115     6     8    1
   116   160   161    1
   117   161   162    1
   118    42    41    1
   119    81    80    2
   120    38    41    1
   121    38    39    1
   122    40    39    2
   123    84    80   am
   124    41    43    1
   125    39    44   am
   126    80    79    1
   127   162   171   am
   128   162   163    2
   129    49    48    1
   130    44    45    1
   131   171   172    1
   132   181   179    1
   133    45    48    1
   134    45    46    1
   135   180   182    1
   136   180   179    1
   137    79    78    1
   138    79    82    1
   139   189   187    1
   140   188   187    1
   141    74    76   ar
   142    74    72   ar
   143    48    50    1
   144    71    72    1
   145    71    68    1
   146    78    69   am
   147    76    77   ar
   148   179   176    1
   149    72    73   ar
   150   172   173    1
   151    83    82    1
   152    77    75   ar
   153    73    75   ar
   154   187   184    1
   155    46    47    2
   156    69    68    1
   157    69    70    2
   158    68    67    1
   159   173   174    2
   160   176   177    1
   161   176   175    1
   162   184   183    1
   163   184   185    1
   164   178   177    2
   165    67    62   am
   166   185   186    2
   167    58    57    2
   168    62    63    2
   169    62    61    1
   170    54    53    2
   171    57    59   am
   172    57    56    1
   173    55    56    1
   174    55    52    1
   175    61    60    1
   176    61    64    1
   177    53    60   am
   178    53    52    1
   179    51    52    1
   180    65    64    1
   181    64    66    1
