@<TRIPOS>MOLECULE
tmp/4ezsA00.pdb
 162 158 0 0 0
SMALL
GASTEIGER

@<TRIPOS>ATOM
      1  N         58.1970   97.3180   30.7260 N.3    13  ILE13      -0.1231
      2  CA        58.4700   96.2770   29.7820 C.3    13  ILE13       0.1692
      3  C         57.1730   95.8090   29.0810 C.2    13  ILE13       0.2592
      4  O         56.0340   96.0570   29.5640 O.2    13  ILE13      -0.2718
      5  CB        59.1530   95.0400   30.3920 C.3    13  ILE13       0.0266
      6  CG1       58.2510   94.3780   31.4350 C.3    13  ILE13       0.0019
      7  CG2       60.5260   95.3330   30.9360 C.3    13  ILE13       0.0020
      8  CD1       58.6820   92.9340   31.7150 C.3    13  ILE13       0.0001
      9  N         57.3520   95.1700   27.9220 N.am   14  GLU14      -0.1966
     10  CA        56.1810   94.6180   27.2750 C.3    14  GLU14       0.1733
     11  C         55.8480   93.2930   27.8880 C.2    14  GLU14       0.2617
     12  O         56.7120   92.4600   27.9790 O.2    14  GLU14      -0.2715
     13  CB        56.4540   94.4430   25.7700 C.3    14  GLU14       0.0429
     14  CG        55.3450   93.6480   25.0870 C.3    14  GLU14       0.1163
     15  CD        55.4750   93.7300   23.5620 C.2    14  GLU14       0.3649
     16  OE1       56.5170   94.2300   23.1090 O.co2  14  GLU14      -0.2457
     17  OE2       54.5620   93.2960   22.8160 O.co2  14  GLU14      -0.2457
     18  N         54.5730   93.0420   28.1910 N.am   15  THR15      -0.1937
     19  CA        54.1780   91.7560   28.8520 C.3    15  THR15       0.2028
     20  C         53.0610   91.1210   27.9810 C.2    15  THR15       0.2642
     21  O         52.5530   91.7620   27.0600 O.2    15  THR15      -0.2714
     22  CB        53.7140   91.9630   30.3140 C.3    15  THR15       0.1808
     23  OG1       52.6970   92.9620   30.3370 O.3    15  THR15      -0.2208
     24  CG2       54.8920   92.5300   31.2190 C.3    15  THR15       0.0379
     25  N         52.7150   89.8820   28.2720 N.am   16  MET16      -0.1976
     26  CA        51.6600   89.1310   27.6160 C.3    16  MET16       0.1605
     27  C         50.4810   89.9510   27.0890 C.2    16  MET16       0.2287
     28  O         49.7950   90.6450   27.8260 O.2    16  MET16      -0.2864
     29  CB        51.1110   88.0660   28.5580 C.3    16  MET16       0.0413
     30  CG        50.2410   87.0500   27.7780 C.3    16  MET16       0.0598
     31  SD        49.8320   85.7780   28.9780 S.3    16  MET16      -0.1393
     32  CE        48.7440   84.7890   27.9180 C.3    16  MET16       0.0692
     33  N         58.5110   90.3280   39.6160 N.3    37  VAL37      -0.1231
     34  CA        58.7790   88.9810   39.1020 C.3    37  VAL37       0.1692
     35  C         57.7650   88.6380   38.0310 C.2    37  VAL37       0.2592
     36  O         56.5430   88.9280   38.1750 O.2    37  VAL37      -0.2718
     37  CB        58.7390   87.9040   40.1760 C.3    37  VAL37       0.0266
     38  CG1       59.1810   86.5930   39.6260 C.3    37  VAL37       0.0020
     39  CG2       59.6410   88.2500   41.3820 C.3    37  VAL37       0.0020
     40  N         58.2570   88.0520   36.9500 N.am   38  PHE38      -0.1962
     41  CA        57.4100   87.5800   35.8010 C.3    38  PHE38       0.1771
     42  C         57.6410   86.0830   35.5440 C.2    38  PHE38       0.2620
     43  O         58.5110   85.4710   36.1740 O.2    38  PHE38      -0.2715
     44  CB        57.7410   88.4310   34.5510 C.3    38  PHE38       0.0574
     45  CG        57.4060   89.8950   34.7200 C.ar   38  PHE38      -0.0200
     46  CD1       58.3240   90.7940   35.3010 C.ar   38  PHE38      -0.0042
     47  CD2       56.1310   90.3490   34.4190 C.ar   38  PHE38      -0.0042
     48  CE1       57.9900   92.1380   35.5460 C.ar   38  PHE38      -0.0003
     49  CE2       55.7900   91.6920   34.6410 C.ar   38  PHE38      -0.0003
     50  CZ        56.7090   92.5900   35.2010 C.ar   38  PHE38      -0.0000
     51  N         56.8990   85.4700   34.6070 N.am   39  SER39      -0.1936
     52  CA        57.0740   84.0930   34.3710 C.3    39  SER39       0.2055
     53  C         57.0160   83.8440   32.8780 C.2    39  SER39       0.2644
     54  O         56.9350   84.8000   32.0990 O.2    39  SER39      -0.2714
     55  CB        55.9950   83.2450   35.1440 C.3    39  SER39       0.2130
     56  OG        56.2880   81.8330   35.0350 O.3    39  SER39      -0.2179
     57  N         57.0170   82.5790   32.4910 N.am   40  THR40      -0.1936
     58  CA        56.8590   82.2120   31.0910 C.3    40  THR40       0.2028
     59  C         55.3950   82.1390   30.7180 C.2    40  THR40       0.2642
     60  O         54.5590   81.9100   31.5660 O.2    40  THR40      -0.2714
     61  CB        57.4220   80.8280   30.7370 C.3    40  THR40       0.1808
     62  OG1       56.8860   79.8420   31.6380 O.3    40  THR40      -0.2208
     63  CG2       58.9460   80.8420   30.8270 C.3    40  THR40       0.0379
     64  N         55.1130   82.2620   29.4180 N.am   41  ALA41      -0.1977
     65  CA        53.7380   82.2470   28.9170 C.3    41  ALA41       0.1597
     66  C         53.3840   80.9550   28.2190 C.2    41  ALA41       0.2287
     67  O         52.2410   80.7710   27.9130 O.2    41  ALA41      -0.2864
     68  CB        53.4780   83.4380   27.9790 C.3    41  ALA41       0.0319
     69  N         58.8970   76.7960   27.7730 N.3    45  GLN45      -0.1245
     70  CA        59.5630   77.9830   27.1820 C.3    45  GLN45       0.1566
     71  C         60.9890   78.0940   27.6950 C.2    45  GLN45       0.2260
     72  O         61.2200   78.0300   28.9320 O.2    45  GLN45      -0.2867
     73  CB        58.7300   79.1970   27.5260 C.3    45  GLN45       0.0367
     74  CG        59.2760   80.5390   27.0710 C.3    45  GLN45       0.0905
     75  CD        58.2570   81.6550   27.3350 C.2    45  GLN45       0.2608
     76  OE1       57.0350   81.3910   27.4620 O.2    45  GLN45      -0.2717
     77  NE2       58.7430   82.9150   27.3710 N.am   45  GLN45      -0.0878
     78  N         62.8460   84.1870   27.6010 N.3    48  VAL48      -0.1231
     79  CA        61.8420   85.3050   27.6250 C.3    48  VAL48       0.1692
     80  C         62.5570   86.5370   27.1240 C.2    48  VAL48       0.2593
     81  O         63.7590   86.7090   27.3520 O.2    48  VAL48      -0.2718
     82  CB        61.2370   85.5890   29.0430 C.3    48  VAL48       0.0266
     83  CG1       60.8890   84.2840   29.7400 C.3    48  VAL48       0.0020
     84  CG2       62.1810   86.3600   29.9220 C.3    48  VAL48       0.0020
     85  N         61.8290   87.3320   26.3530 N.am   49  THR49      -0.1939
     86  CA        62.2720   88.5810   25.7720 C.3    49  THR49       0.2028
     87  C         61.8740   89.7380   26.6980 C.2    49  THR49       0.2642
     88  O         60.7140   89.8690   27.0720 O.2    49  THR49      -0.2714
     89  CB        61.5400   88.8050   24.4480 C.3    49  THR49       0.1808
     90  OG1       61.7150   87.6270   23.6730 O.3    49  THR49      -0.2208
     91  CG2       62.1170   90.0460   23.6740 C.3    49  THR49       0.0379
     92  N         62.8730   90.5420   27.0630 N.am   50  ILE50      -0.1977
     93  CA        62.6240   91.7250   27.8650 C.3    50  ILE50       0.1596
     94  C         62.7320   92.9000   26.8970 C.2    50  ILE50       0.2287
     95  O         63.8200   93.2180   26.4200 O.2    50  ILE50      -0.2864
     96  CB        63.6540   91.8430   29.0250 C.3    50  ILE50       0.0276
     97  CG1       63.7310   90.5570   29.8090 C.3    50  ILE50       0.0022
     98  CG2       63.4050   93.1290   29.8280 C.3    50  ILE50       0.0022
     99  CD1       62.4390   90.1600   30.4830 C.3    50  ILE50       0.0001
    100  N         53.9910   76.4690   31.8590 N.3    79  ARG79      -0.1231
    101  CA        53.8070   77.9550   31.8410 C.3    79  ARG79       0.1694
    102  C         53.4860   78.4760   33.2440 C.2    79  ARG79       0.2593
    103  O         52.8000   77.7930   34.0230 O.2    79  ARG79      -0.2718
    104  CB        52.6770   78.3980   30.8560 C.3    79  ARG79       0.0321
    105  CG        51.2330   77.9720   31.1690 C.3    79  ARG79       0.0489
    106  CD        50.1820   78.4050   30.0760 C.3    79  ARG79       0.2205
    107  NE        50.6570   78.1020   28.7120 N.pl3  79  ARG79      -0.0865
    108  CZ        50.6090   76.8910   28.1370 C.cat  79  ARG79       0.5346
    109  NH1       51.1410   76.6990   26.9220 N.pl3  79  ARG79       0.1354
    110  NH2       50.0420   75.8650   28.7900 N.pl3  79  ARG79       0.1354
    111  N         53.9400   79.6830   33.5560 N.am   80  GLY80      -0.1942
    112  CA        53.5650   80.3190   34.7960 C.3    80  GLY80       0.2014
    113  C         54.3720   79.9200   36.0140 C.2    80  GLY80       0.2639
    114  O         54.1570   80.5000   37.0950 O.2    80  GLY80      -0.2714
    115  N         55.2790   78.9260   35.8880 N.am   81  MET81      -0.1963
    116  CA        56.0530   78.4350   37.0540 C.3    81  MET81       0.1722
    117  C         57.4250   79.0960   37.3030 C.2    81  MET81       0.2458
    118  O         57.7610   79.4590   38.4910 O.2    81  MET81      -0.2730
    119  CB        56.1090   76.8780   36.9850 C.3    81  MET81       0.0427
    120  CG        54.7100   76.2370   37.0080 C.3    81  MET81       0.0599
    121  SD        53.7800   76.6610   38.5340 S.3    81  MET81      -0.1393
    122  CE        54.4830   75.7150   39.8690 C.3    81  MET81       0.0692
    123  N         58.1950   79.3450   36.2360 N.am   82  PRO82      -0.2716
    124  CA        59.5260   79.9170   36.4110 C.3    82  PRO82       0.1536
    125  C         59.4210   81.3490   36.9410 C.2    82  PRO82       0.2598
    126  O         58.3850   82.0560   36.7110 O.2    82  PRO82      -0.2715
    127  CB        60.1150   79.8620   34.9650 C.3    82  PRO82       0.0310
    128  CG        59.3790   78.6350   34.3560 C.3    82  PRO82       0.0237
    129  CD        57.9970   78.8960   34.8340 C.3    82  PRO82       0.0939
    130  N         60.4460   81.7930   37.6830 N.am   83  GLN83      -0.1964
    131  CA        60.3910   83.1130   38.2140 C.3    83  GLN83       0.1733
    132  C         61.5150   83.8770   37.5940 C.2    83  GLN83       0.2616
    133  O         62.6900   83.6070   37.9030 O.2    83  GLN83      -0.2715
    134  CB        60.5510   83.0650   39.7460 C.3    83  GLN83       0.0408
    135  CG        59.4840   82.1920   40.3740 C.3    83  GLN83       0.0908
    136  CD        59.7640   81.9390   41.8320 C.2    83  GLN83       0.2608
    137  OE1       60.0110   82.8700   42.5840 O.2    83  GLN83      -0.2717
    138  NE2       59.7710   80.6760   42.2310 N.am   83  GLN83      -0.0878
    139  N         61.1530   84.8730   36.7810 N.am   84  ILE84      -0.1977
    140  CA        62.1340   85.7750   36.1530 C.3    84  ILE84       0.1596
    141  C         61.9620   87.1450   36.8020 C.2    84  ILE84       0.2287
    142  O         60.8950   87.7760   36.6350 O.2    84  ILE84      -0.2864
    143  CB        61.9140   85.8650   34.6060 C.3    84  ILE84       0.0276
    144  CG1       61.8090   84.4540   34.0230 C.3    84  ILE84       0.0022
    145  CG2       63.0610   86.6490   33.9970 C.3    84  ILE84       0.0022
    146  CD1       63.0580   83.5940   34.2720 C.3    84  ILE84       0.0001
    147  N         44.5310   81.6300   29.5020 N.3   153  HIS153     -0.1241
    148  CA        44.7780   80.8480   30.7110 C.3   153  HIS153      0.1621
    149  C         43.7060   79.7590   30.8670 C.2   153  HIS153      0.2264
    150  O         44.0150   78.5900   31.1660 O.2   153  HIS153     -0.2867
    151  CB        44.8210   81.7290   31.9980 C.3   153  HIS153      0.0745
    152  CG        45.9320   82.8040   31.9940 C.ar  153  HIS153      0.0817
    153  ND1       47.2110   82.5470   31.6330 N.ar  153  HIS153     -0.2268
    154  CD2       45.9040   84.1460   32.3550 C.ar  153  HIS153      0.1154
    155  CE1       47.9520   83.6570   31.7470 C.ar  153  HIS153      0.1986
    156  NE2       47.1500   84.6400   32.1860 N.ar  153  HIS153     -0.2212
    157  N         44.5730   75.7640   30.9440 N.3   157  SER157     -0.1217
    158  CA        44.2620   75.0400   32.1710 C.3   157  SER157      0.1889
    159  C         43.2140   73.9530   31.8860 C.2   157  SER157      0.2288
    160  O         43.2740   72.8630   32.4520 O.2   157  SER157     -0.2866
    161  CB        43.7850   75.9860   33.2680 C.3   157  SER157      0.2089
    162  OG        42.6540   76.7570   32.8580 O.3   157  SER157     -0.2183
@<TRIPOS>BOND
     1    17    15   ar
     2    16    15   ar
     3    15    14    1
     4    90    89    1
     5    91    89    1
     6    89    86    1
     7    14    13    1
     8    13    10    1
     9    86    85    1
    10    86    87    1
    11    85    80   am
    12    95    94    2
    13    87    92   am
    14    87    88    2
    15    94    93    1
    16   109   108    1
    17    21    20    2
    18    92    93    1
    19    74    75    1
    20    74    73    1
    21    27    26    1
    22    27    28    2
    23    80    81    2
    24    80    79    1
    25    70    73    1
    26    70    71    1
    27    70    69    1
    28    10    11    1
    29    10     9    1
    30    75    77   am
    31    75    76    2
    32    78    79    1
    33    26    25    1
    34    26    29    1
    35    79    82    1
    36    71    72    2
    37    30    29    1
    38    30    31    1
    39    93    96    1
    40    11    12    2
    41    11    18   am
    42    67    66    2
    43    32    31    1
    44     9     3   am
    45    68    65    1
    46    20    25   am
    47    20    19    1
    48   108   107    2
    49   108   110    1
    50    18    19    1
    51    66    65    1
    52   107   106    1
    53    19    22    1
    54    65    64    1
    55    96    97    1
    56    96    98    1
    57    82    83    1
    58    82    84    1
    59     3     4    2
    60     3     2    1
    61    64    59   am
    62   147   148    1
    63     2     5    1
    64     2     1    1
    65    97    99    1
    66   106   105    1
    67    22    23    1
    68    22    24    1
    69     5     7    1
    70     5     6    1
    71   148   149    1
    72   148   151    1
    73    59    58    1
    74    59    60    2
    75    61    63    1
    76    61    58    1
    77    61    62    1
    78   104   105    1
    79   104   101    1
    80   149   150    2
    81   157   158    1
    82    58    57    1
    83     6     8    1
    84   153   155   ar
    85   153   152   ar
    86   155   156   ar
    87   101   100    1
    88   101   102    1
    89   159   158    1
    90   159   160    2
    91   152   151    1
    92   152   154   ar
    93    54    53    2
    94   158   161    1
    95   156   154   ar
    96    57    53   am
    97   162   161    1
    98    53    52    1
    99   102   111   am
   100   102   103    2
   101   111   112    1
   102   145   143    1
   103   144   146    1
   104   144   143    1
   105   128   129    1
   106   128   127    1
   107    52    51    1
   108    52    55    1
   109    47    49   ar
   110    47    45   ar
   111    44    45    1
   112    44    41    1
   113   143   140    1
   114    51    42   am
   115    49    50   ar
   116    45    46   ar
   117   112   113    1
   118   129   123    1
   119   127   124    1
   120    56    55    1
   121    50    48   ar
   122    46    48   ar
   123    42    41    1
   124    42    43    2
   125    41    40    1
   126   115   113   am
   127   115   116    1
   128   113   114    2
   129   140   139    1
   130   140   141    1
   131   123   124    1
   132   123   117   am
   133   124   125    1
   134   142   141    2
   135   126   125    2
   136   139   132   am
   137   125   130   am
   138    40    35   am
   139   119   120    1
   140   119   116    1
   141   120   121    1
   142   116   117    1
   143   117   118    2
   144   132   133    2
   145   132   131    1
   146   130   131    1
   147    35    36    2
   148    35    34    1
   149   131   134    1
   150   121   122    1
   151    34    33    1
   152    34    37    1
   153    38    37    1
   154   134   135    1
   155    37    39    1
   156   135   136    1
   157   136   138   am
   158   136   137    2
