@<TRIPOS>MOLECULE
tmp/4ezvB00.pdb
 130 124 0 0 0
SMALL
GASTEIGER

@<TRIPOS>ATOM
      1  N        -38.6420   21.7790  -21.5360 N.3    13  ILE13      -0.1231
      2  CA       -38.7360   23.0280  -22.3290 C.3    13  ILE13       0.1692
      3  C        -37.5030   23.1120  -23.1490 C.2    13  ILE13       0.2592
      4  O        -36.4790   22.5230  -22.7630 O.2    13  ILE13      -0.2718
      5  CB       -38.9360   24.3750  -21.5400 C.3    13  ILE13       0.0266
      6  CG1      -37.7990   24.7380  -20.5780 C.3    13  ILE13       0.0019
      7  CG2      -40.2520   24.3620  -20.7430 C.3    13  ILE13       0.0020
      8  CD1      -37.8880   26.1410  -19.8960 C.3    13  ILE13       0.0001
      9  N        -37.5660   23.8990  -24.2520 N.am   14  GLU14      -0.1966
     10  CA       -36.3570   24.2070  -24.9500 C.3    14  GLU14       0.1733
     11  C        -35.5630   25.2840  -24.2140 C.2    14  GLU14       0.2617
     12  O        -36.1220   26.3100  -23.8170 O.2    14  GLU14      -0.2715
     13  CB       -36.7230   24.6950  -26.3950 C.3    14  GLU14       0.0429
     14  CG       -35.5190   25.1250  -27.1980 C.3    14  GLU14       0.1163
     15  CD       -35.8250   25.4120  -28.6690 C.2    14  GLU14       0.3649
     16  OE1      -36.9580   25.1510  -29.1590 O.co2  14  GLU14      -0.2457
     17  OE2      -34.8970   25.8850  -29.3420 O.co2  14  GLU14      -0.2457
     18  N        -34.2450   25.1240  -24.1160 N.am   15  THR15      -0.1937
     19  CA       -33.4530   26.1900  -23.5570 C.3    15  THR15       0.2028
     20  C        -32.2980   26.6070  -24.5040 C.2    15  THR15       0.2642
     21  O        -32.0150   25.9310  -25.4780 O.2    15  THR15      -0.2714
     22  CB       -32.8740   25.8300  -22.1560 C.3    15  THR15       0.1808
     23  OG1      -32.1470   24.6290  -22.2580 O.3    15  THR15      -0.2208
     24  CG2      -34.0220   25.6650  -21.1530 C.3    15  THR15       0.0379
     25  N        -31.6440   27.6930  -24.1500 N.am   16  MET16      -0.1962
     26  CA       -30.6310   28.3820  -24.9380 C.3    16  MET16       0.1736
     27  C        -29.7150   27.4200  -25.6540 C.2    16  MET16       0.2617
     28  O        -29.1130   26.5730  -24.9580 O.2    16  MET16      -0.2715
     29  CB       -29.8220   29.2200  -23.9410 C.3    16  MET16       0.0427
     30  CG       -28.8710   30.1940  -24.5470 C.3    16  MET16       0.0599
     31  SD       -28.3190   31.2450  -23.2110 S.3    16  MET16      -0.1393
     32  CE       -27.1840   32.2760  -24.1410 C.3    16  MET16       0.0692
     33  N        -29.6040   27.5510  -26.9820 N.am   17  GLY17      -0.1955
     34  CA       -28.7840   26.6510  -27.8190 C.3    17  GLY17       0.1869
     35  C        -29.6510   25.5880  -28.4490 C.2    17  GLY17       0.2309
     36  O        -29.1500   24.7500  -29.1340 O.2    17  GLY17      -0.2863
     37  N        -35.7740   29.9940  -14.5210 N.3    38  PHE38      -0.1227
     38  CA       -34.9370   30.1590  -15.6770 C.3    38  PHE38       0.1736
     39  C        -34.8300   31.6470  -15.8980 C.2    38  PHE38       0.2596
     40  O        -35.3090   32.4510  -15.0690 O.2    38  PHE38      -0.2718
     41  CB       -35.6220   29.4950  -16.8890 C.3    38  PHE38       0.0547
     42  CG       -35.6390   28.0040  -16.8390 C.ar   38  PHE38      -0.0202
     43  CD1      -36.7090   27.3050  -16.2650 C.ar   38  PHE38      -0.0042
     44  CD2      -34.5470   27.2820  -17.3170 C.ar   38  PHE38      -0.0042
     45  CE1      -36.7410   25.8920  -16.2300 C.ar   38  PHE38      -0.0003
     46  CE2      -34.5580   25.8890  -17.3030 C.ar   38  PHE38      -0.0003
     47  CZ       -35.6720   25.1680  -16.7660 C.ar   38  PHE38      -0.0000
     48  N        -34.2480   32.0390  -17.0220 N.am   39  SER39      -0.1938
     49  CA       -34.0000   33.4710  -17.2770 C.3    39  SER39       0.2055
     50  C        -33.8900   33.8440  -18.7670 C.2    39  SER39       0.2644
     51  O        -34.2000   33.0230  -19.6520 O.2    39  SER39      -0.2714
     52  CB       -32.7400   33.9040  -16.5170 C.3    39  SER39       0.2130
     53  OG       -32.6940   35.3300  -16.4270 O.3    39  SER39      -0.2179
     54  N        -33.4700   35.0820  -19.0620 N.am   40  THR40      -0.1936
     55  CA       -33.2830   35.5200  -20.4410 C.3    40  THR40       0.2028
     56  C        -31.9330   34.9740  -20.9720 C.2    40  THR40       0.2642
     57  O        -31.0410   34.6030  -20.1740 O.2    40  THR40      -0.2714
     58  CB       -33.2070   37.0470  -20.5250 C.3    40  THR40       0.1808
     59  OG1      -32.2730   37.5180  -19.5200 O.3    40  THR40      -0.2208
     60  CG2      -34.6400   37.6660  -20.2490 C.3    40  THR40       0.0379
     61  N        -31.7810   34.9560  -22.2940 N.am   41  ALA41      -0.1963
     62  CA       -30.5390   34.5200  -22.9220 C.3    41  ALA41       0.1728
     63  C        -29.7130   35.6940  -23.4540 C.2    41  ALA41       0.2616
     64  O        -28.6120   35.4930  -23.9300 O.2    41  ALA41      -0.2715
     65  CB       -30.8800   33.5780  -24.0530 C.3    41  ALA41       0.0334
     66  N        -30.2690   36.8990  -23.4250 N.am   42  GLU42      -0.1977
     67  CA       -29.6120   38.1000  -23.9940 C.3    42  GLU42       0.1602
     68  C        -29.9230   39.3070  -23.1440 C.2    42  GLU42       0.2287
     69  O        -30.9980   39.3650  -22.5480 O.2    42  GLU42      -0.2864
     70  CB       -30.2170   38.4070  -25.3600 C.3    42  GLU42       0.0415
     71  CG       -29.1930   38.8130  -26.3880 C.3    42  GLU42       0.1163
     72  CD       -29.8460   38.8920  -27.7440 C.2    42  GLU42       0.3649
     73  OE1      -30.6220   39.8370  -27.9680 O.co2  42  GLU42      -0.2457
     74  OE2      -29.6310   37.9690  -28.5450 O.co2  42  GLU42      -0.2457
     75  N        -33.7470   41.4730  -22.9750 N.3    45  GLN45      -0.1245
     76  CA       -34.7020   40.7130  -23.7760 C.3    45  GLN45       0.1566
     77  C        -36.0550   41.0370  -23.1260 C.2    45  GLN45       0.2260
     78  O        -36.1530   41.0480  -21.8810 O.2    45  GLN45      -0.2867
     79  CB       -34.3270   39.2250  -23.6560 C.3    45  GLN45       0.0367
     80  CG       -35.0670   38.2400  -24.5530 C.3    45  GLN45       0.0905
     81  CD       -34.5690   36.7820  -24.3000 C.2    45  GLN45       0.2608
     82  OE1      -33.4010   36.5590  -23.9800 O.2    45  GLN45      -0.2717
     83  NE2      -35.4330   35.8120  -24.5170 N.am   45  GLN45      -0.0878
     84  N        -38.9980   39.3640  -23.9090 N.3    47  ALA47      -0.1231
     85  CA       -39.9070   38.2020  -23.9640 C.3    47  ALA47       0.1694
     86  C        -39.2070   36.8550  -24.1530 C.2    47  ALA47       0.2592
     87  O        -38.2180   36.7660  -24.8930 O.2    47  ALA47      -0.2718
     88  CB       -40.9410   38.3840  -25.0460 C.3    47  ALA47       0.0304
     89  N        -39.7680   35.7990  -23.5490 N.am   48  VAL48      -0.1966
     90  CA       -39.2310   34.4450  -23.7860 C.3    48  VAL48       0.1727
     91  C        -40.3370   33.6100  -24.4100 C.2    48  VAL48       0.2617
     92  O        -41.5520   33.8880  -24.1580 O.2    48  VAL48      -0.2715
     93  CB       -38.8340   33.7420  -22.4500 C.3    48  VAL48       0.0290
     94  CG1      -37.6210   34.4050  -21.8090 C.3    48  VAL48       0.0023
     95  CG2      -39.9940   33.7650  -21.4640 C.3    48  VAL48       0.0023
     96  N        -39.9360   32.6420  -25.2510 N.am   49  THR49      -0.1937
     97  CA       -40.8640   31.6330  -25.7010 C.3    49  THR49       0.2028
     98  C        -40.6740   30.3540  -24.8710 C.2    49  THR49       0.2642
     99  O        -39.5200   29.8490  -24.7320 O.2    49  THR49      -0.2714
    100  CB       -40.6540   31.3480  -27.1980 C.3    49  THR49       0.1808
    101  OG1      -41.0950   32.4930  -27.9360 O.3    49  THR49      -0.2208
    102  CG2      -41.4010   30.0810  -27.6670 C.3    49  THR49       0.0379
    103  N        -41.7460   29.9070  -24.2060 N.am   50  ILE50      -0.1977
    104  CA       -41.7100   28.6080  -23.5270 C.3    50  ILE50       0.1596
    105  C        -42.1550   27.5550  -24.5250 C.2    50  ILE50       0.2287
    106  O        -43.3220   27.5910  -24.9570 O.2    50  ILE50      -0.2864
    107  CB       -42.6490   28.6270  -22.3220 C.3    50  ILE50       0.0276
    108  CG1      -42.3230   29.8420  -21.4430 C.3    50  ILE50       0.0022
    109  CG2      -42.5570   27.2900  -21.5860 C.3    50  ILE50       0.0022
    110  CD1      -40.8780   29.8200  -20.8850 C.3    50  ILE50       0.0001
    111  N        -45.6310   32.6140  -25.4100 N.3    70  ASN70      -0.1240
    112  CA       -44.6520   33.6270  -25.0660 C.3    70  ASN70       0.1653
    113  C        -45.0120   34.2480  -23.7330 C.2    70  ASN70       0.2266
    114  O        -46.2220   34.3530  -23.3820 O.2    70  ASN70      -0.2867
    115  CB       -44.6200   34.8160  -26.0670 C.3    70  ASN70       0.1155
    116  CG       -44.0600   34.4400  -27.4080 C.2    70  ASN70       0.2627
    117  OD1      -43.6900   33.2740  -27.7120 O.2    70  ASN70      -0.2716
    118  ND2      -44.0460   35.4200  -28.2570 N.am   70  ASN70      -0.0877
    119  N        -29.6370   36.6630  -18.0870 N.3    80  GLY80      -0.1225
    120  CA       -29.6540   35.7070  -16.9490 C.3    80  GLY80       0.1811
    121  C        -29.9090   36.2850  -15.5610 C.2    80  GLY80       0.2280
    122  O        -29.8080   35.5490  -14.5700 O.2    80  GLY80      -0.2866
    123  N        -37.5610   33.8910  -14.2360 N.3    84  ILE84      -0.1245
    124  CA       -38.7840   33.4350  -14.9680 C.3    84  ILE84       0.1561
    125  C        -39.0570   32.0330  -14.4410 C.2    84  ILE84       0.2260
    126  O        -38.2950   31.1190  -14.7200 O.2    84  ILE84      -0.2867
    127  CB       -38.5690   33.3390  -16.4990 C.3    84  ILE84       0.0252
    128  CG1      -38.1270   34.6870  -17.1110 C.3    84  ILE84       0.0019
    129  CG2      -39.8490   32.8940  -17.2000 C.3    84  ILE84       0.0019
    130  CD1      -39.0130   35.8850  -16.7620 C.3    84  ILE84       0.0001
@<TRIPOS>BOND
     1    17    15   ar
     2    16    15   ar
     3    36    35    2
     4    15    14    1
     5    74    72   ar
     6    35    34    1
     7   118   116   am
     8    73    72   ar
     9   101   100    1
    10    34    33    1
    11    72    71    1
    12   117   116    2
    13   102   100    1
    14   116   115    1
    15   100    97    1
    16    14    13    1
    17    33    27   am
    18    13    10    1
    19    71    70    1
    20   115   112    1
    21    97    96    1
    22    97    98    1
    23    27    28    2
    24    27    26    1
    25    21    20    2
    26   111   112    1
    27    70    67    1
    28    96    91   am
    29   112   113    1
    30    88    85    1
    31   106   105    2
    32    10     9    1
    33    10    11    1
    34    26    25    1
    35    26    29    1
    36    87    86    2
    37    98    99    2
    38    98   103   am
    39    80    81    1
    40    80    79    1
    41    30    29    1
    42    30    31    1
    43   105   104    1
    44    83    81   am
    45    20    25   am
    46    20    19    1
    47    91    92    2
    48    91    90    1
    49    81    82    2
    50     9     3   am
    51    11    18   am
    52    11    12    2
    53   103   104    1
    54    86    85    1
    55    86    89   am
    56    32    31    1
    57    18    19    1
    58    65    62    1
    59    67    66    1
    60    67    68    1
    61    85    84    1
    62    64    63    2
    63    90    89    1
    64    90    93    1
    65    76    79    1
    66    76    77    1
    67    76    75    1
    68   113   114    2
    69    19    22    1
    70   104   107    1
    71    63    66   am
    72    63    62    1
    73     3     4    2
    74     3     2    1
    75    68    69    2
    76    77    78    2
    77    62    61    1
    78    93    94    1
    79    93    95    1
    80     2     5    1
    81     2     1    1
    82   107   109    1
    83   107   108    1
    84    61    56   am
    85    23    22    1
    86    22    24    1
    87     5     7    1
    88     5     6    1
    89   108   110    1
    90    56    55    1
    91    56    57    2
    92     6     8    1
    93    58    55    1
    94    58    60    1
    95    58    59    1
    96    55    54    1
    97    51    50    2
    98    54    50   am
    99    50    49    1
   100   119   120    1
   101    44    46   ar
   102    44    42   ar
   103    46    47   ar
   104    49    48    1
   105    49    52    1
   106   129   127    1
   107   128   130    1
   108   128   127    1
   109    48    39   am
   110   120   121    1
   111    41    42    1
   112    41    38    1
   113    42    43   ar
   114    47    45   ar
   115    52    53    1
   116   127   124    1
   117    43    45   ar
   118    39    38    1
   119    39    40    2
   120    38    37    1
   121   121   122    2
   122   124   125    1
   123   124   123    1
   124   126   125    2
