@<TRIPOS>MOLECULE
tmp/4ezvA00.pdb
 181 173 0 0 0
SMALL
GASTEIGER

@<TRIPOS>ATOM
      1  N        -15.4580   15.7360   -8.5430 N.3    13  ILE13      -0.1231
      2  CA       -14.7580   16.6750   -7.6670 C.3    13  ILE13       0.1692
      3  C        -15.7290   17.3810   -6.7800 C.2    13  ILE13       0.2592
      4  O        -16.9530   17.3670   -7.0610 O.2    13  ILE13      -0.2718
      5  CB       -13.9230   17.6610   -8.4700 C.3    13  ILE13       0.0266
      6  CG1      -14.7830   18.5560   -9.3960 C.3    13  ILE13       0.0019
      7  CG2      -12.9120   16.8840   -9.3410 C.3    13  ILE13       0.0020
      8  CD1      -14.0280   19.7480   -9.9740 C.3    13  ILE13       0.0001
      9  N        -15.2220   18.0080   -5.7150 N.am   14  GLU14      -0.1966
     10  CA       -16.0490   18.8740   -4.9360 C.3    14  GLU14       0.1733
     11  C        -16.1830   20.2180   -5.5550 C.2    14  GLU14       0.2617
     12  O        -15.1490   20.7630   -6.0080 O.2    14  GLU14      -0.2715
     13  CB       -15.4910   19.0680   -3.5200 C.3    14  GLU14       0.0429
     14  CG       -16.4200   19.9550   -2.6520 C.3    14  GLU14       0.1163
     15  CD       -15.8730   20.1130   -1.2340 C.2    14  GLU14       0.3649
     16  OE1      -15.0660   19.3030   -0.8060 O.co2  14  GLU14      -0.2457
     17  OE2      -16.3120   21.0040   -0.5510 O.co2  14  GLU14      -0.2457
     18  N        -17.4340   20.7370   -5.6290 N.am   15  THR15      -0.1937
     19  CA       -17.6520   22.0760   -6.1480 C.3    15  THR15       0.2028
     20  C        -18.4070   22.9330   -5.1450 C.2    15  THR15       0.2642
     21  O        -18.9890   22.3830   -4.1510 O.2    15  THR15      -0.2714
     22  CB       -18.3940   22.1190   -7.5080 C.3    15  THR15       0.1808
     23  OG1      -19.6340   21.4380   -7.3440 O.3    15  THR15      -0.2208
     24  CG2      -17.5530   21.4060   -8.6010 C.3    15  THR15       0.0379
     25  N        -18.4030   24.2460   -5.4410 N.am   16  MET16      -0.1962
     26  CA       -18.9220   25.3200   -4.6000 C.3    16  MET16       0.1736
     27  C        -20.1550   24.8790   -3.7870 C.2    16  MET16       0.2617
     28  O        -21.1560   24.4780   -4.4250 O.2    16  MET16      -0.2715
     29  CB       -19.2940   26.4570   -5.5680 C.3    16  MET16       0.0427
     30  CG       -19.5320   27.8130   -4.9610 C.3    16  MET16       0.0599
     31  SD       -19.1710   29.0500   -6.2180 S.3    16  MET16      -0.1393
     32  CE       -20.4150   28.6880   -7.4630 C.3    16  MET16       0.0692
     33  N        -20.1100   25.0150   -2.4550 N.am   17  GLY17      -0.1940
     34  CA       -21.1880   24.6420   -1.5280 C.3    17  GLY17       0.2014
     35  C        -21.0560   23.2340   -0.9870 C.2    17  GLY17       0.2636
     36  O        -21.9760   22.7230   -0.2870 O.2    17  GLY17      -0.2714
     37  N        -19.9550   22.5570   -1.3290 N.am   18  GLY18      -0.2011
     38  CA       -19.8150   21.1760   -0.7810 C.3    18  GLY18       0.1506
     39  C        -20.5180   20.0780   -1.5520 C.3    18  GLY18       0.2054
     40  O        -20.9100   19.0020   -0.9430 O.3    18  GLY18      -0.2184
     41  N        -13.9120   24.1990  -15.3490 N.3    38  PHE38      -0.1227
     42  CA       -14.4480   24.8310  -14.1230 C.3    38  PHE38       0.1736
     43  C        -13.7690   26.1930  -13.8910 C.2    38  PHE38       0.2596
     44  O        -13.0200   26.6840  -14.7440 O.2    38  PHE38      -0.2718
     45  CB       -14.1880   23.9170  -12.9300 C.3    38  PHE38       0.0547
     46  CG       -15.0130   22.6470  -12.9590 C.ar   38  PHE38      -0.0202
     47  CD1      -14.5080   21.4590  -13.5580 C.ar   38  PHE38      -0.0042
     48  CD2      -16.3240   22.6460  -12.4710 C.ar   38  PHE38      -0.0042
     49  CE1      -15.2600   20.2600  -13.5900 C.ar   38  PHE38      -0.0003
     50  CE2      -17.1100   21.4560  -12.5610 C.ar   38  PHE38      -0.0003
     51  CZ       -16.5670   20.2550  -13.0730 C.ar   38  PHE38      -0.0000
     52  N        -14.0190   26.7710  -12.7230 N.am   39  SER39      -0.1938
     53  CA       -13.5380   28.0800  -12.4110 C.3    39  SER39       0.2055
     54  C        -13.3360   28.3240  -10.8980 C.2    39  SER39       0.2644
     55  O        -13.5120   27.4020  -10.0800 O.2    39  SER39      -0.2714
     56  CB       -14.4410   29.1410  -12.9770 C.3    39  SER39       0.2130
     57  OG       -13.6950   30.3860  -13.0650 O.3    39  SER39      -0.2179
     58  N        -13.0120   29.5660  -10.5530 N.am   40  THR40      -0.1936
     59  CA       -12.8290   29.9820   -9.1360 C.3    40  THR40       0.2028
     60  C        -14.1980   30.3210   -8.5360 C.2    40  THR40       0.2642
     61  O        -15.1270   30.6190   -9.2930 O.2    40  THR40      -0.2714
     62  CB       -12.0280   31.2740   -9.0570 C.3    40  THR40       0.1808
     63  OG1      -12.6280   32.2420   -9.9140 O.3    40  THR40      -0.2208
     64  CG2      -10.5510   31.0380   -9.5260 C.3    40  THR40       0.0379
     65  N        -14.3300   30.2820   -7.2020 N.am   41  ALA41      -0.1963
     66  CA       -15.5680   30.6500   -6.5170 C.3    41  ALA41       0.1728
     67  C        -15.5440   32.0850   -6.0030 C.2    41  ALA41       0.2616
     68  O        -16.5730   32.6150   -5.6180 O.2    41  ALA41      -0.2715
     69  CB       -15.7970   29.6950   -5.3360 C.3    41  ALA41       0.0334
     70  N        -14.3720   32.7060   -5.9110 N.am   42  GLU42      -0.1977
     71  CA       -14.2650   34.0900   -5.3750 C.3    42  GLU42       0.1602
     72  C        -13.5160   34.9360   -6.3030 C.2    42  GLU42       0.2287
     73  O        -12.6960   34.4190   -7.0750 O.2    42  GLU42      -0.2864
     74  CB       -13.4720   34.1450   -4.0840 C.3    42  GLU42       0.0415
     75  CG       -14.0330   33.3260   -2.9660 C.3    42  GLU42       0.1163
     76  CD       -13.1070   33.4150   -1.7710 C.2    42  GLU42       0.3649
     77  OE1      -12.5830   34.5230   -1.5270 O.co2  42  GLU42      -0.2457
     78  OE2      -12.8650   32.3930   -1.0970 O.co2  42  GLU42      -0.2457
     79  N         -9.3840   34.8910   -6.5330 N.3    45  GLN45      -0.1231
     80  CA        -8.9210   33.6430   -5.9880 C.3    45  GLN45       0.1698
     81  C         -7.6630   33.2810   -6.7630 C.2    45  GLN45       0.2593
     82  O         -7.6490   33.3890   -7.9930 O.2    45  GLN45      -0.2718
     83  CB        -9.9960   32.5880   -6.1960 C.3    45  GLN45       0.0381
     84  CG        -9.7640   31.2720   -5.4460 C.3    45  GLN45       0.0905
     85  CD       -10.9810   30.3460   -5.5990 C.2    45  GLN45       0.2608
     86  OE1      -12.1210   30.8150   -5.4840 O.2    45  GLN45      -0.2717
     87  NE2      -10.7440   29.0280   -5.7760 N.am   45  GLN45      -0.0878
     88  N         -6.6090   32.8470   -6.0620 N.am   46  SER46      -0.1938
     89  CA        -5.3220   32.5990   -6.7260 C.3    46  SER46       0.2055
     90  C         -4.9880   31.1110   -6.8620 C.2    46  SER46       0.2643
     91  O         -3.9900   30.7530   -7.5040 O.2    46  SER46      -0.2714
     92  CB        -4.1940   33.3980   -6.0270 C.3    46  SER46       0.2130
     93  OG        -4.3130   33.2490   -4.6290 O.3    46  SER46      -0.2179
     94  N         -5.8030   30.2460   -6.2470 N.am   47  ALA47      -0.1963
     95  CA        -5.6260   28.8210   -6.4000 C.3    47  ALA47       0.1728
     96  C         -6.9780   28.0720   -6.4330 C.2    47  ALA47       0.2616
     97  O         -8.0130   28.6590   -6.0960 O.2    47  ALA47      -0.2715
     98  CB        -4.6990   28.2760   -5.2800 C.3    47  ALA47       0.0334
     99  N         -6.9920   26.7960   -6.8750 N.am   48  VAL48      -0.1963
    100  CA        -8.1690   25.9730   -6.6040 C.3    48  VAL48       0.1727
    101  C         -7.7060   24.6890   -5.9960 C.2    48  VAL48       0.2617
    102  O         -6.6480   24.1670   -6.3580 O.2    48  VAL48      -0.2715
    103  CB        -9.0140   25.6510   -7.8820 C.3    48  VAL48       0.0290
    104  CG1       -9.7200   26.9110   -8.3120 C.3    48  VAL48       0.0023
    105  CG2       -8.1380   25.1500   -8.9990 C.3    48  VAL48       0.0023
    106  N         -8.5060   24.1760   -5.0780 N.am   49  THR49      -0.1937
    107  CA        -8.2970   22.7990   -4.5750 C.3    49  THR49       0.2028
    108  C         -9.1560   21.7820   -5.3240 C.2    49  THR49       0.2642
    109  O        -10.3590   21.8970   -5.3110 O.2    49  THR49      -0.2714
    110  CB        -8.5410   22.7610   -3.0660 C.3    49  THR49       0.1808
    111  OG1       -7.5660   23.6190   -2.4510 O.3    49  THR49      -0.2208
    112  CG2       -8.4400   21.2860   -2.4740 C.3    49  THR49       0.0379
    113  N         -8.5190   20.8270   -5.9970 N.am   50  ILE50      -0.1977
    114  CA        -9.2080   19.7300   -6.6640 C.3    50  ILE50       0.1596
    115  C         -9.3470   18.5840   -5.6640 C.2    50  ILE50       0.2287
    116  O         -8.3460   17.9870   -5.2760 O.2    50  ILE50      -0.2864
    117  CB        -8.4290   19.2270   -7.9120 C.3    50  ILE50       0.0276
    118  CG1       -8.0820   20.3950   -8.8610 C.3    50  ILE50       0.0022
    119  CG2       -9.2870   18.2140   -8.6920 C.3    50  ILE50       0.0022
    120  CD1       -9.2900   21.3050   -9.2100 C.3    50  ILE50       0.0001
    121  N        -23.8140   15.2710   -1.3190 N.3    59  ARG59      -0.1245
    122  CA       -22.9230   16.0360   -0.4180 C.3    59  ARG59       0.1563
    123  C        -21.5340   15.4440   -0.5890 C.2    59  ARG59       0.2260
    124  O        -21.3390   14.2510   -0.4390 O.2    59  ARG59      -0.2867
    125  CB       -23.3030   15.8360    1.0650 C.3    59  ARG59       0.0307
    126  CG       -24.5410   16.5830    1.6100 C.3    59  ARG59       0.0489
    127  CD       -24.9510   16.0480    3.0250 C.3    59  ARG59       0.2205
    128  NE       -26.1920   16.6680    3.5480 N.pl3  59  ARG59      -0.0865
    129  CZ       -26.2370   17.9130    4.0190 C.cat  59  ARG59       0.5346
    130  NH1      -25.1330   18.6420    4.0320 N.pl3  59  ARG59       0.1354
    131  NH2      -27.3790   18.4500    4.4240 N.pl3  59  ARG59       0.1354
    132  N         -3.6640   21.0340   -5.2320 N.3    70  ASN70      -0.1240
    133  CA        -3.9940   22.4210   -5.4880 C.3    70  ASN70       0.1653
    134  C         -3.4390   22.8600   -6.8150 C.2    70  ASN70       0.2266
    135  O         -2.3670   22.4390   -7.1420 O.2    70  ASN70      -0.2867
    136  CB        -3.3970   23.2860   -4.3650 C.3    70  ASN70       0.1155
    137  CG        -4.2540   23.2810   -3.1150 C.2    70  ASN70       0.2627
    138  OD1       -5.2720   22.6080   -3.0560 O.2    70  ASN70      -0.2716
    139  ND2       -3.8650   24.0530   -2.1250 N.am   70  ASN70      -0.0877
    140  N        -15.5540   33.0170  -11.2670 N.3    80  GLY80      -0.1225
    141  CA       -16.2460   32.3590  -12.3810 C.3    80  GLY80       0.1811
    142  C        -15.6400   32.5940  -13.7600 C.2    80  GLY80       0.2280
    143  O        -16.0220   31.9170  -14.7240 O.2    80  GLY80      -0.2866
    144  N        -10.4610   20.5750  -15.9630 N.3    86  VAL86      -0.1245
    145  CA       -10.1440   19.4150  -15.1020 C.3    86  VAL86       0.1561
    146  C        -10.4110   18.1300  -15.9360 C.2    86  VAL86       0.2260
    147  O        -11.4920   17.9860  -16.5500 O.2    86  VAL86      -0.2867
    148  CB       -11.0760   19.4200  -13.8620 C.3    86  VAL86       0.0252
    149  CG1      -10.9290   18.0940  -13.0300 C.3    86  VAL86       0.0019
    150  CG2      -10.8530   20.6680  -12.9690 C.3    86  VAL86       0.0019
    151  N        -30.6910   18.9570   -0.6840 N.3   141  PHE141     -0.1241
    152  CA       -29.3930   19.5730   -0.4770 C.3   141  PHE141      0.1605
    153  C        -28.8430   20.2100   -1.7640 C.2   141  PHE141      0.2264
    154  O        -28.3340   21.3480   -1.7590 O.2   141  PHE141     -0.2867
    155  CB       -28.3740   18.5400    0.0210 C.3   141  PHE141      0.0534
    156  CG       -26.9410   19.0720    0.0600 C.ar  141  PHE141     -0.0203
    157  CD1      -26.5420   19.9460    1.0700 C.ar  141  PHE141     -0.0042
    158  CD2      -26.0020   18.6930   -0.9040 C.ar  141  PHE141     -0.0042
    159  CE1      -25.2300   20.4870    1.1020 C.ar  141  PHE141     -0.0003
    160  CE2      -24.6720   19.2090   -0.8650 C.ar  141  PHE141     -0.0003
    161  CZ       -24.3060   20.0910    0.1370 C.ar  141  PHE141     -0.0000
    162  N        -28.5830   28.9030   -3.3620 N.3   148  ARG148     -0.1245
    163  CA       -27.6210   29.7220   -2.7260 C.3   148  ARG148      0.1563
    164  C        -26.6050   30.3270   -3.7160 C.2   148  ARG148      0.2260
    165  O        -26.3650   31.5710   -3.7130 O.2   148  ARG148     -0.2867
    166  CB       -26.9620   28.9870   -1.5250 C.3   148  ARG148      0.0307
    167  CG       -25.8430   29.7660   -0.8980 C.3   148  ARG148      0.0489
    168  CD       -25.5140   29.3810    0.5730 C.3   148  ARG148      0.2205
    169  NE       -25.8880   28.0200    0.9530 N.pl3 148  ARG148     -0.0865
    170  CZ       -26.6270   27.7190    2.0150 C.cat 148  ARG148      0.5346
    171  NH1      -26.9090   26.4720    2.2930 N.pl3 148  ARG148      0.1354
    172  NH2      -27.0990   28.6820    2.8010 N.pl3 148  ARG148      0.1354
    173  N        -30.5150   27.9640    5.8190 N.3   191  GLU191     -0.1245
    174  CA       -30.6940   26.7480    5.0110 C.3   191  GLU191      0.1567
    175  C        -32.1140   26.6590    4.5350 C.2   191  GLU191      0.2260
    176  O        -32.6090   25.5820    4.2400 O.2   191  GLU191     -0.2867
    177  CB       -30.3890   25.4700    5.8120 C.3   191  GLU191      0.0388
    178  CG       -29.3110   25.6070    6.8640 C.3   191  GLU191      0.1160
    179  CD       -27.9390   25.8420    6.2640 C.2   191  GLU191      0.3649
    180  OE1      -27.6990   25.3720    5.1290 O.co2 191  GLU191     -0.2457
    181  OE2      -27.0960   26.4860    6.9270 O.co2 191  GLU191     -0.2457
@<TRIPOS>BOND
     1   147   146    2
     2   144   145    1
     3   146   145    1
     4    41    42    1
     5   145   148    1
     6    44    43    2
     7   143   142    2
     8    42    43    1
     9    42    45    1
    10    43    52   am
    11   148   149    1
    12   148   150    1
    13   142   141    1
    14    49    47   ar
    15    49    51   ar
    16    47    46   ar
    17    51    50   ar
    18    57    56    1
    19    56    53    1
    20    46    45    1
    21    46    48   ar
    22    52    53    1
    23    50    48   ar
    24    53    54    1
    25   141   140    1
    26    54    58   am
    27    54    55    2
    28    58    59    1
    29     8     6    1
    30    63    62    1
    31    64    62    1
    32     6     5    1
    33     7     5    1
    34    61    60    2
    35   120   118    1
    36    59    62    1
    37    59    60    1
    38   105   103    1
    39   118   117    1
    40   119   117    1
    41    24    22    1
    42     1     2    1
    43    60    65   am
    44     5     2    1
    45   104   103    1
    46    82    81    2
    47   117   114    1
    48   103   100    1
    49     2     3    1
    50    22    23    1
    51    22    19    1
    52    91    90    2
    53    32    31    1
    54    65    66    1
    55   135   134    2
    56    73    72    2
    57     4     3    2
    58    99   100    1
    59    99    96   am
    60    90    89    1
    61    90    94   am
    62   134   133    1
    63     3     9   am
    64    81    88   am
    65    81    80    1
    66    89    88    1
    67    89    92    1
    68   114   113    1
    69   114   115    1
    70   100   101    1
    71    79    80    1
    72    66    67    1
    73    66    69    1
    74    96    95    1
    75    96    97    2
    76    95    94    1
    77    95    98    1
    78   102   101    2
    79    72    71    1
    80    31    30    1
    81    83    80    1
    82    83    84    1
    83    19    18    1
    84    19    20    1
    85    92    93    1
    86    12    11    2
    87    67    70   am
    88    67    68    2
    89   113   108   am
    90   101   106   am
    91    70    71    1
    92    87    85   am
    93     9    10    1
    94   115   116    2
    95    18    11   am
    96    85    86    2
    97    85    84    1
    98    29    30    1
    99    29    26    1
   100    11    10    1
   101   133   132    1
   102   133   136    1
   103    25    20   am
   104    25    26    1
   105    71    74    1
   106   108   109    2
   107   108   107    1
   108    20    21    2
   109   106   107    1
   110    10    13    1
   111    26    27    1
   112   107   110    1
   113    28    27    2
   114   136   137    1
   115    74    75    1
   116    27    33   am
   117   164   165    2
   118   164   163    1
   119    13    14    1
   120   162   163    1
   121   137   138    2
   122   137   139   am
   123   110   112    1
   124   110   111    1
   125    75    76    1
   126   163   166    1
   127    14    15    1
   128    33    34    1
   129    76    77   ar
   130    76    78   ar
   131   153   154    2
   132   153   152    1
   133    39    40    1
   134    39    38    1
   135    34    35    1
   136   166   167    1
   137    37    35   am
   138    37    38    1
   139   121   122    1
   140    15    16   ar
   141    15    17   ar
   142    35    36    2
   143   158   160   ar
   144   158   156   ar
   145   167   168    1
   146   160   161   ar
   147   151   152    1
   148   123   124    2
   149   123   122    1
   150   152   155    1
   151   122   125    1
   152   155   156    1
   153   156   157   ar
   154   161   159   ar
   155   168   169    1
   156   169   170    2
   157   125   126    1
   158   157   159   ar
   159   126   127    1
   160   170   171    1
   161   170   172    1
   162   127   128    1
   163   128   129    2
   164   129   130    1
   165   129   131    1
   166   176   175    2
   167   175   174    1
   168   174   177    1
   169   174   173    1
   170   180   179   ar
   171   177   178    1
   172   179   178    1
   173   179   181   ar
