@<TRIPOS>MOLECULE
tmp/4ezxB00.pdb
 211 206 0 0 0
SMALL
GASTEIGER

@<TRIPOS>ATOM
      1  N        -24.7990   19.6470  -14.6890 N.3    13  ILE13      -0.1231
      2  CA       -25.1050   19.4520  -13.2630 C.3    13  ILE13       0.1692
      3  C        -24.2070   18.4080  -12.6830 C.2    13  ILE13       0.2592
      4  O        -23.6260   17.5690  -13.3870 O.2    13  ILE13      -0.2718
      5  CB       -26.5710   19.0180  -12.9840 C.3    13  ILE13       0.0266
      6  CG1      -26.9090   17.6830  -13.6580 C.3    13  ILE13       0.0019
      7  CG2      -27.4650   20.1160  -13.5570 C.3    13  ILE13       0.0020
      8  CD1      -28.3070   17.2440  -13.2760 C.3    13  ILE13       0.0001
      9  N        -24.0560   18.4530  -11.3350 N.am   14  GLU14      -0.1966
     10  CA       -23.2430   17.3630  -10.7520 C.3    14  GLU14       0.1733
     11  C        -24.0710   16.0820  -10.6650 C.2    14  GLU14       0.2617
     12  O        -25.2290   16.1380  -10.2390 O.2    14  GLU14      -0.2715
     13  CB       -22.9460   17.8100   -9.3210 C.3    14  GLU14       0.0429
     14  CG       -22.0520   16.7940   -8.5790 C.3    14  GLU14       0.1163
     15  CD       -21.3820   17.4850   -7.3760 C.2    14  GLU14       0.3649
     16  OE1      -21.7040   18.6610   -7.0200 O.co2  14  GLU14      -0.2457
     17  OE2      -20.4980   16.8660   -6.7540 O.co2  14  GLU14      -0.2457
     18  N        -23.4800   14.9310  -11.0020 N.am   15  THR15      -0.1937
     19  CA       -24.2030   13.6690  -10.7830 C.3    15  THR15       0.2028
     20  C        -23.3910   12.8670   -9.8060 C.2    15  THR15       0.2642
     21  O        -22.2950   13.2610   -9.4000 O.2    15  THR15      -0.2714
     22  CB       -24.4840   12.9520  -12.1130 C.3    15  THR15       0.1808
     23  OG1      -23.2100   12.7350  -12.7560 O.3    15  THR15      -0.2208
     24  CG2      -25.4250   13.8420  -12.9670 C.3    15  THR15       0.0379
     25  N        -24.0010   11.7750   -9.3440 N.am   16  MET16      -0.1962
     26  CA       -23.4540   10.9050   -8.2970 C.3    16  MET16       0.1736
     27  C        -21.9280   10.7030   -8.3710 C.2    16  MET16       0.2617
     28  O        -21.4500   10.2880   -9.4160 O.2    16  MET16      -0.2715
     29  CB       -24.1260    9.5450   -8.3860 C.3    16  MET16       0.0427
     30  CG       -23.6880    8.7020   -7.1590 C.3    16  MET16       0.0599
     31  SD       -24.4200    7.0600   -7.2680 S.3    16  MET16      -0.1393
     32  CE       -23.8260    6.2520   -5.7680 C.3    16  MET16       0.0692
     33  N        -21.2300   10.9340   -7.2470 N.am   17  GLY17      -0.1955
     34  CA       -19.7740   10.6640   -7.2930 C.3    17  GLY17       0.1869
     35  C        -18.9990   11.9280   -7.6250 C.2    17  GLY17       0.2309
     36  O        -17.7590   11.8900   -7.5720 O.2    17  GLY17      -0.2863
     37  N        -21.9730   16.3350  -15.4470 N.3    21  THR21      -0.1218
     38  CA       -22.7150   15.8310  -16.5890 C.3    21  THR21       0.1862
     39  C        -23.2900   16.9930  -17.3500 C.2    21  THR21       0.2287
     40  O        -24.0250   17.8150  -16.8130 O.2    21  THR21      -0.2866
     41  CB       -23.8640   14.9500  -16.1060 C.3    21  THR21       0.1770
     42  OG1      -23.3150   13.7780  -15.4950 O.3    21  THR21      -0.2211
     43  CG2      -24.8000   14.5370  -17.2800 C.3    21  THR21       0.0375
     44  N        -32.6510   16.4220  -19.8410 N.3    36  GLN36      -0.1231
     45  CA       -32.2250   15.0130  -19.6400 C.3    36  GLN36       0.1698
     46  C        -32.8920   14.5070  -18.3720 C.2    36  GLN36       0.2592
     47  O        -33.1470   15.2700  -17.4410 O.2    36  GLN36      -0.2718
     48  CB       -30.6600   14.8830  -19.5900 C.3    36  GLN36       0.0381
     49  CG       -30.1210   13.4830  -19.2370 C.3    36  GLN36       0.0905
     50  CD       -28.5950   13.3750  -19.4750 C.2    36  GLN36       0.2608
     51  OE1      -28.0160   14.2060  -20.1930 O.2    36  GLN36      -0.2717
     52  NE2      -27.9500   12.3470  -18.8970 N.am   36  GLN36      -0.0878
     53  N        -33.1590   13.2180  -18.3370 N.am   37  VAL37      -0.1966
     54  CA       -33.8680   12.6210  -17.2070 C.3    37  VAL37       0.1727
     55  C        -32.8110   11.9070  -16.3240 C.2    37  VAL37       0.2616
     56  O        -31.9620   11.1600  -16.8330 O.2    37  VAL37      -0.2715
     57  CB       -34.9630   11.6400  -17.6790 C.3    37  VAL37       0.0290
     58  CG1      -35.6750   10.9840  -16.4670 C.3    37  VAL37       0.0023
     59  CG2      -35.9380   12.3240  -18.6490 C.3    37  VAL37       0.0023
     60  N        -32.9150   12.1480  -15.0180 N.am   38  PHE38      -0.1960
     61  CA       -32.0120   11.5550  -14.0260 C.3    38  PHE38       0.1771
     62  C        -32.8060   10.8010  -13.0130 C.2    38  PHE38       0.2620
     63  O        -34.0520   10.8770  -13.0140 O.2    38  PHE38      -0.2715
     64  CB       -31.2450   12.7070  -13.3440 C.3    38  PHE38       0.0574
     65  CG       -30.3750   13.4350  -14.3200 C.ar   38  PHE38      -0.0200
     66  CD1      -30.8600   14.5590  -14.9870 C.ar   38  PHE38      -0.0042
     67  CD2      -29.0270   13.0480  -14.5190 C.ar   38  PHE38      -0.0042
     68  CE1      -30.0750   15.2470  -15.9050 C.ar   38  PHE38      -0.0003
     69  CE2      -28.2360   13.7820  -15.3980 C.ar   38  PHE38      -0.0003
     70  CZ       -28.7610   14.8510  -16.0970 C.ar   38  PHE38      -0.0000
     71  N        -32.1310   10.0030  -12.1820 N.am   39  SER39      -0.1936
     72  CA       -32.8750    9.3520  -11.1130 C.3    39  SER39       0.2055
     73  C        -32.1510    9.6180   -9.8040 C.2    39  SER39       0.2644
     74  O        -31.2370   10.4620   -9.7530 O.2    39  SER39      -0.2714
     75  CB       -33.0200    7.8400  -11.3600 C.3    39  SER39       0.2130
     76  OG       -33.9470    7.3220  -10.4080 O.3    39  SER39      -0.2179
     77  N        -32.5450    8.9240   -8.7400 N.am   40  THR40      -0.1936
     78  CA       -31.9520    9.1090   -7.4330 C.3    40  THR40       0.2028
     79  C        -30.7950    8.0830   -7.2210 C.2    40  THR40       0.2642
     80  O        -30.7580    6.9960   -7.8500 O.2    40  THR40      -0.2714
     81  CB       -32.9650    8.8730   -6.3390 C.3    40  THR40       0.1808
     82  OG1      -33.6770    7.6770   -6.6470 O.3    40  THR40      -0.2208
     83  CG2      -33.9970   10.0470   -6.1810 C.3    40  THR40       0.0379
     84  N        -29.8630    8.4810   -6.3690 N.am   41  ALA41      -0.1963
     85  CA       -28.5600    7.7600   -6.1660 C.3    41  ALA41       0.1728
     86  C        -28.7360    6.6450   -5.1590 C.2    41  ALA41       0.2616
     87  O        -28.0070    5.6600   -5.1910 O.2    41  ALA41      -0.2715
     88  CB       -27.4880    8.7270   -5.6840 C.3    41  ALA41       0.0334
     89  N        -29.6850    6.8060   -4.2560 N.am   42  GLU42      -0.1977
     90  CA       -29.8540    5.8300   -3.1610 C.3    42  GLU42       0.1602
     91  C        -31.3220    5.5260   -2.9810 C.2    42  GLU42       0.2287
     92  O        -32.1730    6.3690   -3.2570 O.2    42  GLU42      -0.2864
     93  CB       -29.3050    6.3620   -1.8360 C.3    42  GLU42       0.0415
     94  CG       -27.8110    6.7700   -1.8990 C.3    42  GLU42       0.1163
     95  CD       -26.7990    5.6280   -2.1960 C.2    42  GLU42       0.3649
     96  OE1      -27.0990    4.3830   -2.2300 O.co2  42  GLU42      -0.2457
     97  OE2      -25.6250    6.0240   -2.4000 O.co2  42  GLU42      -0.2457
     98  N        -34.6830    7.9660   -1.4040 N.3    45  GLN45      -0.1231
     99  CA       -34.2650    9.3350   -1.4150 C.3    45  GLN45       0.1698
    100  C        -35.5160   10.2100   -1.6670 C.2    45  GLN45       0.2593
    101  O        -36.2540   10.0080   -2.6380 O.2    45  GLN45      -0.2718
    102  CB       -33.2450    9.4450   -2.5510 C.3    45  GLN45       0.0381
    103  CG       -32.3660   10.6290   -2.4010 C.3    45  GLN45       0.0905
    104  CD       -31.2840   10.6330   -3.4510 C.2    45  GLN45       0.2608
    105  OE1      -30.4420    9.6680   -3.5500 O.2    45  GLN45      -0.2717
    106  NE2      -31.2780   11.6920   -4.2470 N.am   45  GLN45      -0.0878
    107  N        -35.7550   11.1920   -0.8110 N.am   46  SER46      -0.1938
    108  CA       -36.9540   12.0440   -0.9650 C.3    46  SER46       0.2055
    109  C        -36.6380   13.4310   -1.6300 C.2    46  SER46       0.2643
    110  O        -37.5680   14.2330   -1.8990 O.2    46  SER46      -0.2714
    111  CB       -37.6380   12.2350    0.3770 C.3    46  SER46       0.2130
    112  OG       -36.7420   12.9730    1.1840 O.3    46  SER46      -0.2179
    113  N        -35.3660   13.6790   -1.9020 N.am   47  ALA47      -0.1963
    114  CA       -34.9570   14.8890   -2.6160 C.3    47  ALA47       0.1728
    115  C        -33.7160   14.6550   -3.4860 C.2    47  ALA47       0.2616
    116  O        -32.9590   13.7010   -3.2770 O.2    47  ALA47      -0.2715
    117  CB       -34.6470   16.0120   -1.6560 C.3    47  ALA47       0.0334
    118  N        -33.5420   15.5660   -4.4400 N.am   48  VAL48      -0.1963
    119  CA       -32.2950   15.6150   -5.2630 C.3    48  VAL48       0.1727
    120  C        -31.7910   17.0340   -5.2050 C.2    48  VAL48       0.2617
    121  O        -32.5890   17.9950   -5.1600 O.2    48  VAL48      -0.2715
    122  CB       -32.4920   15.1800   -6.7360 C.3    48  VAL48       0.0290
    123  CG1      -32.7810   13.6560   -6.7660 C.3    48  VAL48       0.0023
    124  CG2      -33.6500   15.9370   -7.3820 C.3    48  VAL48       0.0023
    125  N        -30.4700   17.1640   -5.1610 N.am   49  THR49      -0.1937
    126  CA       -29.8550   18.4550   -5.2790 C.3    49  THR49       0.2028
    127  C        -29.3940   18.6580   -6.7180 C.2    49  THR49       0.2642
    128  O        -28.6980   17.8010   -7.3070 O.2    49  THR49      -0.2714
    129  CB       -28.6630   18.6070   -4.3120 C.3    49  THR49       0.1808
    130  OG1      -29.1990   18.4370   -2.9620 O.3    49  THR49      -0.2208
    131  CG2      -28.0260   20.0260   -4.4790 C.3    49  THR49       0.0379
    132  N        -29.7980   19.8050   -7.2560 N.am   50  ILE50      -0.1977
    133  CA       -29.4360   20.1910   -8.6510 C.3    50  ILE50       0.1596
    134  C        -28.3400   21.2260   -8.4550 C.2    50  ILE50       0.2287
    135  O        -28.6210   22.3860   -8.0810 O.2    50  ILE50      -0.2864
    136  CB       -30.6360   20.8060   -9.4030 C.3    50  ILE50       0.0276
    137  CG1      -31.8230   19.8520   -9.4000 C.3    50  ILE50       0.0022
    138  CG2      -30.2640   21.2300  -10.8170 C.3    50  ILE50       0.0022
    139  CD1      -31.5240   18.4910   -9.9710 C.3    50  ILE50       0.0001
    140  N        -32.7940   22.4360   -4.4480 N.3    70  ASN70      -0.1240
    141  CA       -33.2680   21.0480   -4.2250 C.3    70  ASN70       0.1653
    142  C        -34.6660   20.9000   -4.8030 C.2    70  ASN70       0.2266
    143  O        -35.4600   21.8840   -4.8830 O.2    70  ASN70      -0.2867
    144  CB       -33.3760   20.6840   -2.7470 C.3    70  ASN70       0.1155
    145  CG       -32.0290   20.6580   -2.0570 C.2    70  ASN70       0.2627
    146  OD1      -30.9750   20.2870   -2.6330 O.2    70  ASN70      -0.2716
    147  ND2      -32.0410   21.0750   -0.8240 N.am   70  ASN70      -0.0877
    148  N        -33.4240    3.2550   -5.5900 N.3    79  ARG79      -0.1231
    149  CA       -32.5820    4.1510   -6.3680 C.3    79  ARG79       0.1694
    150  C        -32.7710    3.7650   -7.8320 C.2    79  ARG79       0.2593
    151  O        -32.9420    2.5740   -8.1880 O.2    79  ARG79      -0.2718
    152  CB       -31.0990    4.0160   -5.9560 C.3    79  ARG79       0.0321
    153  CG       -30.5550    2.6120   -6.1300 C.3    79  ARG79       0.0489
    154  CD       -29.3420    2.3600   -5.2600 C.3    79  ARG79       0.2205
    155  NE       -28.7880    1.0280   -5.5640 N.pl3  79  ARG79      -0.0865
    156  CZ       -28.3350    0.1180   -4.6610 C.cat  79  ARG79       0.5346
    157  NH1      -28.3630    0.3480   -3.3250 N.pl3  79  ARG79       0.1354
    158  NH2      -27.8760   -1.0770   -5.0910 N.pl3  79  ARG79       0.1354
    159  N        -32.7960    4.7630   -8.6830 N.am   80  GLY80      -0.1942
    160  CA       -32.9150    4.5010  -10.1160 C.3    80  GLY80       0.2014
    161  C        -34.3620    4.4570  -10.6200 C.2    80  GLY80       0.2639
    162  O        -34.5850    4.5570  -11.8130 O.2    80  GLY80      -0.2714
    163  N        -35.3450    4.4190   -9.7230 N.am   81  MET81      -0.1963
    164  CA       -36.7380    4.3480  -10.1700 C.3    81  MET81       0.1722
    165  C        -37.3410    5.7390  -10.3850 C.2    81  MET81       0.2458
    166  O        -38.0000    5.9390  -11.3890 O.2    81  MET81      -0.2730
    167  CB       -37.6270    3.4910   -9.2420 C.3    81  MET81       0.0427
    168  CG       -37.4820    1.9900   -9.5300 C.3    81  MET81       0.0599
    169  SD       -37.6430    1.3850  -11.2580 S.3    81  MET81      -0.1393
    170  CE       -35.9440    0.9760  -11.7850 C.3    81  MET81       0.0692
    171  N        -37.1330    6.7070   -9.4350 N.am   82  PRO82      -0.2716
    172  CA       -37.6920    8.0300   -9.7750 C.3    82  PRO82       0.1536
    173  C        -37.1810    8.6300  -11.0940 C.2    82  PRO82       0.2598
    174  O        -36.0400    8.3430  -11.5110 O.2    82  PRO82      -0.2715
    175  CB       -37.2520    8.9130   -8.5920 C.3    82  PRO82       0.0310
    176  CG       -37.1710    7.9160   -7.4220 C.3    82  PRO82       0.0237
    177  CD       -36.5430    6.6880   -8.0760 C.3    82  PRO82       0.0939
    178  N        -38.0060    9.4800  -11.7290 N.am   83  GLN83      -0.1964
    179  CA       -37.5860   10.1470  -12.9710 C.3    83  GLN83       0.1733
    180  C        -37.6700   11.6780  -12.7580 C.2    83  GLN83       0.2616
    181  O        -38.7830   12.2420  -12.5050 O.2    83  GLN83      -0.2715
    182  CB       -38.5010    9.7010  -14.1160 C.3    83  GLN83       0.0408
    183  CG       -38.3140    8.2320  -14.4710 C.3    83  GLN83       0.0908
    184  CD       -39.2500    7.7890  -15.6150 C.2    83  GLN83       0.2608
    185  OE1      -39.4450    8.5210  -16.5890 O.2    83  GLN83      -0.2717
    186  NE2      -39.8220    6.5870  -15.5010 N.am   83  GLN83      -0.0878
    187  N        -36.5060   12.3370  -12.8590 N.am   84  ILE84      -0.1977
    188  CA       -36.4600   13.7630  -12.5700 C.3    84  ILE84       0.1596
    189  C        -35.9180   14.3510  -13.8540 C.2    84  ILE84       0.2287
    190  O        -34.7690   14.0870  -14.2090 O.2    84  ILE84      -0.2864
    191  CB       -35.4490   14.0840  -11.4590 C.3    84  ILE84       0.0276
    192  CG1      -35.7580   13.2770  -10.1560 C.3    84  ILE84       0.0022
    193  CG2      -35.4110   15.5760  -11.2450 C.3    84  ILE84       0.0022
    194  CD1      -37.1180   13.5460   -9.5430 C.3    84  ILE84       0.0001
    195  N        -34.4220   17.2550  -15.9310 N.3    86  VAL86      -0.1245
    196  CA       -33.7470   18.4900  -15.6900 C.3    86  VAL86       0.1561
    197  C        -33.6800   19.2010  -17.0320 C.2    86  VAL86       0.2260
    198  O        -33.2310   18.5740  -18.0380 O.2    86  VAL86      -0.2867
    199  CB       -32.3130   18.2760  -15.0730 C.3    86  VAL86       0.0252
    200  CG1      -31.5210   19.5730  -15.0880 C.3    86  VAL86       0.0019
    201  CG2      -32.4420   17.6770  -13.6280 C.3    86  VAL86       0.0019
    202  N        -23.0710    1.6960   -3.9540 N.3   153  HIS153     -0.1297
    203  CA       -24.2830    0.8970   -3.9710 C.3   153  HIS153      0.1306
    204  C        -24.1810   -0.4600   -3.2690 C.3   153  HIS153      0.2013
    205  O        -25.1450   -0.9470   -2.5510 O.3   153  HIS153     -0.2188
    206  CB       -24.7850    0.7820   -5.3800 C.3   153  HIS153      0.0691
    207  CG       -25.2780    2.0870   -5.9340 C.ar  153  HIS153      0.0814
    208  ND1      -25.1580    2.4250   -7.2460 N.ar  153  HIS153     -0.2268
    209  CD2      -25.9220    3.1610   -5.3150 C.ar  153  HIS153      0.1154
    210  CE1      -25.7420    3.6010   -7.4620 C.ar  153  HIS153      0.1986
    211  NE2      -26.2170    4.0610   -6.2880 N.ar  153  HIS153     -0.2212
@<TRIPOS>BOND
     1    51    50    2
     2    44    45    1
     3    45    48    1
     4    45    46    1
     5    48    49    1
     6    50    49    1
     7    50    52   am
     8    59    57    1
     9    46    53   am
    10    46    47    2
    11    53    54    1
    12   198   197    2
    13    57    54    1
    14    57    58    1
    15    39    40    2
    16    39    38    1
    17    43    41    1
    18    54    55    1
    19   197   196    1
    20    56    55    2
    21    38    41    1
    22    38    37    1
    23   185   184    2
    24    55    60   am
    25    41    42    1
    26    70    68   ar
    27    70    69   ar
    28   195   196    1
    29    68    66   ar
    30   196   199    1
    31   184   186   am
    32   184   183    1
    33    69    67   ar
    34   200   199    1
    35   199   201    1
    36    60    61    1
    37    66    65   ar
    38     1     2    1
    39    67    65   ar
    40   183   182    1
    41    65    64    1
    42   190   189    2
    43   182   179    1
    44    61    64    1
    45    61    62    1
    46   189   188    1
    47     6     8    1
    48     6     5    1
    49     7     5    1
    50     4     3    2
    51     2     5    1
    52     2     3    1
    53    63    62    2
    54    62    71   am
    55   179   180    1
    56   179   178    1
    57    24    22    1
    58   187   180   am
    59   187   188    1
    60   180   181    2
    61    23    22    1
    62     3     9   am
    63   188   191    1
    64    71    72    1
    65    22    19    1
    66   162   161    2
    67   170   169    1
    68   178   173   am
    69   174   173    2
    70   191   193    1
    71   191   192    1
    72   166   165    2
    73    75    72    1
    74    75    76    1
    75     9    10    1
    76   169   168    1
    77    72    73    1
    78   173   172    1
    79    18    19    1
    80    18    11   am
    81   138   136    1
    82    19    20    1
    83    10    11    1
    84    10    13    1
    85    11    12    2
    86   161   160    1
    87   161   163   am
    88   165   164    1
    89   165   171   am
    90   164   163    1
    91   164   167    1
    92   192   194    1
    93   160   159    1
    94   139   137    1
    95    20    21    2
    96    20    25   am
    97    73    74    2
    98    73    77   am
    99   172   171    1
   100   172   175    1
   101   168   167    1
   102   171   177    1
   103    28    27    2
   104   136   137    1
   105   136   133    1
   106    25    26    1
   107    13    14    1
   108    77    78    1
   109   159   150   am
   110   133   134    1
   111   133   132    1
   112   175   176    1
   113    14    15    1
   114   134   135    2
   115    29    26    1
   116    29    30    1
   117    27    26    1
   118    27    33   am
   119   151   150    2
   120   177   176    1
   121    80    79    2
   122   150   149    1
   123    35    36    2
   124    35    34    1
   125   210   208   ar
   126   210   211   ar
   127    78    79    1
   128    78    81    1
   129   124   122    1
   130    15    16   ar
   131    15    17   ar
   132   128   127    2
   133    34    33    1
   134    31    30    1
   135    31    32    1
   136   132   127   am
   137   208   207   ar
   138    79    84   am
   139   123   122    1
   140   122   119    1
   141   127   126    1
   142    82    81    1
   143    84    85    1
   144   149   152    1
   145   149   148    1
   146    81    83    1
   147   211   209   ar
   148    85    88    1
   149    85    86    1
   150   153   152    1
   151   153   154    1
   152   207   206    1
   153   207   209   ar
   154   155   154    1
   155   155   156    2
   156   206   203    1
   157   126   125    1
   158   126   129    1
   159   119   120    1
   160   119   118    1
   161   120   125   am
   162   120   121    2
   163    87    86    2
   164    86    89   am
   165   158   156    1
   166   143   142    2
   167   142   141    1
   168   156   157    1
   169   131   129    1
   170   140   141    1
   171   118   115   am
   172   129   130    1
   173    89    90    1
   174   106   104   am
   175   141   144    1
   176   203   202    1
   177   203   204    1
   178   105   104    2
   179   115   116    2
   180   115   114    1
   181   104   103    1
   182   204   205    1
   183    92    91    2
   184    90    91    1
   185    90    93    1
   186   144   145    1
   187   101   100    2
   188   146   145    2
   189   114   113    1
   190   114   117    1
   191   102   103    1
   192   102    99    1
   193    97    95   ar
   194    96    95   ar
   195    95    94    1
   196   145   147   am
   197   113   109   am
   198    94    93    1
   199   110   109    2
   200   100    99    1
   201   100   107   am
   202   109   108    1
   203    99    98    1
   204   108   107    1
   205   108   111    1
   206   111   112    1
