@<TRIPOS>MOLECULE
tmp/4ezyA00.pdb
 186 176 0 0 0
SMALL
GASTEIGER

@<TRIPOS>ATOM
      1  N         58.3400   97.2970   30.7640 N.3    13  ILE13      -0.1231
      2  CA        58.5850   96.2080   29.9000 C.3    13  ILE13       0.1692
      3  C         57.2780   95.7520   29.2180 C.2    13  ILE13       0.2592
      4  O         56.1520   96.0000   29.7010 O.2    13  ILE13      -0.2718
      5  CB        59.2660   94.9710   30.6220 C.3    13  ILE13       0.0266
      6  CG1       58.3660   94.3160   31.6750 C.3    13  ILE13       0.0019
      7  CG2       60.6280   95.3520   31.1630 C.3    13  ILE13       0.0020
      8  CD1       58.8700   92.9080   32.0610 C.3    13  ILE13       0.0001
      9  N         57.4460   95.0410   28.1300 N.am   14  GLU14      -0.1966
     10  CA        56.3130   94.4900   27.4500 C.3    14  GLU14       0.1733
     11  C         55.9920   93.1860   28.0840 C.2    14  GLU14       0.2617
     12  O         56.8930   92.3360   28.1810 O.2    14  GLU14      -0.2715
     13  CB        56.6750   94.2640   25.9720 C.3    14  GLU14       0.0429
     14  CG        55.4590   93.6670   25.2520 C.3    14  GLU14       0.1163
     15  CD        55.6590   93.5820   23.7480 C.2    14  GLU14       0.3649
     16  OE1       56.6820   94.0660   23.2860 O.co2  14  GLU14      -0.2457
     17  OE2       54.7920   93.0360   23.0460 O.co2  14  GLU14      -0.2457
     18  N         54.7290   92.9980   28.5020 N.am   15  THR15      -0.1937
     19  CA        54.1990   91.6840   28.9030 C.3    15  THR15       0.2028
     20  C         53.0930   91.1110   27.9940 C.2    15  THR15       0.2642
     21  O         52.6180   91.7560   26.9950 O.2    15  THR15      -0.2714
     22  CB        53.7440   91.7180   30.3700 C.3    15  THR15       0.1808
     23  OG1       52.7230   92.7260   30.4520 O.3    15  THR15      -0.2208
     24  CG2       54.9000   92.2080   31.2220 C.3    15  THR15       0.0379
     25  N         52.6930   89.8720   28.3000 N.am   16  MET16      -0.1962
     26  CA        51.7910   89.1610   27.4000 C.3    16  MET16       0.1736
     27  C         50.5420   89.9180   26.9420 C.2    16  MET16       0.2617
     28  O         49.8160   90.4590   27.7450 O.2    16  MET16      -0.2715
     29  CB        51.3710   87.8380   28.0100 C.3    16  MET16       0.0427
     30  CG        50.3180   87.0700   27.1430 C.3    16  MET16       0.0599
     31  SD        50.1170   85.4960   28.0240 S.3    16  MET16      -0.1393
     32  CE        48.6110   84.7910   27.2520 C.3    16  MET16       0.0692
     33  N         50.3150   89.9700   25.6210 N.am   17  GLY17      -0.1955
     34  CA        49.1980   90.7640   25.0990 C.3    17  GLY17       0.1869
     35  C         49.7250   92.0390   24.4260 C.2    17  GLY17       0.2309
     36  O         48.9610   92.7720   23.7570 O.2    17  GLY17      -0.2863
     37  N         51.2980   94.5560   26.1080 N.3    19  VAL19      -0.1245
     38  CA        51.0120   95.6920   27.0020 C.3    19  VAL19       0.1561
     39  C         52.2850   96.2040   27.7070 C.2    19  VAL19       0.2260
     40  O         53.2390   95.4250   27.8980 O.2    19  VAL19      -0.2867
     41  CB        49.8670   95.2900   27.9890 C.3    19  VAL19       0.0252
     42  CG1       50.3640   94.1740   28.8710 C.3    19  VAL19       0.0019
     43  CG2       49.4470   96.4830   28.8460 C.3    19  VAL19       0.0019
     44  N         53.9840   97.1890   30.9620 N.3    21  THR21      -0.1218
     45  CA        53.8300   97.0260   32.4200 C.3    21  THR21       0.1862
     46  C         54.8620   97.9580   33.0370 C.2    21  THR21       0.2287
     47  O         56.0520   97.7860   32.7740 O.2    21  THR21      -0.2866
     48  CB        54.1200   95.5720   32.8960 C.3    21  THR21       0.1770
     49  OG1       53.0600   94.7670   32.4450 O.3    21  THR21      -0.2211
     50  CG2       54.1360   95.4660   34.5000 C.3    21  THR21       0.0375
     51  N         60.1200   93.6630   39.9490 N.3    36  GLN36      -0.1231
     52  CA        58.8830   92.8620   40.0150 C.3    36  GLN36       0.1698
     53  C         59.2230   91.5080   39.4530 C.2    36  GLN36       0.2592
     54  O         60.2210   91.3960   38.7480 O.2    36  GLN36      -0.2718
     55  CB        57.7840   93.4220   39.1420 C.3    36  GLN36       0.0381
     56  CG        57.0260   94.5500   39.7920 C.3    36  GLN36       0.0905
     57  CD        55.9350   95.0380   38.8670 C.2    36  GLN36       0.2608
     58  OE1       55.1580   94.2540   38.3040 O.2    36  GLN36      -0.2717
     59  NE2       55.9090   96.3270   38.6870 N.am   36  GLN36      -0.0878
     60  N         58.4330   90.4900   39.7700 N.am   37  VAL37      -0.1966
     61  CA        58.7990   89.1270   39.3600 C.3    37  VAL37       0.1727
     62  C         57.7650   88.7010   38.3550 C.2    37  VAL37       0.2616
     63  O         56.5420   88.8850   38.5900 O.2    37  VAL37      -0.2715
     64  CB        58.8140   88.1500   40.5640 C.3    37  VAL37       0.0290
     65  CG1       58.9520   86.6930   40.1100 C.3    37  VAL37       0.0023
     66  CG2       59.8590   88.5150   41.5770 C.3    37  VAL37       0.0023
     67  N         58.2530   88.2090   37.2100 N.am   38  PHE38      -0.1960
     68  CA        57.4560   87.8050   36.1010 C.3    38  PHE38       0.1771
     69  C         57.6570   86.3110   35.8320 C.2    38  PHE38       0.2620
     70  O         58.4880   85.6400   36.5060 O.2    38  PHE38      -0.2715
     71  CB        57.9190   88.5760   34.8930 C.3    38  PHE38       0.0574
     72  CG        57.6390   90.0690   35.0220 C.ar   38  PHE38      -0.0200
     73  CD1       58.5850   90.9170   35.5800 C.ar   38  PHE38      -0.0042
     74  CD2       56.4570   90.5910   34.5460 C.ar   38  PHE38      -0.0042
     75  CE1       58.3220   92.3040   35.7370 C.ar   38  PHE38      -0.0003
     76  CE2       56.1700   91.9760   34.6780 C.ar   38  PHE38      -0.0003
     77  CZ        57.1270   92.8540   35.2430 C.ar   38  PHE38      -0.0000
     78  N         56.9150   85.7610   34.8480 N.am   39  SER39      -0.1936
     79  CA        57.0830   84.3430   34.6410 C.3    39  SER39       0.2055
     80  C         56.8970   84.1250   33.1500 C.2    39  SER39       0.2644
     81  O         56.6290   85.0720   32.3940 O.2    39  SER39      -0.2714
     82  CB        56.0660   83.4750   35.4360 C.3    39  SER39       0.2130
     83  OG        56.4600   82.0470   35.3070 O.3    39  SER39      -0.2179
     84  N         56.8710   82.8670   32.7970 N.am   40  THR40      -0.1936
     85  CA        56.7880   82.4480   31.3870 C.3    40  THR40       0.2028
     86  C         55.3570   82.3080   30.9250 C.2    40  THR40       0.2642
     87  O         54.4470   81.9830   31.6930 O.2    40  THR40      -0.2714
     88  CB        57.5020   81.0990   31.1540 C.3    40  THR40       0.1808
     89  OG1       56.9710   80.1310   32.0330 O.3    40  THR40      -0.2208
     90  CG2       58.9860   81.1710   31.3480 C.3    40  THR40       0.0379
     91  N         55.1500   82.5080   29.6160 N.am   41  ALA41      -0.1963
     92  CA        53.8000   82.3590   29.0150 C.3    41  ALA41       0.1728
     93  C         53.4380   80.9420   28.5150 C.2    41  ALA41       0.2616
     94  O         52.2680   80.6430   28.3880 O.2    41  ALA41      -0.2715
     95  CB        53.6340   83.3620   27.8630 C.3    41  ALA41       0.0334
     96  N         54.4140   80.0780   28.2270 N.am   42  GLU42      -0.1977
     97  CA        54.1810   78.7470   27.6740 C.3    42  GLU42       0.1602
     98  C         54.8590   77.6410   28.4630 C.2    42  GLU42       0.2287
     99  O         55.9390   77.8650   28.9670 O.2    42  GLU42      -0.2864
    100  CB        54.8630   78.6430   26.2920 C.3    42  GLU42       0.0415
    101  CG        54.3800   79.6620   25.3250 C.3    42  GLU42       0.1163
    102  CD        53.0070   79.3080   24.7730 C.2    42  GLU42       0.3649
    103  OE1       52.3830   78.3670   25.3200 O.co2  42  GLU42      -0.2457
    104  OE2       52.5630   79.9490   23.7940 O.co2  42  GLU42      -0.2457
    105  N         58.8690   76.8150   28.1970 N.3    45  GLN45      -0.1245
    106  CA        59.5570   78.0090   27.7110 C.3    45  GLN45       0.1566
    107  C         60.9960   78.1400   28.1970 C.2    45  GLN45       0.2260
    108  O         61.2580   78.0910   29.4220 O.2    45  GLN45      -0.2867
    109  CB        58.7670   79.2870   28.1050 C.3    45  GLN45       0.0367
    110  CG        59.2420   80.5040   27.3390 C.3    45  GLN45       0.0905
    111  CD        58.2790   81.6630   27.5290 C.2    45  GLN45       0.2608
    112  OE1       57.0660   81.4460   27.6280 O.2    45  GLN45      -0.2717
    113  NE2       58.8120   82.8850   27.6160 N.am   45  GLN45      -0.0878
    114  N         63.3020   80.6610   27.3400 N.3    47  ALA47      -0.1231
    115  CA        63.8540   82.0060   27.3000 C.3    47  ALA47       0.1694
    116  C         62.7270   83.0450   27.4490 C.2    47  ALA47       0.2592
    117  O         61.5690   82.7510   27.0940 O.2    47  ALA47      -0.2718
    118  CB        64.6390   82.2280   26.0050 C.3    47  ALA47       0.0304
    119  N         63.0830   84.2300   27.9330 N.am   48  VAL48      -0.1966
    120  CA        62.1750   85.3900   27.9630 C.3    48  VAL48       0.1727
    121  C         62.8630   86.5510   27.2860 C.2    48  VAL48       0.2617
    122  O         64.0850   86.6830   27.3680 O.2    48  VAL48      -0.2715
    123  CB        61.7340   85.8780   29.3510 C.3    48  VAL48       0.0290
    124  CG1       60.7960   84.8310   29.9670 C.3    48  VAL48       0.0023
    125  CG2       62.9220   86.1600   30.2640 C.3    48  VAL48       0.0023
    126  N         62.0690   87.3260   26.5580 N.am   49  THR49      -0.1937
    127  CA        62.5580   88.5480   25.9220 C.3    49  THR49       0.2028
    128  C         62.0920   89.7550   26.7920 C.2    49  THR49       0.2642
    129  O         60.8830   89.9390   27.0100 O.2    49  THR49      -0.2714
    130  CB        62.0530   88.6680   24.4660 C.3    49  THR49       0.1808
    131  OG1       62.6890   87.6210   23.7130 O.3    49  THR49      -0.2208
    132  CG2       62.4480   90.0650   23.8140 C.3    49  THR49       0.0379
    133  N         63.0720   90.5090   27.2990 N.am   50  ILE50      -0.1977
    134  CA        62.7950   91.7530   28.0520 C.3    50  ILE50       0.1596
    135  C         62.8580   92.9160   27.0530 C.2    50  ILE50       0.2287
    136  O         63.9150   93.1850   26.4870 O.2    50  ILE50      -0.2864
    137  CB        63.8230   91.9600   29.1650 C.3    50  ILE50       0.0276
    138  CG1       63.9530   90.6830   30.0060 C.3    50  ILE50       0.0022
    139  CG2       63.4890   93.2570   29.9350 C.3    50  ILE50       0.0022
    140  CD1       62.7720   90.3090   30.8950 C.3    50  ILE50       0.0001
    141  N         67.4770   89.1090   25.7640 N.3    70  ASN70      -0.1240
    142  CA        66.8560   87.8420   26.1460 C.3    70  ASN70       0.1653
    143  C         67.5480   87.2770   27.3580 C.2    70  ASN70       0.2266
    144  O         68.7520   87.5240   27.5200 O.2    70  ASN70      -0.2867
    145  CB        66.9820   86.8210   25.0460 C.3    70  ASN70       0.1155
    146  CG        65.9290   87.0060   23.9820 C.2    70  ASN70       0.2627
    147  OD1       65.2950   88.0280   23.9020 O.2    70  ASN70      -0.2716
    148  ND2       65.7570   86.0010   23.1430 N.am   70  ASN70      -0.0877
    149  N         54.0470   76.6200   32.2530 N.3    79  ARG79      -0.1231
    150  CA        53.9600   78.1220   32.1890 C.3    79  ARG79       0.1694
    151  C         53.6010   78.6870   33.5690 C.2    79  ARG79       0.2592
    152  O         52.8910   78.0520   34.3430 O.2    79  ARG79      -0.2718
    153  CB        52.9270   78.6550   31.2000 C.3    79  ARG79       0.0321
    154  CG        51.6260   77.9250   31.3580 C.3    79  ARG79       0.0489
    155  CD        50.6640   78.2800   30.2080 C.3    79  ARG79       0.2205
    156  NE        49.9410   79.4870   30.5720 N.pl3  79  ARG79      -0.0865
    157  CZ        48.9850   80.0040   29.8150 C.cat  79  ARG79       0.5346
    158  NH1       48.6390   79.3940   28.6850 N.pl3  79  ARG79       0.1354
    159  NH2       48.3710   81.1040   30.2070 N.pl3  79  ARG79       0.1354
    160  N         54.1170   79.8770   33.8550 N.am   80  GLY80      -0.1957
    161  CA        53.7330   80.5850   35.0700 C.3    80  GLY80       0.1869
    162  C         54.4760   80.1270   36.3340 C.2    80  GLY80       0.2309
    163  O         54.1860   80.6420   37.4080 O.2    80  GLY80      -0.2863
    164  N         61.1360   85.1400   37.2780 N.3    84  ILE84      -0.1245
    165  CA        62.1420   85.9140   36.5570 C.3    84  ILE84       0.1561
    166  C         62.0670   87.3020   37.1290 C.2    84  ILE84       0.2260
    167  O         61.0590   87.9890   36.9450 O.2    84  ILE84      -0.2867
    168  CB        61.8660   85.9760   35.0270 C.3    84  ILE84       0.0252
    169  CG1       61.8110   84.5590   34.3490 C.3    84  ILE84       0.0019
    170  CG2       62.9430   86.8260   34.3720 C.3    84  ILE84       0.0019
    171  CD1       63.0730   83.7150   34.5660 C.3    84  ILE84       0.0001
    172  N         62.7920   91.0810   37.4630 N.3    86  VAL86      -0.1245
    173  CA        63.2210   92.1530   36.6000 C.3    86  VAL86       0.1561
    174  C         63.4020   93.3930   37.4310 C.2    86  VAL86       0.2260
    175  O         62.4990   93.7840   38.1930 O.2    86  VAL86      -0.2867
    176  CB        62.1700   92.4290   35.5300 C.3    86  VAL86       0.0252
    177  CG1       62.5890   93.6520   34.6860 C.3    86  VAL86       0.0019
    178  CG2       61.9970   91.1810   34.6780 C.3    86  VAL86       0.0019
    179  N         43.0970   82.6420   27.5450 N.3   152  ASP152     -0.1239
    180  CA        44.2310   81.7620   27.2960 C.3   152  ASP152      0.1674
    181  C         44.4700   80.9230   28.5760 C.2   152  ASP152      0.2266
    182  O         44.7360   79.7270   28.4930 O.2   152  ASP152     -0.2867
    183  CB        45.4280   82.6100   26.9260 C.3   152  ASP152      0.1410
    184  CG        46.6900   81.7670   26.6580 C.2   152  ASP152      0.3668
    185  OD1       46.8900   81.3320   25.5000 O.co2 152  ASP152     -0.2456
    186  OD2       47.4900   81.6540   27.6060 O.co2 152  ASP152     -0.2456
@<TRIPOS>BOND
     1    17    15   ar
     2   148   146   am
     3    16    15   ar
     4   131   130    1
     5    15    14    1
     6    36    35    2
     7   104   102   ar
     8   132   130    1
     9   147   146    2
    10   146   145    1
    11    35    34    1
    12   130   127    1
    13   102   103   ar
    14   102   101    1
    15   145   142    1
    16    34    33    1
    17    14    13    1
    18   101   100    1
    19   185   184   ar
    20    33    27   am
    21   141   142    1
    22   127   126    1
    23   127   128    1
    24    13    10    1
    25   118   115    1
    26    37    38    1
    27   142   143    1
    28   100    97    1
    29   136   135    2
    30   126   121   am
    31   184   183    1
    32   184   186   ar
    33   128   129    2
    34   128   133   am
    35   183   180    1
    36    27    26    1
    37    27    28    2
    38    21    20    2
    39    38    39    1
    40    38    41    1
    41   135   134    1
    42   117   116    2
    43    30    29    1
    44    30    31    1
    45    32    31    1
    46   121   122    2
    47   121   120    1
    48   180   179    1
    49   180   181    1
    50   133   134    1
    51   115   114    1
    52   115   116    1
    53   110   111    1
    54   110   109    1
    55   143   144    2
    56    26    29    1
    57    26    25    1
    58   116   119   am
    59    10    11    1
    60    10     9    1
    61   111   113   am
    62   111   112    2
    63    97    96    1
    64    97    98    1
    65    39    40    2
    66   106   109    1
    67   106   105    1
    68   106   107    1
    69    95    92    1
    70   119   120    1
    71   120   123    1
    72    41    43    1
    73    41    42    1
    74    20    25   am
    75    20    19    1
    76   134   137    1
    77    11    12    2
    78    11    18   am
    79     9     3   am
    80   107   108    2
    81    96    93   am
    82    94    93    2
    83    98    99    2
    84   182   181    2
    85    18    19    1
    86    93    92    1
    87   158   157    1
    88    19    22    1
    89    92    91    1
    90   137   139    1
    91   137   138    1
    92     3     4    2
    93     3     2    1
    94   123   124    1
    95   123   125    1
    96    91    86   am
    97   157   159    1
    98   157   156    2
    99     2     5    1
   100     2     1    1
   101   138   140    1
   102   155   156    1
   103   155   154    1
   104    22    23    1
   105    22    24    1
   106     5     7    1
   107     5     6    1
   108    86    85    1
   109    86    87    2
   110    44    45    1
   111    88    90    1
   112    88    85    1
   113    88    89    1
   114   153   154    1
   115   153   150    1
   116    85    84    1
   117     6     8    1
   118   150   149    1
   119   150   151    1
   120    81    80    2
   121    45    48    1
   122    45    46    1
   123    49    48    1
   124    47    46    2
   125    84    80   am
   126    48    50    1
   127    80    79    1
   128   151   160   am
   129   151   152    2
   130   160   161    1
   131   169   171    1
   132   169   168    1
   133   170   168    1
   134    74    76   ar
   135    74    72   ar
   136    79    78    1
   137    79    82    1
   138    76    77   ar
   139   178   176    1
   140   177   176    1
   141    78    69   am
   142    71    72    1
   143    71    68    1
   144    72    73   ar
   145   168   165    1
   146   161   162    1
   147    77    75   ar
   148    83    82    1
   149   176   173    1
   150    73    75   ar
   151    69    68    1
   152    69    70    2
   153    68    67    1
   154   162   163    2
   155   165   166    1
   156   165   164    1
   157   173   174    1
   158   173   172    1
   159   167   166    2
   160    67    62   am
   161   174   175    2
   162    58    57    2
   163    62    63    2
   164    62    61    1
   165    59    57   am
   166    54    53    2
   167    57    56    1
   168    55    56    1
   169    55    52    1
   170    61    60    1
   171    61    64    1
   172    53    60   am
   173    53    52    1
   174    51    52    1
   175    65    64    1
   176    64    66    1
