@<TRIPOS>MOLECULE
tmp/4ezzA00.pdb
 181 174 0 0 0
SMALL
GASTEIGER

@<TRIPOS>ATOM
      1  N         57.7820   97.1880   30.6770 N.3    13  ILE13      -0.1231
      2  CA        58.0230   96.0810   29.7760 C.3    13  ILE13       0.1692
      3  C         56.7310   95.6710   29.0560 C.2    13  ILE13       0.2592
      4  O         55.6090   95.8780   29.5240 O.2    13  ILE13      -0.2718
      5  CB        58.6400   94.8270   30.4560 C.3    13  ILE13       0.0266
      6  CG1       57.6710   94.2230   31.4620 C.3    13  ILE13       0.0019
      7  CG2       59.9470   95.1440   31.1270 C.3    13  ILE13       0.0020
      8  CD1       58.1650   92.8540   31.9560 C.3    13  ILE13       0.0001
      9  N         56.9030   95.0860   27.9000 N.am   14  GLU14      -0.1966
     10  CA        55.7950   94.5190   27.1990 C.3    14  GLU14       0.1733
     11  C         55.4560   93.1730   27.8400 C.2    14  GLU14       0.2617
     12  O         56.3110   92.3080   27.9890 O.2    14  GLU14      -0.2715
     13  CB        56.2070   94.3100   25.7660 C.3    14  GLU14       0.0429
     14  CG        55.0700   93.7130   24.9500 C.3    14  GLU14       0.1163
     15  CD        55.3690   93.7650   23.4690 C.2    14  GLU14       0.3649
     16  OE1       56.4940   94.1620   23.1470 O.co2  14  GLU14      -0.2457
     17  OE2       54.5090   93.4020   22.6300 O.co2  14  GLU14      -0.2457
     18  N         54.1970   92.9550   28.1820 N.am   15  THR15      -0.1937
     19  CA        53.7640   91.6350   28.6490 C.3    15  THR15       0.2028
     20  C         52.8050   90.9810   27.6040 C.2    15  THR15       0.2642
     21  O         52.3690   91.6510   26.6620 O.2    15  THR15      -0.2714
     22  CB        53.1140   91.7300   30.0430 C.3    15  THR15       0.1808
     23  OG1       52.0810   92.7220   29.9760 O.3    15  THR15      -0.2208
     24  CG2       54.1140   92.2330   31.0620 C.3    15  THR15       0.0379
     25  N         52.5110   89.6850   27.7740 N.am   16  MET16      -0.1962
     26  CA        51.5310   88.9450   26.9560 C.3    16  MET16       0.1736
     27  C         50.3060   89.7350   26.4610 C.2    16  MET16       0.2617
     28  O         49.5410   90.2890   27.2720 O.2    16  MET16      -0.2715
     29  CB        51.0220   87.7590   27.7800 C.3    16  MET16       0.0427
     30  CG        51.8280   86.4920   27.5760 C.3    16  MET16       0.0599
     31  SD        52.2520   86.1300   25.8610 S.3    16  MET16      -0.1393
     32  CE        50.6720   85.6690   25.1550 C.3    16  MET16       0.0692
     33  N         50.1690   89.8530   25.1540 N.am   17  GLY17      -0.1940
     34  CA        49.0120   90.4810   24.5670 C.3    17  GLY17       0.2014
     35  C         49.4650   91.7940   24.0020 C.2    17  GLY17       0.2639
     36  O         48.7500   92.4360   23.2710 O.2    17  GLY17      -0.2714
     37  N         50.7070   92.1540   24.2600 N.am   18  GLY18      -0.1954
     38  CA        51.2000   93.3980   23.6870 C.3    18  GLY18       0.1869
     39  C         50.9070   94.6220   24.5460 C.2    18  GLY18       0.2309
     40  O         50.7680   95.7500   24.0270 O.2    18  GLY18      -0.2863
     41  N         53.4870   96.9050   30.7440 N.3    21  THR21      -0.1218
     42  CA        53.3310   96.8160   32.1910 C.3    21  THR21       0.1862
     43  C         54.3420   97.7160   32.8630 C.2    21  THR21       0.2287
     44  O         55.5260   97.5530   32.6780 O.2    21  THR21      -0.2866
     45  CB        53.5340   95.3540   32.6110 C.3    21  THR21       0.1770
     46  OG1       52.4730   94.5940   32.0370 O.3    21  THR21      -0.2211
     47  CG2       53.5070   95.1640   34.1950 C.3    21  THR21       0.0375
     48  N         59.6230   93.3650   39.7720 N.3    36  GLN36      -0.1231
     49  CA        58.3810   92.6510   39.7900 C.3    36  GLN36       0.1698
     50  C         58.6110   91.2920   39.2470 C.2    36  GLN36       0.2592
     51  O         59.5660   91.0480   38.5010 O.2    36  GLN36      -0.2718
     52  CB        57.3290   93.4300   39.0350 C.3    36  GLN36       0.0381
     53  CG        56.0320   92.6630   38.8780 C.3    36  GLN36       0.0905
     54  CD        54.8200   93.4810   38.4090 C.2    36  GLN36       0.2608
     55  OE1       53.7730   92.8920   38.1900 O.2    36  GLN36      -0.2717
     56  NE2       54.9610   94.7830   38.2290 N.am   36  GLN36      -0.0878
     57  N         57.8050   90.3480   39.6970 N.am   37  VAL37      -0.1966
     58  CA        58.0570   88.9940   39.2630 C.3    37  VAL37       0.1727
     59  C         57.0500   88.5530   38.2080 C.2    37  VAL37       0.2616
     60  O         55.8640   88.7090   38.3840 O.2    37  VAL37      -0.2715
     61  CB        58.1830   87.9500   40.3870 C.3    37  VAL37       0.0290
     62  CG1       58.6250   86.6170   39.7760 C.3    37  VAL37       0.0023
     63  CG2       59.1830   88.3640   41.4640 C.3    37  VAL37       0.0023
     64  N         57.5750   87.9730   37.1250 N.am   38  PHE38      -0.1960
     65  CA        56.7940   87.5640   35.9240 C.3    38  PHE38       0.1771
     66  C         57.0860   86.0940   35.5580 C.2    38  PHE38       0.2620
     67  O         57.9980   85.4610   36.1450 O.2    38  PHE38      -0.2715
     68  CB        57.1970   88.3930   34.7680 C.3    38  PHE38       0.0574
     69  CG        56.9130   89.8340   34.9330 C.ar   38  PHE38      -0.0200
     70  CD1       57.9130   90.6990   35.3470 C.ar   38  PHE38      -0.0042
     71  CD2       55.6770   90.3370   34.6190 C.ar   38  PHE38      -0.0042
     72  CE1       57.6640   92.0510   35.4350 C.ar   38  PHE38      -0.0003
     73  CE2       55.4230   91.6840   34.7350 C.ar   38  PHE38      -0.0003
     74  CZ        56.4410   92.5540   35.1180 C.ar   38  PHE38      -0.0000
     75  N         56.3050   85.5210   34.6290 N.am   39  SER39      -0.1936
     76  CA        56.4720   84.1090   34.3160 C.3    39  SER39       0.2055
     77  C         56.3320   83.8390   32.8530 C.2    39  SER39       0.2644
     78  O         56.2010   84.7950   32.0770 O.2    39  SER39      -0.2714
     79  CB        55.3960   83.2660   34.9970 C.3    39  SER39       0.2130
     80  OG        55.8540   81.9060   35.0240 O.3    39  SER39      -0.2179
     81  N         56.2670   82.5510   32.5040 N.am   40  THR40      -0.1936
     82  CA        56.1890   82.0930   31.1080 C.3    40  THR40       0.2028
     83  C         54.7230   81.9540   30.7190 C.2    40  THR40       0.2642
     84  O         53.8540   81.7990   31.6180 O.2    40  THR40      -0.2714
     85  CB        56.8610   80.6900   30.9660 C.3    40  THR40       0.1808
     86  OG1       56.3360   79.7820   31.9590 O.3    40  THR40      -0.2208
     87  CG2       58.3550   80.7370   31.1880 C.3    40  THR40       0.0379
     88  N         54.4150   81.9450   29.4160 N.am   41  ALA41      -0.1963
     89  CA        53.0080   81.7810   28.9760 C.3    41  ALA41       0.1728
     90  C         52.6710   80.3880   28.4590 C.2    41  ALA41       0.2616
     91  O         51.5080   80.1030   28.1880 O.2    41  ALA41      -0.2715
     92  CB        52.6800   82.7820   27.8720 C.3    41  ALA41       0.0334
     93  N         53.6970   79.5600   28.2590 N.am   42  GLU42      -0.1977
     94  CA        53.5690   78.2180   27.6930 C.3    42  GLU42       0.1602
     95  C         54.3150   77.1500   28.4770 C.2    42  GLU42       0.2287
     96  O         55.3920   77.3780   29.0050 O.2    42  GLU42      -0.2864
     97  CB        54.1060   78.2100   26.2600 C.3    42  GLU42       0.0415
     98  CG        53.4220   79.2400   25.3980 C.3    42  GLU42       0.1163
     99  CD        53.3400   78.8170   23.9370 C.2    42  GLU42       0.3649
    100  OE1       52.3900   79.2590   23.2130 O.co2  42  GLU42      -0.2457
    101  OE2       54.2470   78.0540   23.5250 O.co2  42  GLU42      -0.2457
    102  N         58.2230   76.4730   27.9040 N.3    45  GLN45      -0.1231
    103  CA        58.8470   77.6860   27.3500 C.3    45  GLN45       0.1698
    104  C         60.2810   77.8230   27.8680 C.2    45  GLN45       0.2593
    105  O         60.4900   77.6980   29.0710 O.2    45  GLN45      -0.2718
    106  CB        58.0470   78.9130   27.7340 C.3    45  GLN45       0.0381
    107  CG        58.4900   80.2160   27.0870 C.3    45  GLN45       0.0905
    108  CD        57.5200   81.3460   27.4070 C.2    45  GLN45       0.2608
    109  OE1       56.3230   81.0870   27.5890 O.2    45  GLN45      -0.2717
    110  NE2       58.0250   82.6160   27.4770 N.am   45  GLN45      -0.0878
    111  N         61.2720   78.0410   26.9940 N.am   46  SER46      -0.1938
    112  CA        62.6500   78.0700   27.5230 C.3    46  SER46       0.2055
    113  C         63.3120   79.4330   27.5590 C.2    46  SER46       0.2643
    114  O         64.4120   79.5700   28.0860 O.2    46  SER46      -0.2714
    115  CB        63.5590   76.9980   26.9060 C.3    46  SER46       0.2130
    116  OG        63.7410   77.2130   25.5320 O.3    46  SER46      -0.2179
    117  N         62.6170   80.4430   27.0510 N.am   47  ALA47      -0.1963
    118  CA        63.1000   81.8150   27.1220 C.3    47  ALA47       0.1728
    119  C         61.9440   82.8080   27.1830 C.2    47  ALA47       0.2616
    120  O         60.7970   82.5240   26.7600 O.2    47  ALA47      -0.2715
    121  CB        63.9410   82.1130   25.9030 C.3    47  ALA47       0.0334
    122  N         62.2420   83.9860   27.7050 N.am   48  VAL48      -0.1963
    123  CA        61.3080   85.1350   27.6830 C.3    48  VAL48       0.1727
    124  C         62.0590   86.2980   27.0940 C.2    48  VAL48       0.2617
    125  O         63.3000   86.4100   27.2250 O.2    48  VAL48      -0.2715
    126  CB        60.8820   85.5460   29.1070 C.3    48  VAL48       0.0290
    127  CG1       60.1490   84.3890   29.7590 C.3    48  VAL48       0.0023
    128  CG2       62.1040   85.8740   29.9240 C.3    48  VAL48       0.0023
    129  N         61.2960   87.1320   26.4260 N.am   49  THR49      -0.1937
    130  CA        61.7320   88.3660   25.7960 C.3    49  THR49       0.2028
    131  C         61.4360   89.5220   26.7300 C.2    49  THR49       0.2642
    132  O         60.3100   89.6170   27.2390 O.2    49  THR49      -0.2714
    133  CB        60.9250   88.5690   24.5190 C.3    49  THR49       0.1808
    134  OG1       61.1580   87.4350   23.6810 O.3    49  THR49      -0.2208
    135  CG2       61.3540   89.8120   23.8120 C.3    49  THR49       0.0379
    136  N         62.4370   90.3880   26.9610 N.am   50  ILE50      -0.1977
    137  CA        62.2230   91.5530   27.7930 C.3    50  ILE50       0.1596
    138  C         62.3120   92.7180   26.8730 C.2    50  ILE50       0.2287
    139  O         63.4020   93.1050   26.4390 O.2    50  ILE50      -0.2864
    140  CB        63.2970   91.7080   28.9280 C.3    50  ILE50       0.0276
    141  CG1       63.5250   90.3980   29.6840 C.3    50  ILE50       0.0022
    142  CG2       62.9490   92.8540   29.8290 C.3    50  ILE50       0.0022
    143  CD1       62.3230   89.9230   30.4370 C.3    50  ILE50       0.0001
    144  N         66.6090   88.8430   25.5610 N.3    70  ASN70      -0.1240
    145  CA        65.9640   87.6020   25.9920 C.3    70  ASN70       0.1653
    146  C         66.7010   87.0310   27.2170 C.2    70  ASN70       0.2266
    147  O         67.8590   87.3120   27.3980 O.2    70  ASN70      -0.2867
    148  CB        65.9940   86.6010   24.8380 C.3    70  ASN70       0.1155
    149  CG        64.8410   86.8040   23.8390 C.2    70  ASN70       0.2627
    150  OD1       64.1890   87.8320   23.7790 O.2    70  ASN70      -0.2716
    151  ND2       64.5860   85.8000   23.0770 N.am   70  ASN70      -0.0877
    152  N         53.4940   76.2980   32.3120 N.3    79  ARG79      -0.1231
    153  CA        53.4020   77.7570   32.2330 C.3    79  ARG79       0.1694
    154  C         53.0330   78.4130   33.5550 C.2    79  ARG79       0.2592
    155  O         52.2340   77.8700   34.3480 O.2    79  ARG79      -0.2718
    156  CB        52.3440   78.1590   31.1980 C.3    79  ARG79       0.0321
    157  CG        50.9880   77.5390   31.4440 C.3    79  ARG79       0.0489
    158  CD        50.0170   78.1100   30.4160 C.3    79  ARG79       0.2205
    159  NE        49.3820   79.3390   30.8760 N.pl3  79  ARG79      -0.0865
    160  CZ        48.5150   80.0490   30.1590 C.cat  79  ARG79       0.5346
    161  NH1       47.9770   81.1440   30.6980 N.pl3  79  ARG79       0.1354
    162  NH2       48.1630   79.6390   28.9160 N.pl3  79  ARG79       0.1354
    163  N         53.5970   79.5980   33.7860 N.am   80  GLY80      -0.1957
    164  CA        53.2130   80.3740   34.9410 C.3    80  GLY80       0.1869
    165  C         53.9450   79.8960   36.1790 C.2    80  GLY80       0.2309
    166  O         53.7370   80.4120   37.2960 O.2    80  GLY80      -0.2863
    167  N         60.5840   84.7980   37.0020 N.3    84  ILE84      -0.1245
    168  CA        61.5410   85.6500   36.3140 C.3    84  ILE84       0.1561
    169  C         61.4450   87.0250   36.9510 C.2    84  ILE84       0.2260
    170  O         60.4740   87.7110   36.7590 O.2    84  ILE84      -0.2867
    171  CB        61.1820   85.8300   34.8230 C.3    84  ILE84       0.0252
    172  CG1       61.0760   84.4890   34.0740 C.3    84  ILE84       0.0019
    173  CG2       62.2120   86.7340   34.2080 C.3    84  ILE84       0.0019
    174  CD1       62.2590   83.5220   34.3670 C.3    84  ILE84       0.0001
    175  N         62.1060   90.8110   37.2270 N.3    86  VAL86      -0.1245
    176  CA        62.5690   91.9120   36.3660 C.3    86  VAL86       0.1561
    177  C         62.8260   93.1130   37.2650 C.2    86  VAL86       0.2260
    178  O         61.9480   93.4770   38.0120 O.2    86  VAL86      -0.2867
    179  CB        61.5380   92.2050   35.2590 C.3    86  VAL86       0.0252
    180  CG1       61.8890   93.4400   34.4120 C.3    86  VAL86       0.0019
    181  CG2       61.4490   90.9690   34.3530 C.3    86  VAL86       0.0019
@<TRIPOS>BOND
     1    17    15   ar
     2   151   149   am
     3    16    15   ar
     4   100    99   ar
     5    36    35    2
     6    15    14    1
     7   101    99   ar
     8   134   133    1
     9    38    37    1
    10    38    39    1
    11   150   149    2
    12   135   133    1
    13   149   148    1
    14    99    98    1
    15    35    37   am
    16    35    34    1
    17    40    39    2
    18   133   130    1
    19    34    33    1
    20   148   145    1
    21    14    13    1
    22    33    27   am
    23    32    31    1
    24    98    97    1
    25   116   115    1
    26   144   145    1
    27    13    10    1
    28   130   129    1
    29   130   131    1
    30    31    30    1
    31   121   118    1
    32   145   146    1
    33    97    94    1
    34   129   124   am
    35   139   138    2
    36    27    26    1
    37    27    28    2
    38    21    20    2
    39   131   136   am
    40   131   132    2
    41   120   119    2
    42   138   137    1
    43   115   112    1
    44    26    25    1
    45    26    29    1
    46   136   137    1
    47   111   112    1
    48   111   104   am
    49   117   118    1
    50   117   113   am
    51   107   108    1
    52   107   106    1
    53   124   125    2
    54   124   123    1
    55   118   119    1
    56   119   122   am
    57    10    11    1
    58    10     9    1
    59   146   147    2
    60   103   106    1
    61   103   104    1
    62   103   102    1
    63   108   110   am
    64   108   109    2
    65   112   113    1
    66   113   114    2
    67    30    29    1
    68    20    25   am
    69    20    19    1
    70   123   122    1
    71   123   126    1
    72    94    93    1
    73    94    95    1
    74   137   140    1
    75    11    12    2
    76    11    18   am
    77   104   105    2
    78    92    89    1
    79     9     3   am
    80    18    19    1
    81    91    90    2
    82    93    90   am
    83    90    89    1
    84    95    96    2
    85    19    22    1
    86   162   160    1
    87   140   141    1
    88   140   142    1
    89    89    88    1
    90     3     4    2
    91     3     2    1
    92   126   127    1
    93   126   128    1
    94    88    83   am
    95   141   143    1
    96     2     5    1
    97     2     1    1
    98    23    22    1
    99    22    24    1
   100   160   161    1
   101   160   159    2
   102   158   159    1
   103   158   157    1
   104     5     7    1
   105     5     6    1
   106    83    82    1
   107    83    84    2
   108    41    42    1
   109    85    82    1
   110    85    87    1
   111    85    86    1
   112    82    81    1
   113   156   157    1
   114   156   153    1
   115     6     8    1
   116    46    45    1
   117    78    77    2
   118    42    45    1
   119    42    43    1
   120   153   152    1
   121   153   154    1
   122    81    77   am
   123    45    47    1
   124    44    43    2
   125    77    76    1
   126   154   163   am
   127   154   155    2
   128   163   164    1
   129   172   174    1
   130   172   171    1
   131   173   171    1
   132    76    75    1
   133    76    79    1
   134   181   179    1
   135   180   179    1
   136    71    73   ar
   137    71    69   ar
   138    75    66   am
   139    73    74   ar
   140    68    69    1
   141    68    65    1
   142   171   168    1
   143    69    70   ar
   144   164   165    1
   145    79    80    1
   146    74    72   ar
   147   179   176    1
   148    70    72   ar
   149    66    65    1
   150    66    67    2
   151    65    64    1
   152   165   166    2
   153   168   169    1
   154   168   167    1
   155   176   175    1
   156   176   177    1
   157   170   169    2
   158    64    59   am
   159   177   178    2
   160    55    54    2
   161    59    60    2
   162    59    58    1
   163    56    54   am
   164    54    53    1
   165    51    50    2
   166    53    52    1
   167    52    49    1
   168    50    57   am
   169    50    49    1
   170    58    57    1
   171    58    61    1
   172    48    49    1
   173    62    61    1
   174    61    63    1
