@<TRIPOS>MOLECULE
tmp/4f00A00.pdb
 193 185 0 0 0
SMALL
GASTEIGER

@<TRIPOS>ATOM
      1  N         58.5650   96.6940   30.6720 N.3    13  ILE13      -0.1231
      2  CA        58.8190   95.6590   29.7170 C.3    13  ILE13       0.1692
      3  C         57.5480   95.2390   28.9890 C.2    13  ILE13       0.2592
      4  O         56.4380   95.3810   29.4920 O.2    13  ILE13      -0.2718
      5  CB        59.5170   94.4350   30.3440 C.3    13  ILE13       0.0266
      6  CG1       58.6590   93.7220   31.4030 C.3    13  ILE13       0.0019
      7  CG2       60.8660   94.8880   30.9230 C.3    13  ILE13       0.0020
      8  CD1       59.1290   92.2740   31.6330 C.3    13  ILE13       0.0001
      9  N         57.7380   94.7510   27.7720 N.am   14  GLU14      -0.1966
     10  CA        56.6960   94.0790   27.0860 C.3    14  GLU14       0.1733
     11  C         56.3380   92.7240   27.6900 C.2    14  GLU14       0.2617
     12  O         57.1990   91.8840   27.9660 O.2    14  GLU14      -0.2715
     13  CB        57.0510   93.9880   25.5610 C.3    14  GLU14       0.0429
     14  CG        55.9580   93.2680   24.8260 C.3    14  GLU14       0.1163
     15  CD        56.1540   93.3340   23.3180 C.2    14  GLU14       0.3649
     16  OE1       57.2260   93.7640   22.8520 O.co2  14  GLU14      -0.2457
     17  OE2       55.2240   92.9670   22.6040 O.co2  14  GLU14      -0.2457
     18  N         55.0710   92.5380   28.0150 N.am   15  THR15      -0.1937
     19  CA        54.6220   91.2410   28.5000 C.3    15  THR15       0.2028
     20  C         53.5170   90.6640   27.5670 C.2    15  THR15       0.2642
     21  O         53.1490   91.2700   26.5620 O.2    15  THR15      -0.2714
     22  CB        54.2710   91.2690   30.0310 C.3    15  THR15       0.1808
     23  OG1       53.1740   92.1190   30.2790 O.3    15  THR15      -0.2208
     24  CG2       55.3540   91.8760   30.7620 C.3    15  THR15       0.0379
     25  N         53.0490   89.4530   27.8690 N.am   16  MET16      -0.1962
     26  CA        52.2070   88.6940   26.9590 C.3    16  MET16       0.1736
     27  C         50.9730   89.4480   26.5650 C.2    16  MET16       0.2617
     28  O         50.2740   89.9980   27.4180 O.2    16  MET16      -0.2715
     29  CB        51.7880   87.3800   27.6320 C.3    16  MET16       0.0427
     30  CG        50.6730   86.6390   26.8980 C.3    16  MET16       0.0599
     31  SD        50.3290   85.0240   27.6610 S.3    16  MET16      -0.1393
     32  CE        48.8020   84.5950   26.8080 C.3    16  MET16       0.0692
     33  N         50.6990   89.4310   25.2670 N.am   17  GLY17      -0.1940
     34  CA        49.5750   90.1390   24.7440 C.3    17  GLY17       0.2014
     35  C         50.0660   91.4650   24.1780 C.2    17  GLY17       0.2639
     36  O         49.2830   92.2840   23.6600 O.2    17  GLY17      -0.2714
     37  N         51.3680   91.6890   24.2420 N.am   18  GLY18      -0.1954
     38  CA        51.8690   92.9540   23.6480 C.3    18  GLY18       0.1869
     39  C         51.5830   94.1940   24.4710 C.2    18  GLY18       0.2309
     40  O         51.4560   95.2930   23.9360 O.2    18  GLY18      -0.2863
     41  N         54.2020   96.4810   30.7200 N.3    21  THR21      -0.1218
     42  CA        54.1060   96.3550   32.1740 C.3    21  THR21       0.1862
     43  C         55.1350   97.2990   32.7570 C.2    21  THR21       0.2287
     44  O         56.3040   97.1900   32.4450 O.2    21  THR21      -0.2866
     45  CB        54.3960   94.9280   32.6350 C.3    21  THR21       0.1770
     46  OG1       53.4070   94.0850   32.1010 O.3    21  THR21      -0.2211
     47  CG2       54.3880   94.8360   34.2630 C.3    21  THR21       0.0375
     48  N         59.9920   93.0130   39.9150 N.3    36  GLN36      -0.1231
     49  CA        58.8020   92.2550   39.9250 C.3    36  GLN36       0.1698
     50  C         59.1180   90.8510   39.4140 C.2    36  GLN36       0.2592
     51  O         59.9960   90.6520   38.5240 O.2    36  GLN36      -0.2718
     52  CB        57.7660   92.9440   38.9830 C.3    36  GLN36       0.0381
     53  CG        56.5600   92.0650   38.7110 C.3    36  GLN36       0.0905
     54  CD        55.3920   92.8040   38.0790 C.2    36  GLN36       0.2608
     55  OE1       55.3690   94.0480   38.0260 O.2    36  GLN36      -0.2717
     56  NE2       54.4270   92.0540   37.6030 N.am   36  GLN36      -0.0878
     57  N         58.4120   89.8640   39.9290 N.am   37  VAL37      -0.1966
     58  CA        58.7370   88.5070   39.5260 C.3    37  VAL37       0.1727
     59  C         57.7310   88.1130   38.4230 C.2    37  VAL37       0.2616
     60  O         56.5180   88.1350   38.6410 O.2    37  VAL37      -0.2715
     61  CB        58.7240   87.5450   40.7490 C.3    37  VAL37       0.0290
     62  CG1       58.8280   86.0850   40.3300 C.3    37  VAL37       0.0023
     63  CG2       59.8270   87.9350   41.8010 C.3    37  VAL37       0.0023
     64  N         58.2470   87.7780   37.2510 N.am   38  PHE38      -0.1960
     65  CA        57.4410   87.3390   36.1700 C.3    38  PHE38       0.1771
     66  C         57.6140   85.8060   35.9850 C.2    38  PHE38       0.2620
     67  O         58.3580   85.1270   36.7070 O.2    38  PHE38      -0.2715
     68  CB        57.8790   88.1160   34.9270 C.3    38  PHE38       0.0574
     69  CG        57.6150   89.6030   35.0090 C.ar   38  PHE38      -0.0200
     70  CD1       58.5240   90.4650   35.6330 C.ar   38  PHE38      -0.0042
     71  CD2       56.4780   90.1300   34.4360 C.ar   38  PHE38      -0.0042
     72  CE1       58.2910   91.8330   35.7150 C.ar   38  PHE38      -0.0003
     73  CE2       56.2200   91.5250   34.5020 C.ar   38  PHE38      -0.0003
     74  CZ        57.1440   92.3760   35.1010 C.ar   38  PHE38      -0.0000
     75  N         56.8760   85.2300   35.0500 N.am   39  SER39      -0.1936
     76  CA        57.0470   83.8500   34.7720 C.3    39  SER39       0.2055
     77  C         56.9240   83.7030   33.2560 C.2    39  SER39       0.2644
     78  O         56.7990   84.7260   32.5950 O.2    39  SER39      -0.2714
     79  CB        55.9980   83.0050   35.4590 C.3    39  SER39       0.2130
     80  OG        56.2410   81.6260   35.1190 O.3    39  SER39      -0.2179
     81  N         56.8860   82.4510   32.7700 N.am   40  THR40      -0.1936
     82  CA        56.8480   82.1270   31.3380 C.3    40  THR40       0.2028
     83  C         55.4360   82.0060   30.7820 C.2    40  THR40       0.2642
     84  O         54.5520   81.6080   31.4990 O.2    40  THR40      -0.2714
     85  CB        57.5780   80.8210   31.0350 C.3    40  THR40       0.1808
     86  OG1       57.0880   79.7630   31.8880 O.3    40  THR40      -0.2208
     87  CG2       59.1090   81.0340   31.3210 C.3    40  THR40       0.0379
     88  N         55.2690   82.3000   29.4980 N.am   41  ALA41      -0.1963
     89  CA        54.0000   82.1700   28.8010 C.3    41  ALA41       0.1728
     90  C         53.6740   80.7710   28.3070 C.2    41  ALA41       0.2616
     91  O         52.4870   80.4390   28.1490 O.2    41  ALA41      -0.2715
     92  CB        53.9240   83.1530   27.6250 C.3    41  ALA41       0.0334
     93  N         54.6980   79.9740   28.0110 N.am   42  GLU42      -0.1977
     94  CA        54.5060   78.6740   27.3480 C.3    42  GLU42       0.1602
     95  C         55.0930   77.5420   28.1580 C.2    42  GLU42       0.2287
     96  O         56.0450   77.7510   28.9110 O.2    42  GLU42      -0.2864
     97  CB        55.2210   78.6540   25.9870 C.3    42  GLU42       0.0415
     98  CG        54.8610   79.8400   25.1360 C.3    42  GLU42       0.1163
     99  CD        53.4240   79.7900   24.6370 C.2    42  GLU42       0.3649
    100  OE1       52.8930   80.8780   24.2940 O.co2  42  GLU42      -0.2457
    101  OE2       52.8530   78.6610   24.5940 O.co2  42  GLU42      -0.2457
    102  N         59.0980   76.5790   28.1140 N.3    45  GLN45      -0.1245
    103  CA        59.7460   77.7290   27.5080 C.3    45  GLN45       0.1566
    104  C         61.1730   77.7980   28.0490 C.2    45  GLN45       0.2260
    105  O         61.3810   77.7630   29.3000 O.2    45  GLN45      -0.2867
    106  CB        58.9910   78.9880   27.9290 C.3    45  GLN45       0.0367
    107  CG        59.4150   80.2100   27.1970 C.3    45  GLN45       0.0905
    108  CD        58.4730   81.3750   27.5120 C.2    45  GLN45       0.2608
    109  OE1       57.2480   81.1830   27.6010 O.2    45  GLN45      -0.2717
    110  NE2       59.0220   82.5950   27.5590 N.am   45  GLN45      -0.0878
    111  N         63.4880   80.3370   27.4090 N.3    47  ALA47      -0.1231
    112  CA        64.0960   81.7030   27.3580 C.3    47  ALA47       0.1694
    113  C         62.9660   82.7020   27.3760 C.2    47  ALA47       0.2592
    114  O         61.8100   82.3670   26.9910 O.2    47  ALA47      -0.2718
    115  CB        64.9390   81.8710   26.0500 C.3    47  ALA47       0.0304
    116  N         63.2730   83.9410   27.7500 N.am   48  VAL48      -0.1966
    117  CA        62.2810   85.0130   27.7790 C.3    48  VAL48       0.1727
    118  C         63.0470   86.1170   27.1170 C.2    48  VAL48       0.2617
    119  O         64.2820   86.1910   27.2960 O.2    48  VAL48      -0.2715
    120  CB        61.9250   85.5080   29.1850 C.3    48  VAL48       0.0290
    121  CG1       61.1120   84.4330   29.9180 C.3    48  VAL48       0.0023
    122  CG2       63.1930   85.8650   29.9490 C.3    48  VAL48       0.0023
    123  N         62.3330   86.8550   26.2650 N.am   49  THR49      -0.1937
    124  CA        62.8430   88.0850   25.6740 C.3    49  THR49       0.2028
    125  C         62.3980   89.2510   26.5780 C.2    49  THR49       0.2642
    126  O         61.2240   89.3350   26.9810 O.2    49  THR49      -0.2714
    127  CB        62.4540   88.2820   24.1880 C.3    49  THR49       0.1808
    128  OG1       62.9770   89.5540   23.7560 O.3    49  THR49      -0.2208
    129  CG2       60.9250   88.3460   23.9950 C.3    49  THR49       0.0379
    130  N         63.3620   90.0760   26.9540 N.am   50  ILE50      -0.1977
    131  CA        63.1480   91.2350   27.8400 C.3    50  ILE50       0.1596
    132  C         63.2620   92.4860   26.9820 C.2    50  ILE50       0.2287
    133  O         64.3260   92.8920   26.5970 O.2    50  ILE50      -0.2864
    134  CB        64.1640   91.3080   29.0050 C.3    50  ILE50       0.0276
    135  CG1       64.2040   90.0290   29.8420 C.3    50  ILE50       0.0022
    136  CG2       63.9330   92.5720   29.8280 C.3    50  ILE50       0.0022
    137  CD1       62.8900   89.7200   30.5770 C.3    50  ILE50       0.0001
    138  N         67.7660   88.6820   25.8420 N.3    70  ASN70      -0.1240
    139  CA        67.1270   87.4220   26.2270 C.3    70  ASN70       0.1653
    140  C         67.8120   86.8580   27.4480 C.2    70  ASN70       0.2266
    141  O         69.0420   87.0470   27.6700 O.2    70  ASN70      -0.2867
    142  CB        67.3090   86.3600   25.1620 C.3    70  ASN70       0.1155
    143  CG        66.7710   86.8120   23.7930 C.2    70  ASN70       0.2627
    144  OD1       65.8190   87.6130   23.7060 O.2    70  ASN70      -0.2716
    145  ND2       67.3730   86.2930   22.7120 N.am   70  ASN70      -0.0877
    146  N         54.0670   76.3520   31.9740 N.3    79  ARG79      -0.1231
    147  CA        53.9180   77.8200   31.8950 C.3    79  ARG79       0.1694
    148  C         53.5720   78.3540   33.3030 C.2    79  ARG79       0.2592
    149  O         52.8400   77.6990   34.0650 O.2    79  ARG79      -0.2718
    150  CB        52.8930   78.1780   30.8010 C.3    79  ARG79       0.0321
    151  CG        51.4140   78.2780   31.1910 C.3    79  ARG79       0.0489
    152  CD        50.4520   78.6790   30.0030 C.3    79  ARG79       0.2205
    153  NE        50.8560   78.0230   28.7320 N.pl3  79  ARG79      -0.0865
    154  CZ        50.5560   76.7650   28.3520 C.cat  79  ARG79       0.5346
    155  NH1       51.0540   76.3020   27.1970 N.pl3  79  ARG79       0.1354
    156  NH2       49.7960   75.9420   29.1230 N.pl3  79  ARG79       0.1354
    157  N         54.0940   79.5290   33.6410 N.am   80  GLY80      -0.1957
    158  CA        53.6430   80.2370   34.8200 C.3    80  GLY80       0.1869
    159  C         54.3220   79.7730   36.0870 C.2    80  GLY80       0.2309
    160  O         54.0480   80.3150   37.1910 O.2    80  GLY80      -0.2863
    161  N         61.1070   84.4860   37.0390 N.3    84  ILE84      -0.1245
    162  CA        62.0350   85.3730   36.3590 C.3    84  ILE84       0.1561
    163  C         61.8570   86.7630   36.9900 C.2    84  ILE84       0.2260
    164  O         60.8130   87.4400   36.8440 O.2    84  ILE84      -0.2867
    165  CB        61.7820   85.4800   34.8300 C.3    84  ILE84       0.0252
    166  CG1       61.5150   84.0910   34.2060 C.3    84  ILE84       0.0019
    167  CG2       62.9000   86.2910   34.1820 C.3    84  ILE84       0.0019
    168  CD1       62.7190   83.1170   34.2230 C.3    84  ILE84       0.0001
    169  N         62.6220   90.5310   37.4260 N.3    86  VAL86      -0.1245
    170  CA        63.0760   91.6040   36.5840 C.3    86  VAL86       0.1561
    171  C         63.2210   92.8180   37.4590 C.2    86  VAL86       0.2260
    172  O         62.2790   93.1840   38.1500 O.2    86  VAL86      -0.2867
    173  CB        62.0760   91.8610   35.4020 C.3    86  VAL86       0.0252
    174  CG1       62.5520   93.0340   34.5660 C.3    86  VAL86       0.0019
    175  CG2       62.0180   90.6420   34.5340 C.3    86  VAL86       0.0019
    176  N         43.1270   82.3600   27.4670 N.3   152  ASP152     -0.1225
    177  CA        44.2920   81.4970   27.3180 C.3   152  ASP152      0.1805
    178  C         44.4650   80.6510   28.6250 C.2   152  ASP152      0.2597
    179  O         44.6680   79.4340   28.5810 O.2   152  ASP152     -0.2718
    180  CB        45.4990   82.3890   27.0430 C.3   152  ASP152      0.1424
    181  CG        46.8030   81.6160   26.9050 C.2   152  ASP152      0.3668
    182  OD1       47.2450   81.4370   25.7560 O.co2 152  ASP152     -0.2456
    183  OD2       47.4010   81.2060   27.9340 O.co2 152  ASP152     -0.2456
    184  N         44.4160   81.2880   29.7850 N.am  153  HIS153     -0.1975
    185  CA        44.5060   80.5170   31.0540 C.3   153  HIS153      0.1656
    186  C         43.4120   79.4490   31.1950 C.2   153  HIS153      0.2291
    187  O         43.6810   78.2980   31.5270 O.2   153  HIS153     -0.2864
    188  CB        44.4690   81.4700   32.2230 C.3   153  HIS153      0.0771
    189  CG        44.1790   80.8030   33.5280 C.ar  153  HIS153      0.0820
    190  ND1       45.1510   80.2410   34.2710 N.ar  153  HIS153     -0.2267
    191  CD2       42.9780   80.6000   34.2230 C.ar  153  HIS153      0.1154
    192  CE1       44.6200   79.7030   35.4060 C.ar  153  HIS153      0.1986
    193  NE2       43.2870   79.9100   35.3730 N.ar  153  HIS153     -0.2212
@<TRIPOS>BOND
     1    17    15   ar
     2   145   143   am
     3    16    15   ar
     4    15    14    1
     5    38    37    1
     6    38    39    1
     7    36    35    2
     8   144   143    2
     9   128   127    1
    10   143   142    1
    11    40    39    2
    12   129   127    1
    13    35    37   am
    14    35    34    1
    15   127   124    1
    16   100    99   ar
    17   101    99   ar
    18    99    98    1
    19    34    33    1
    20    14    13    1
    21    98    97    1
    22   142   139    1
    23    33    27   am
    24    13    10    1
    25   124   123    1
    26   124   125    1
    27   182   181   ar
    28   138   139    1
    29    97    94    1
    30   115   112    1
    31   139   140    1
    32   123   118   am
    33    21    20    2
    34    27    26    1
    35    27    28    2
    36   125   130   am
    37   125   126    2
    38   133   132    2
    39    32    31    1
    40    30    29    1
    41    30    31    1
    42   181   180    1
    43   181   183   ar
    44   130   131    1
    45    26    29    1
    46    26    25    1
    47   132   131    1
    48   114   113    2
    49   180   177    1
    50    10    11    1
    51    10     9    1
    52   118   119    2
    53   118   117    1
    54   107   108    1
    55   107   106    1
    56   155   154    1
    57   177   176    1
    58   177   178    1
    59    94    93    1
    60    94    95    1
    61   112   113    1
    62   112   111    1
    63   113   116   am
    64   140   141    2
    65   103   106    1
    66   103   104    1
    67   103   102    1
    68   108   110   am
    69   108   109    2
    70    20    25   am
    71    20    19    1
    72    92    89    1
    73    11    12    2
    74    11    18   am
    75   116   117    1
    76     9     3   am
    77   117   120    1
    78   131   134    1
    79    93    90   am
    80    18    19    1
    81   104   105    2
    82    91    90    2
    83    95    96    2
    84    90    89    1
    85   154   153    2
    86   154   156    1
    87    19    22    1
    88   179   178    2
    89   178   184   am
    90   153   152    1
    91    89    88    1
    92     3     4    2
    93     3     2    1
    94   134   136    1
    95   134   135    1
    96   120   121    1
    97   120   122    1
    98    88    83   am
    99     2     5    1
   100     2     1    1
   101   184   185    1
   102   135   137    1
   103   152   151    1
   104    22    23    1
   105    22    24    1
   106     5     7    1
   107     5     6    1
   108    41    42    1
   109    83    82    1
   110    83    84    2
   111   150   151    1
   112   150   147    1
   113    85    87    1
   114    85    82    1
   115    85    86    1
   116   185   186    1
   117   185   188    1
   118   186   187    2
   119    82    81    1
   120     6     8    1
   121   147   146    1
   122   147   148    1
   123    46    45    1
   124    42    45    1
   125    42    43    1
   126   188   189    1
   127    44    43    2
   128    78    77    2
   129    45    47    1
   130    81    77   am
   131    77    76    1
   132   148   157   am
   133   148   149    2
   134   189   191   ar
   135   189   190   ar
   136   157   158    1
   137   167   165    1
   138   166   168    1
   139   166   165    1
   140   191   193   ar
   141   190   192   ar
   142    71    73   ar
   143    71    69   ar
   144    73    74   ar
   145   175   173    1
   146   174   173    1
   147    76    75    1
   148    76    79    1
   149   158   159    1
   150   165   162    1
   151    68    69    1
   152    68    65    1
   153    69    70   ar
   154    75    66   am
   155    74    72   ar
   156    80    79    1
   157   193   192   ar
   158   173   170    1
   159    70    72   ar
   160    66    65    1
   161    66    67    2
   162   159   160    2
   163    65    64    1
   164   162   163    1
   165   162   161    1
   166   170   169    1
   167   170   171    1
   168   164   163    2
   169    64    59   am
   170   171   172    2
   171    56    54   am
   172    55    54    2
   173    54    53    1
   174    59    60    2
   175    59    58    1
   176    51    50    2
   177    53    52    1
   178    52    49    1
   179    50    49    1
   180    50    57   am
   181    58    57    1
   182    58    61    1
   183    48    49    1
   184    62    61    1
   185    61    63    1
