@<TRIPOS>MOLECULE
tmp/4f09A00.pdb
 125 116 0 0 0
SMALL
GASTEIGER

@<TRIPOS>ATOM
      1  N         19.0210    6.6490    6.5300 N.3    13  LEU13      -0.1231
      2  CA        18.4420    6.4590    7.7860 C.3    13  LEU13       0.1693
      3  C         17.4900    5.3550    8.0700 C.2    13  LEU13       0.2592
      4  O         17.5930    4.7330    9.0780 O.2    13  LEU13      -0.2718
      5  CB        17.9080    7.8140    8.3580 C.3    13  LEU13       0.0284
      6  CG        18.8450    9.0050    8.6020 C.3    13  LEU13       0.0019
      7  CD1       18.1420   10.2520    9.0250 C.3    13  LEU13       0.0001
      8  CD2       19.8560    8.6770    9.6530 C.3    13  LEU13       0.0001
      9  N         16.4940    5.1960    7.2370 N.am   14  GLY14      -0.1957
     10  CA        15.5270    4.1400    7.3900 C.3    14  GLY14       0.1869
     11  C         15.0870    3.9590    5.9630 C.2    14  GLY14       0.2309
     12  O         14.7530    4.8880    5.3500 O.2    14  GLY14      -0.2863
     13  N         14.2390    7.4410    4.3870 N.3    21  VAL21      -0.1245
     14  CA        14.6830    8.6960    4.9900 C.3    21  VAL21       0.1561
     15  C         16.1940    8.7940    4.8820 C.2    21  VAL21       0.2260
     16  O         16.9030    7.8410    5.2020 O.2    21  VAL21      -0.2867
     17  CB        14.1760    8.9610    6.4400 C.3    21  VAL21       0.0252
     18  CG1       14.5160   10.3790    6.8940 C.3    21  VAL21       0.0019
     19  CG2       12.6740    8.7120    6.5650 C.3    21  VAL21       0.0019
     20  N         16.3710   15.7980    7.7300 N.3    38  ALA38      -0.1245
     21  CA        15.9440   14.4360    7.4370 C.3    38  ALA38       0.1562
     22  C         15.0210   14.5270    6.2160 C.2    38  ALA38       0.2260
     23  O         14.0640   15.3020    6.2190 O.2    38  ALA38      -0.2867
     24  CB        15.2090   13.8470    8.6300 C.3    38  ALA38       0.0290
     25  N          8.2240   14.9800   15.8040 N.3    69  VAL69      -0.1245
     26  CA         9.3060   15.4230   14.9150 C.3    69  VAL69       0.1561
     27  C          8.8330   16.6270   14.0750 C.2    69  VAL69       0.2260
     28  O          7.7600   16.5730   13.4790 O.2    69  VAL69      -0.2867
     29  CB         9.8800   14.2460   14.0670 C.3    69  VAL69       0.0252
     30  CG1        8.8130   13.6000   13.1880 C.3    69  VAL69       0.0019
     31  CG2       11.0880   14.6750   13.2360 C.3    69  VAL69       0.0019
     32  N         12.0460   16.9770    7.1580 N.3    87  MET87      -0.1230
     33  CA        11.8050   16.9480    8.6010 C.3    87  MET87       0.1702
     34  C         13.1160   17.2820    9.2910 C.2    87  MET87       0.2592
     35  O         14.1820   17.1830    8.6650 O.2    87  MET87      -0.2718
     36  CB        11.3550   15.5560    9.0780 C.3    87  MET87       0.0401
     37  CG        10.1960   14.9660    8.3260 C.3    87  MET87       0.0596
     38  SD         9.9630   13.2340    8.8030 S.3    87  MET87      -0.1393
     39  CE        11.2060   12.4480    7.7440 C.3    87  MET87       0.0692
     40  N         13.0470   17.6300   10.5920 N.am   88  GLU88      -0.1966
     41  CA        14.2360   17.9040   11.3980 C.3    88  GLU88       0.1733
     42  C         15.0500   16.6160   11.5820 C.2    88  GLU88       0.2616
     43  O         14.4800   15.5160   11.6100 O.2    88  GLU88      -0.2715
     44  CB        13.8840   18.5500   12.7580 C.3    88  GLU88       0.0429
     45  CG        13.1260   17.6360   13.7130 C.3    88  GLU88       0.1163
     46  CD        12.8290   18.1610   15.1030 C.2    88  GLU88       0.3649
     47  OE1       11.8760   17.6490   15.7330 O.co2  88  GLU88      -0.2457
     48  OE2       13.5390   19.0820   15.5660 O.co2  88  GLU88      -0.2457
     49  N         16.3810   16.7560   11.6650 N.am   89  TYR89      -0.1960
     50  CA        17.2540   15.6070   11.8640 C.3    89  TYR89       0.1771
     51  C         17.6600   15.5080   13.3280 C.2    89  TYR89       0.2619
     52  O         18.2150   16.4690   13.8740 O.2    89  TYR89      -0.2715
     53  CB        18.4850   15.6640   10.9490 C.3    89  TYR89       0.0574
     54  CG        19.5500   14.6650   11.3440 C.ar   89  TYR89      -0.0198
     55  CD1       19.4170   13.3170   11.0280 C.ar   89  TYR89      -0.0009
     56  CD2       20.6700   15.0610   12.0690 C.ar   89  TYR89      -0.0009
     57  CE1       20.3820   12.3880   11.4110 C.ar   89  TYR89       0.0417
     58  CE2       21.6520   14.1460   12.4390 C.ar   89  TYR89       0.0417
     59  CZ        21.4990   12.8070   12.1150 C.ar   89  TYR89       0.1957
     60  OH        22.4500   11.8900   12.4780 O.3    89  TYR89      -0.2866
     61  N         17.4180   14.3380   13.9490 N.am   90  LEU90      -0.1977
     62  CA        17.7750   14.1130   15.3510 C.3    90  LEU90       0.1596
     63  C         19.0320   13.2250   15.4940 C.2    90  LEU90       0.2287
     64  O         18.9910   12.0310   15.1860 O.2    90  LEU90      -0.2864
     65  CB        16.5700   13.6690   16.2210 C.3    90  LEU90       0.0297
     66  CG        15.3310   14.6180   16.2230 C.3    90  LEU90       0.0022
     67  CD1       14.3220   14.2210   17.2920 C.3    90  LEU90       0.0001
     68  CD2       15.7160   16.0690   16.4480 C.3    90  LEU90       0.0001
     69  N         19.2170    9.5560   16.9610 N.3    93  GLY93      -0.1210
     70  CA        18.4880    8.5280   16.2220 C.3    93  GLY93       0.1956
     71  C         17.2630    7.9450   16.9020 C.2    93  GLY93       0.2612
     72  O         16.6410    8.6040   17.7450 O.2    93  GLY93      -0.2717
     73  N         16.9070    6.6970   16.5300 N.am   94  SER94      -0.1952
     74  CA        15.7410    5.9980   17.0860 C.3    94  SER94       0.1924
     75  C         15.9430    5.6430   18.5550 C.2    94  SER94       0.2314
     76  O         17.0770    5.4230   18.9820 O.2    94  SER94      -0.2863
     77  CB        15.4010    4.7500   16.2710 C.3    94  SER94       0.2116
     78  OG        16.1880    3.6250   16.6310 O.3    94  SER94      -0.2180
     79  N         17.6180    2.0450   18.9810 N.3    97  ASP97      -0.1239
     80  CA        19.0810    2.0270   18.9440 C.3    97  ASP97       0.1674
     81  C         19.6610    2.6800   20.1990 C.2    97  ASP97       0.2266
     82  O         20.5580    2.1040   20.8160 O.2    97  ASP97      -0.2867
     83  CB        19.6140    2.7170   17.6700 C.3    97  ASP97       0.1410
     84  CG        19.2870    1.9920   16.3740 C.2    97  ASP97       0.3668
     85  OD1       19.2630    0.7380   16.3780 O.co2  97  ASP97      -0.2456
     86  OD2       19.0890    2.6730   15.3480 O.co2  97  ASP97      -0.2456
     87  N         11.2730    1.8200   17.2030 N.3   138  ARG138     -0.1231
     88  CA        12.0290    2.2130   16.0200 C.3   138  ARG138      0.1694
     89  C         11.4470    3.4840   15.3760 C.2   138  ARG138      0.2592
     90  O         12.1620    4.1870   14.6510 O.2   138  ARG138     -0.2718
     91  CB        12.1220    1.0560   15.0060 C.3   138  ARG138      0.0321
     92  CG        10.7960    0.6760   14.3640 C.3   138  ARG138      0.0489
     93  CD        10.9630   -0.2050   13.1450 C.3   138  ARG138      0.2205
     94  NE         9.9850    0.1270   12.1030 N.pl3 138  ARG138     -0.0865
     95  CZ         8.7110   -0.2660   12.0980 C.cat 138  ARG138      0.5346
     96  NH1        8.2310   -1.0010   13.0940 N.pl3 138  ARG138      0.1354
     97  NH2        7.9070    0.0860   11.1050 N.pl3 138  ARG138      0.1354
     98  N         10.1530    3.7670   15.6480 N.am  139  ASN139     -0.1974
     99  CA         9.4270    4.9280   15.1340 C.3   139  ASN139      0.1688
    100  C          9.3920    6.1000   16.1050 C.2   139  ASN139      0.2292
    101  O          8.7230    7.0970   15.8330 O.2   139  ASN139     -0.2864
    102  CB         8.0340    4.5380   14.6280 C.3   139  ASN139      0.1181
    103  CG         8.0610    3.8510   13.2850 C.2   139  ASN139      0.2629
    104  OD1        8.7550    4.2780   12.3480 O.2   139  ASN139     -0.2716
    105  ND2        7.2870    2.7830   13.1550 N.am  139  ASN139     -0.0877
    106  N         11.9930    8.8390   18.1570 N.3   141  LEU141     -0.1245
    107  CA        13.3250    9.4530   18.0660 C.3   141  LEU141      0.1561
    108  C         13.7500   10.0640   19.3900 C.2   141  LEU141      0.2260
    109  O         12.9010   10.4680   20.1770 O.2   141  LEU141     -0.2867
    110  CB        13.3550   10.5710   17.0000 C.3   141  LEU141      0.0270
    111  CG        13.0320   10.2040   15.5690 C.3   141  LEU141      0.0019
    112  CD1       13.0260   11.4390   14.7020 C.3   141  LEU141      0.0001
    113  CD2       13.9990    9.1720   15.0360 C.3   141  LEU141      0.0001
    114  N          8.5680    9.9180   15.5470 N.3   151  GLY151     -0.1210
    115  CA         9.3380   10.2600   14.3540 C.3   151  GLY151      0.1956
    116  C          8.9230    9.8210   12.9650 C.2   151  GLY151      0.2611
    117  O          9.6660   10.0870   12.0100 O.2   151  GLY151     -0.2717
    118  N          7.7530    9.1530   12.8180 N.am  152  ASP152     -0.1973
    119  CA         7.2630    8.7080   11.5060 C.3   152  ASP152      0.1709
    120  C          5.7500    8.5980   11.4870 C.2   152  ASP152      0.2293
    121  O          5.1690    8.0930   12.4470 O.2   152  ASP152     -0.2864
    122  CB         7.8920    7.3790   11.0830 C.3   152  ASP152      0.1436
    123  CG         7.6180    7.0420    9.6260 C.2   152  ASP152      0.3671
    124  OD1        6.5570    6.4400    9.3450 O.co2 152  ASP152     -0.2456
    125  OD2        8.4360    7.4290    8.7640 O.co2 152  ASP152     -0.2456
@<TRIPOS>BOND
     1    13    14    1
     2    15    14    1
     3    15    16    2
     4    14    17    1
     5    12    11    2
     6    11    10    1
     7    22    23    2
     8    22    21    1
     9    17    19    1
    10    17    18    1
    11     1     2    1
    12    32    33    1
    13     9    10    1
    14     9     3   am
    15    21    20    1
    16    21    24    1
    17    39    38    1
    18     2     3    1
    19     2     5    1
    20     3     4    2
    21    37    38    1
    22    37    36    1
    23     5     6    1
    24    33    36    1
    25    33    34    1
    26     6     7    1
    27     6     8    1
    28    35    34    2
    29   125   123   ar
    30    34    40   am
    31   124   123   ar
    32   123   122    1
    33    40    41    1
    34    53    54    1
    35    53    50    1
    36    55    54   ar
    37    55    57   ar
    38   122   119    1
    39    97    95    1
    40    54    56   ar
    41    41    42    1
    42    41    44    1
    43    57    59   ar
    44   120   119    1
    45   120   121    2
    46   119   118    1
    47    42    43    2
    48    42    49   am
    49    49    50    1
    50    50    51    1
    51   117   116    2
    52    56    58   ar
    53    95    94    2
    54    95    96    1
    55    94    93    1
    56    59    58   ar
    57    59    60    1
    58   104   103    2
    59    44    45    1
    60   118   116   am
    61   116   115    1
    62    93    92    1
    63   105   103   am
    64    30    29    1
    65    31    29    1
    66   103   102    1
    67    51    52    2
    68    51    61   am
    69    28    27    2
    70    45    46    1
    71    61    62    1
    72    29    26    1
    73    27    26    1
    74   115   114    1
    75    92    91    1
    76   102    99    1
    77    90    89    2
    78   112   111    1
    79    26    25    1
    80    91    88    1
    81   113   111    1
    82    46    48   ar
    83    46    47   ar
    84    99    98    1
    85    99   100    1
    86    64    63    2
    87    86    84   ar
    88    62    63    1
    89    62    65    1
    90    89    98   am
    91    89    88    1
    92   111   110    1
    93   101   100    2
    94    88    87    1
    95    65    66    1
    96    70    71    1
    97    70    69    1
    98    66    68    1
    99    66    67    1
   100    77    78    1
   101    77    74    1
   102    84    85   ar
   103    84    83    1
   104    73    71   am
   105    73    74    1
   106    71    72    2
   107   110   107    1
   108    74    75    1
   109    83    80    1
   110   107   106    1
   111   107   108    1
   112    75    76    2
   113    80    79    1
   114    80    81    1
   115   108   109    2
   116    81    82    2
