@<TRIPOS>MOLECULE
tmp/4f0aB01.pdb
 90 87 0 0 0
SMALL
GASTEIGER

@<TRIPOS>ATOM
      1  N        -78.2440    0.5260   14.8320 N.3    50  SER50      -0.1217
      2  CA       -77.7210    1.8570   14.5880 C.3    50  SER50       0.1889
      3  C        -76.9510    1.8310   13.2850 C.2    50  SER50       0.2288
      4  O        -75.9150    1.1790   13.1950 O.2    50  SER50      -0.2866
      5  CB       -76.7830    2.2820   15.7210 C.3    50  SER50       0.2089
      6  OG       -77.4100    2.2010   16.9890 O.3    50  SER50      -0.2183
      7  N        -74.7190    3.2680   12.1260 N.3    52  THR52      -0.1218
      8  CA       -73.4980    4.0290   12.3510 C.3    52  THR52       0.1862
      9  C        -72.3670    3.5360   11.4660 C.2    52  THR52       0.2287
     10  O        -72.4640    2.4790   10.8360 O.2    52  THR52      -0.2866
     11  CB       -73.0380    3.9440   13.8170 C.3    52  THR52       0.1770
     12  OG1      -72.7530    2.5810   14.1600 O.3    52  THR52      -0.2211
     13  CG2      -74.1160    4.4770   14.7400 C.3    52  THR52       0.0375
     14  N        -76.5410    7.2320   10.1310 N.3   210  GLU210     -0.1231
     15  CA       -76.5460    7.9470   11.4050 C.3   210  GLU210      0.1699
     16  C        -75.1340    8.3030   11.8410 C.2   210  GLU210      0.2592
     17  O        -74.1780    7.6110   11.4950 O.2   210  GLU210     -0.2718
     18  CB       -77.1890    7.0870   12.4900 C.3   210  GLU210      0.0402
     19  CG       -78.6210    6.6850   12.2090 C.3   210  GLU210      0.1161
     20  CD       -79.1390    5.6820   13.2180 C.2   210  GLU210      0.3649
     21  OE1      -78.3070    5.0680   13.9190 O.co2 210  GLU210     -0.2457
     22  OE2      -80.3730    5.5070   13.3150 O.co2 210  GLU210     -0.2457
     23  N        -75.0040    9.3800   12.6060 N.am  211  ASP211     -0.1960
     24  CA       -73.7240    9.7200   13.2150 C.3   211  ASP211      0.1840
     25  C        -73.4420    8.7630   14.3660 C.2   211  ASP211      0.2623
     26  O        -74.3630    8.1960   14.9510 O.2   211  ASP211     -0.2715
     27  CB       -73.7210   11.1650   13.7130 C.3   211  ASP211      0.1450
     28  CG       -73.6190   12.1710   12.5830 C.2   211  ASP211      0.3671
     29  OD1      -72.9830   11.8530   11.5550 O.co2 211  ASP211     -0.2456
     30  OD2      -74.1730   13.2820   12.7240 O.co2 211  ASP211     -0.2456
     31  N        -72.1680    8.5780   14.6910 N.am  212  SER212     -0.1936
     32  CA       -71.8000    7.6270   15.7340 C.3   212  SER212      0.2040
     33  C        -71.8920    8.2620   17.1180 C.2   212  SER212      0.2485
     34  O        -71.4750    9.4030   17.3070 O.2   212  SER212     -0.2729
     35  CB       -70.3990    7.0630   15.4830 C.3   212  SER212      0.2129
     36  OG       -70.3530    6.3620   14.2490 O.3   212  SER212     -0.2179
     37  N        -72.4450    7.5180   18.0920 N.am  213  PRO213     -0.2726
     38  CA       -72.6240    7.9880   19.4680 C.3   213  PRO213      0.1402
     39  C        -71.2950    8.2690   20.1520 C.2   213  PRO213      0.2269
     40  O        -70.2490    7.8910   19.6330 O.2   213  PRO213     -0.2865
     41  CB       -73.2880    6.7920   20.1510 C.3   213  PRO213      0.0296
     42  CG       -72.8410    5.6200   19.3640 C.3   213  PRO213      0.0237
     43  CD       -72.8540    6.1110   17.9480 C.3   213  PRO213      0.0939
     44  N        -69.3780    7.0320   26.5820 N.3   217  LEU217     -0.1231
     45  CA       -70.5650    6.8760   27.4080 C.3   217  LEU217      0.1693
     46  C        -71.2270    5.5130   27.2630 C.2   217  LEU217      0.2592
     47  O        -71.2020    4.8990   26.1970 O.2   217  LEU217     -0.2718
     48  CB       -71.5810    7.9680   27.0720 C.3   217  LEU217      0.0284
     49  CG       -70.9900    9.3720   26.9550 C.3   217  LEU217      0.0019
     50  CD1      -72.0690   10.3910   26.6170 C.3   217  LEU217      0.0001
     51  CD2      -70.2560    9.7530   28.2350 C.3   217  LEU217      0.0001
     52  N        -71.8280    5.0580   28.3550 N.am  218  LYS218     -0.1966
     53  CA       -72.6250    3.8440   28.3640 C.3   218  LYS218      0.1728
     54  C        -74.0280    4.1700   27.8710 C.2   218  LYS218      0.2616
     55  O        -74.6180    5.1690   28.2830 O.2   218  LYS218     -0.2715
     56  CB       -72.6790    3.2730   29.7820 C.3   218  LYS218      0.0311
     57  CG       -73.5240    2.0260   29.9280 C.3   218  LYS218      0.0038
     58  CD       -73.1090    1.2340   31.1560 C.3   218  LYS218      0.0206
     59  CE       -73.7920   -0.1270   31.1900 C.3   218  LYS218      0.1093
     60  NZ       -72.9090   -1.1910   31.7520 N.3   218  LYS218     -0.1314
     61  N        -74.5510    3.3380   26.9770 N.am  219  ASN219     -0.1958
     62  CA       -75.9000    3.5190   26.4460 C.3   219  ASN219      0.1819
     63  C        -76.5180    2.1520   26.2050 C.2   219  ASN219      0.2621
     64  O        -76.4570    1.6280   25.0960 O.2   219  ASN219     -0.2715
     65  CB       -75.8690    4.3370   25.1460 C.3   219  ASN219      0.1195
     66  CG       -77.2480    4.8360   24.7230 C.2   219  ASN219      0.2630
     67  OD1      -78.2520    4.1400   24.8810 O.2   219  ASN219     -0.2716
     68  ND2      -77.2960    6.0530   24.1800 N.am  219  ASN219     -0.0877
     69  N        -77.1130    1.5820   27.2490 N.am  220  ILE220     -0.1963
     70  CA       -77.6110    0.2090   27.2060 C.3   220  ILE220      0.1727
     71  C        -78.6640   -0.0240   26.1170 C.2   220  ILE220      0.2617
     72  O        -78.8650   -1.1560   25.6710 O.2   220  ILE220     -0.2715
     73  CB       -78.1510   -0.2360   28.5800 C.3   220  ILE220      0.0290
     74  CG1      -77.2150    0.2390   29.6940 C.3   220  ILE220      0.0022
     75  CG2      -78.3040   -1.7480   28.6340 C.3   220  ILE220      0.0023
     76  CD1      -77.4840   -0.4030   31.0450 C.3   220  ILE220      0.0001
     77  N        -79.3190    1.0460   25.6740 N.am  221  SER221     -0.1936
     78  CA       -80.2670    0.9440   24.5670 C.3   221  SER221      0.2055
     79  C        -79.5730    0.5470   23.2600 C.2   221  SER221      0.2642
     80  O        -80.1890   -0.0500   22.3770 O.2   221  SER221     -0.2714
     81  CB       -81.0180    2.2640   24.3700 C.3   221  SER221      0.2130
     82  OG       -80.2150    3.2200   23.6980 O.3   221  SER221     -0.2179
     83  N        -78.2880    0.8760   23.1530 N.am  222  LEU222     -0.1977
     84  CA       -77.5220    0.6400   21.9330 C.3   222  LEU222      0.1596
     85  C        -76.5620   -0.5440   22.0480 C.2   222  LEU222      0.2287
     86  O        -75.8820   -0.8930   21.0830 O.2   222  LEU222     -0.2864
     87  CB       -76.7330    1.8950   21.5600 C.3   222  LEU222      0.0297
     88  CG       -77.5480    3.1730   21.3960 C.3   222  LEU222      0.0022
     89  CD1      -76.6480    4.3300   21.0090 C.3   222  LEU222      0.0001
     90  CD2      -78.6310    2.9670   20.3600 C.3   222  LEU222      0.0001
@<TRIPOS>BOND
     1    14    15    1
     2    10     9    2
     3    15    16    1
     4    15    18    1
     5     9     8    1
     6    17    16    2
     7    29    28   ar
     8    16    23   am
     9     7     8    1
    10    19    18    1
    11    19    20    1
    12     8    11    1
    13    28    30   ar
    14    28    27    1
    15    23    24    1
    16     4     3    2
    17    24    27    1
    18    24    25    1
    19    20    22   ar
    20    20    21   ar
    21     3     2    1
    22    11    12    1
    23    11    13    1
    24    36    35    1
    25    25    31   am
    26    25    26    2
    27     2     1    1
    28     2     5    1
    29    31    32    1
    30    35    32    1
    31     5     6    1
    32    32    33    1
    33    33    34    2
    34    33    37   am
    35    43    37    1
    36    43    42    1
    37    37    38    1
    38    42    41    1
    39    38    41    1
    40    38    39    1
    41    40    39    2
    42    90    88    1
    43    89    88    1
    44    86    85    2
    45    88    87    1
    46    87    84    1
    47    84    85    1
    48    84    83    1
    49    80    79    2
    50    83    79   am
    51    79    78    1
    52    82    81    1
    53    68    66   am
    54    81    78    1
    55    78    77    1
    56    66    67    2
    57    66    65    1
    58    64    63    2
    59    65    62    1
    60    72    71    2
    61    77    71   am
    62    71    70    1
    63    47    46    2
    64    63    62    1
    65    63    69   am
    66    62    61    1
    67    44    45    1
    68    50    49    1
    69    49    48    1
    70    49    51    1
    71    61    54   am
    72    48    45    1
    73    70    69    1
    74    70    73    1
    75    46    45    1
    76    46    52   am
    77    54    55    2
    78    54    53    1
    79    52    53    1
    80    53    56    1
    81    73    75    1
    82    73    74    1
    83    74    76    1
    84    56    57    1
    85    57    58    1
    86    58    59    1
    87    59    60    1
