@<TRIPOS>MOLECULE
tmp/4f0aB00.pdb
 86 79 0 0 0
SMALL
GASTEIGER

@<TRIPOS>ATOM
      1  N        -75.6810  -28.2510    5.5590 N.3     8  THR8       -0.1218
      2  CA       -74.3390  -28.7440    5.2530 C.3     8  THR8        0.1862
      3  C        -73.2700  -27.6490    5.3120 C.2     8  THR8        0.2287
      4  O        -72.0950  -27.9320    5.5490 O.2     8  THR8       -0.2866
      5  CB       -74.2850  -29.4550    3.8840 C.3     8  THR8        0.1770
      6  OG1      -74.8710  -28.6140    2.8860 O.3     8  THR8       -0.2211
      7  CG2      -75.0440  -30.7760    3.9320 C.3     8  THR8        0.0375
      8  N        -72.4680  -25.1160    9.6330 N.3    11  ALA11      -0.1231
      9  CA       -71.4240  -25.2930   10.6340 C.3    11  ALA11       0.1694
     10  C        -70.2310  -24.4250   10.2730 C.2    11  ALA11       0.2592
     11  O        -69.7270  -23.6630   11.0940 O.2    11  ALA11      -0.2718
     12  CB       -71.0120  -26.7520   10.7260 C.3    11  ALA11       0.0304
     13  N        -69.8000  -24.5350    9.0230 N.am   12  SER12      -0.1952
     14  CA       -68.6440  -23.7980    8.5400 C.3    12  SER12       0.1924
     15  C        -68.8960  -22.2900    8.5380 C.2    12  SER12       0.2314
     16  O        -68.0290  -21.5080    8.9230 O.2    12  SER12      -0.2863
     17  CB       -68.2800  -24.2840    7.1400 C.3    12  SER12       0.2116
     18  OG       -68.3540  -25.6970    7.0840 O.3    12  SER12      -0.2180
     19  N        -68.5210  -20.6550   11.9380 N.3    15  VAL15      -0.1245
     20  CA       -67.1050  -20.4870   12.2280 C.3    15  VAL15       0.1561
     21  C        -66.5820  -19.2460   11.5200 C.2    15  VAL15       0.2260
     22  O        -65.8040  -18.4760   12.0790 O.2    15  VAL15      -0.2867
     23  CB       -66.2970  -21.6990   11.7510 C.3    15  VAL15       0.0252
     24  CG1      -64.8170  -21.4850   12.0090 C.3    15  VAL15       0.0019
     25  CG2      -66.7890  -22.9590   12.4300 C.3    15  VAL15       0.0019
     26  N        -64.8810  -15.6550   12.9470 N.3    19  ASN19      -0.1240
     27  CA       -63.5880  -15.1160   12.5200 C.3    19  ASN19       0.1653
     28  C        -63.7070  -13.6420   12.1540 C.2    19  ASN19       0.2266
     29  O        -62.8080  -12.8370   12.4110 O.2    19  ASN19      -0.2867
     30  CB       -63.0420  -15.8800   11.3080 C.3    19  ASN19       0.1155
     31  CG       -62.6700  -17.3130   11.6320 C.2    19  ASN19       0.2627
     32  OD1      -62.6010  -17.7070   12.7980 O.2    19  ASN19      -0.2716
     33  ND2      -62.4150  -18.1030   10.5930 N.am   19  ASN19      -0.0877
     34  N        -63.5900  -17.9570    4.9070 N.3    69  THR69      -0.1218
     35  CA       -63.4770  -19.2610    5.5460 C.3    69  THR69       0.1862
     36  C        -63.9600  -20.3960    4.6470 C.2    69  THR69       0.2287
     37  O        -63.2980  -21.4280    4.5370 O.2    69  THR69      -0.2866
     38  CB       -64.2300  -19.2870    6.8860 C.3    69  THR69       0.1770
     39  OG1      -63.7370  -18.2300    7.7150 O.3    69  THR69      -0.2211
     40  CG2      -64.0210  -20.6110    7.5940 C.3    69  THR69       0.0375
     41  N        -61.8230  -21.1050    1.6380 N.3    72  ARG72      -0.1231
     42  CA       -60.7250  -21.9390    2.1000 C.3    72  ARG72       0.1694
     43  C        -61.2400  -23.3360    2.4480 C.2    72  ARG72       0.2592
     44  O        -60.5280  -24.3230    2.2670 O.2    72  ARG72      -0.2718
     45  CB       -60.0170  -21.2840    3.2940 C.3    72  ARG72       0.0321
     46  CG       -58.8530  -22.0770    3.8800 C.3    72  ARG72       0.0489
     47  CD       -57.7840  -22.4040    2.8460 C.3    72  ARG72       0.2205
     48  NE       -57.1470  -21.2110    2.2950 N.pl3  72  ARG72      -0.0865
     49  CZ       -56.0880  -21.2320    1.4890 C.cat  72  ARG72       0.5346
     50  NH1      -55.5370  -22.3900    1.1430 N.pl3  72  ARG72       0.1354
     51  NH2      -55.5750  -20.0970    1.0300 N.pl3  72  ARG72       0.1354
     52  N        -62.4780  -23.4170    2.9360 N.am   73  ASN73      -0.1974
     53  CA       -63.1130  -24.7100    3.1950 C.3    73  ASN73       0.1688
     54  C        -63.1860  -25.5150    1.9080 C.2    73  ASN73       0.2292
     55  O        -62.8000  -26.6810    1.8700 O.2    73  ASN73      -0.2864
     56  CB       -64.5270  -24.5440    3.7740 C.3    73  ASN73       0.1181
     57  CG       -64.5480  -24.5120    5.2990 C.2    73  ASN73       0.2629
     58  OD1      -64.5920  -23.4430    5.9030 O.2    73  ASN73      -0.2716
     59  ND2      -64.5350  -25.6920    5.9220 N.am   73  ASN73      -0.0877
     60  N        -59.5910  -26.6850    0.5610 N.3    76  MET76      -0.1245
     61  CA       -59.1660  -27.8760    1.2870 C.3    76  MET76       0.1570
     62  C        -60.1940  -28.9880    1.0890 C.2    76  MET76       0.2261
     63  O        -61.2550  -28.7730    0.5000 O.2    76  MET76      -0.2867
     64  CB       -58.9620  -27.5740    2.7710 C.3    76  MET76       0.0387
     65  CG       -57.7570  -26.6960    3.0440 C.3    76  MET76       0.0595
     66  SD       -57.6810  -26.1340    4.7540 S.3    76  MET76      -0.1393
     67  CE       -56.2220  -25.0880    4.7090 C.3    76  MET76       0.0692
     68  N        -62.8230  -30.3500    2.2900 N.3    78  ASP78      -0.1225
     69  CA       -63.9240  -30.2720    3.2490 C.3    78  ASP78       0.1805
     70  C        -65.2920  -30.4830    2.6130 C.2    78  ASP78       0.2597
     71  O        -66.2040  -30.9990    3.2570 O.2    78  ASP78      -0.2718
     72  CB       -63.8910  -28.9550    4.0250 C.3    78  ASP78       0.1424
     73  CG       -62.7080  -28.8660    4.9710 C.2    78  ASP78       0.3668
     74  OD1      -62.1090  -29.9170    5.2890 O.co2  78  ASP78      -0.2456
     75  OD2      -62.3800  -27.7420    5.4010 O.co2  78  ASP78      -0.2456
     76  N        -65.4360  -30.0820    1.3560 N.am   79  PHE79      -0.1976
     77  CA       -66.6720  -30.3260    0.6190 C.3    79  PHE79       0.1639
     78  C        -66.3920  -31.1230   -0.6410 C.2    79  PHE79       0.2290
     79  O        -65.4610  -30.8140   -1.3850 O.2    79  PHE79      -0.2864
     80  CB       -67.3580  -29.0140    0.2480 C.3    79  PHE79       0.0560
     81  CG       -67.9160  -28.2770    1.4210 C.ar   79  PHE79      -0.0200
     82  CD1      -68.3690  -28.9630    2.5300 C.ar   79  PHE79      -0.0042
     83  CD2      -67.9810  -26.8970    1.4200 C.ar   79  PHE79      -0.0042
     84  CE1      -68.8810  -28.2870    3.6140 C.ar   79  PHE79      -0.0003
     85  CE2      -68.4900  -26.2180    2.5030 C.ar   79  PHE79      -0.0003
     86  CZ       -68.9420  -26.9140    3.6000 C.ar   79  PHE79      -0.0000
@<TRIPOS>BOND
     1    79    78    2
     2    78    77    1
     3    80    77    1
     4    80    81    1
     5    63    62    2
     6    60    61    1
     7    77    76    1
     8    51    49    1
     9    62    61    1
    10    50    49    1
    11    61    64    1
    12    76    70   am
    13    83    81   ar
    14    83    85   ar
    15    81    82   ar
    16    49    48    2
    17    41    42    1
    18    55    54    2
    19    54    53    1
    20    42    43    1
    21    42    45    1
    22    44    43    2
    23    68    69    1
    24    48    47    1
    25    43    52   am
    26    85    86   ar
    27    82    84   ar
    28    70    69    1
    29    70    71    2
    30    64    65    1
    31    47    46    1
    32     6     5    1
    33    52    53    1
    34    65    66    1
    35    53    56    1
    36    69    72    1
    37    45    46    1
    38    86    84   ar
    39    56    57    1
    40     5     7    1
    41     5     2    1
    42    72    73    1
    43    37    36    2
    44    36    35    1
    45    67    66    1
    46    34    35    1
    47    73    74   ar
    48    73    75   ar
    49     2     3    1
    50     2     1    1
    51    57    58    2
    52    57    59   am
    53     3     4    2
    54    35    38    1
    55    38    40    1
    56    38    39    1
    57    18    17    1
    58    17    14    1
    59    15    14    1
    60    15    16    2
    61    14    13    1
    62    13    10   am
    63     8     9    1
    64    10     9    1
    65    10    11    2
    66    33    31   am
    67     9    12    1
    68    30    31    1
    69    30    27    1
    70    21    22    2
    71    21    20    1
    72    31    32    2
    73    23    24    1
    74    23    20    1
    75    23    25    1
    76    19    20    1
    77    28    29    2
    78    28    27    1
    79    27    26    1
