@<TRIPOS>MOLECULE
tmp/4f0aA01.pdb
 94 92 0 0 0
SMALL
GASTEIGER

@<TRIPOS>ATOM
      1  N        -31.7540  -33.8640   -6.2080 N.3    37  GLN37      -0.1231
      2  CA       -30.8960  -33.2460   -7.2090 C.3    37  GLN37       0.1698
      3  C        -29.5430  -32.8360   -6.6250 C.2    37  GLN37       0.2592
      4  O        -28.6430  -32.4220   -7.3540 O.2    37  GLN37      -0.2718
      5  CB       -31.5940  -32.0400   -7.8430 C.3    37  GLN37       0.0381
      6  CG       -32.8390  -32.3970   -8.6400 C.3    37  GLN37       0.0905
      7  CD       -33.4590  -31.1950   -9.3320 C.2    37  GLN37       0.2608
      8  OE1      -33.2550  -30.0540   -8.9210 O.2    37  GLN37      -0.2717
      9  NE2      -34.2190  -31.4480  -10.3940 N.am   37  GLN37      -0.0878
     10  N        -29.4020  -32.9550   -5.3090 N.am   38  PHE38      -0.1976
     11  CA       -28.1470  -32.6340   -4.6370 C.3    38  PHE38       0.1639
     12  C        -27.3480  -33.8880   -4.3080 C.2    38  PHE38       0.2290
     13  O        -26.2260  -33.7990   -3.8040 O.2    38  PHE38      -0.2864
     14  CB       -28.4110  -31.8910   -3.3300 C.3    38  PHE38       0.0560
     15  CG       -28.9720  -30.5080   -3.5030 C.ar   38  PHE38      -0.0200
     16  CD1      -28.1330  -29.4280   -3.7220 C.ar   38  PHE38      -0.0042
     17  CD2      -30.3360  -30.2830   -3.4110 C.ar   38  PHE38      -0.0042
     18  CE1      -28.6450  -28.1530   -3.8680 C.ar   38  PHE38      -0.0003
     19  CE2      -30.8530  -29.0110   -3.5560 C.ar   38  PHE38      -0.0003
     20  CZ       -30.0060  -27.9450   -3.7840 C.ar   38  PHE38      -0.0000
     21  N        -25.4280  -36.0250   -5.7600 N.3    40  PRO40      -0.2102
     22  CA       -23.9890  -36.0170   -6.0420 C.3    40  PRO40       0.1504
     23  C        -23.1750  -35.3470   -4.9440 C.2    40  PRO40       0.2575
     24  O        -22.2820  -35.9850   -4.3950 O.2    40  PRO40      -0.2718
     25  CB       -23.8990  -35.1910   -7.3230 C.3    40  PRO40       0.0282
     26  CG       -25.1580  -35.4940   -8.0300 C.3    40  PRO40       0.0208
     27  CD       -26.2090  -35.6810   -6.9670 C.3    40  PRO40       0.0893
     28  N        -23.5000  -34.0990   -4.6170 N.am   41  LEU41      -0.1980
     29  CA       -22.7300  -33.3180   -3.6500 C.3    41  LEU41       0.1596
     30  C        -22.6710  -33.9530   -2.2630 C.2    41  LEU41       0.2287
     31  O        -21.7550  -33.6760   -1.4860 O.2    41  LEU41      -0.2864
     32  CB       -23.2870  -31.9000   -3.5440 C.3    41  LEU41       0.0297
     33  CG       -23.3050  -31.0640   -4.8230 C.3    41  LEU41       0.0022
     34  CD1      -24.0690  -29.7730   -4.5890 C.3    41  LEU41       0.0001
     35  CD2      -21.8930  -30.7730   -5.3000 C.3    41  LEU41       0.0001
     36  N        -19.9700  -36.8360   -2.8260 N.3    44  ILE44      -0.1245
     37  CA       -18.6780  -36.1640   -2.9170 C.3    44  ILE44       0.1561
     38  C        -18.2060  -35.7600   -1.5210 C.2    44  ILE44       0.2260
     39  O        -17.0020  -35.7360   -1.2390 O.2    44  ILE44      -0.2867
     40  CB       -18.7750  -34.9010   -3.8030 C.3    44  ILE44       0.0252
     41  CG1      -19.3640  -35.2480   -5.1600 C.3    44  ILE44       0.0019
     42  CG2      -17.4240  -34.2600   -4.0000 C.3    44  ILE44       0.0019
     43  CD1      -18.5990  -36.3160   -5.8670 C.3    44  ILE44       0.0001
     44  N        -17.1880  -26.1150   -6.0790 N.3    87  LEU87      -0.1231
     45  CA       -17.3820  -27.2750   -6.9400 C.3    87  LEU87       0.1693
     46  C        -18.5930  -27.0850   -7.8470 C.2    87  LEU87       0.2591
     47  O        -18.5570  -27.4300   -9.0270 O.2    87  LEU87      -0.2718
     48  CB       -17.5310  -28.5450   -6.0960 C.3    87  LEU87       0.0284
     49  CG       -17.9490  -29.8370   -6.8030 C.3    87  LEU87       0.0019
     50  CD1      -17.0360  -30.1400   -7.9780 C.3    87  LEU87       0.0001
     51  CD2      -17.9590  -30.9960   -5.8180 C.3    87  LEU87       0.0001
     52  N        -19.6590  -26.5290   -7.2800 N.am   88  MET88      -0.1979
     53  CA       -20.8930  -26.2780   -8.0120 C.3    88  MET88       0.1605
     54  C        -20.6780  -25.1740   -9.0270 C.2    88  MET88       0.2287
     55  O        -21.1660  -25.2440  -10.1520 O.2    88  MET88      -0.2864
     56  CB       -22.0060  -25.8570   -7.0540 C.3    88  MET88       0.0413
     57  CG       -22.3240  -26.8550   -5.9690 C.3    88  MET88       0.0598
     58  SD       -23.5800  -26.2150   -4.8490 S.3    88  MET88      -0.1393
     59  CE       -24.9670  -26.0780   -5.9680 C.3    88  MET88       0.0692
     60  N        -19.2360  -26.1380  -12.4120 N.3    91  TYR91      -0.1241
     61  CA       -20.1150  -26.7960  -13.3680 C.3    91  TYR91       0.1605
     62  C        -21.2810  -25.9150  -13.8060 C.2    91  TYR91       0.2264
     63  O        -22.2360  -26.4000  -14.4080 O.2    91  TYR91      -0.2867
     64  CB       -20.6400  -28.1100  -12.7950 C.3    91  TYR91       0.0534
     65  CG       -19.5910  -29.1890  -12.7190 C.ar   91  TYR91      -0.0201
     66  CD1      -19.7400  -30.2690  -11.8640 C.ar   91  TYR91      -0.0009
     67  CD2      -18.4500  -29.1260  -13.5030 C.ar   91  TYR91      -0.0009
     68  CE1      -18.7850  -31.2550  -11.7910 C.ar   91  TYR91       0.0417
     69  CE2      -17.4870  -30.1090  -13.4370 C.ar   91  TYR91       0.0417
     70  CZ       -17.6620  -31.1700  -12.5780 C.ar   91  TYR91       0.1957
     71  OH       -16.7080  -32.1550  -12.5030 O.3    91  TYR91      -0.2866
     72  N        -23.2900  -23.9760  -11.8040 N.3    93  PHE93      -0.1227
     73  CA       -24.3830  -24.0130  -10.8430 C.3    93  PHE93       0.1736
     74  C        -24.1730  -22.9760   -9.7530 C.2    93  PHE93       0.2595
     75  O        -23.2500  -23.0850   -8.9420 O.2    93  PHE93      -0.2718
     76  CB       -24.5160  -25.4040  -10.2240 C.3    93  PHE93       0.0547
     77  CG       -25.0210  -26.4390  -11.1780 C.ar   93  PHE93      -0.0202
     78  CD1      -24.1420  -27.1350  -11.9900 C.ar   93  PHE93      -0.0042
     79  CD2      -26.3750  -26.7120  -11.2720 C.ar   93  PHE93      -0.0042
     80  CE1      -24.6040  -28.0880  -12.8790 C.ar   93  PHE93      -0.0003
     81  CE2      -26.8460  -27.6650  -12.1560 C.ar   93  PHE93      -0.0003
     82  CZ       -25.9590  -28.3550  -12.9610 C.ar   93  PHE93      -0.0000
     83  N        -25.0330  -21.9660   -9.7440 N.am   94  ALA94      -0.1980
     84  CA       -24.9870  -20.9390   -8.7190 C.3    94  ALA94       0.1597
     85  C        -25.5330  -21.4890   -7.4090 C.2    94  ALA94       0.2287
     86  O        -26.4390  -22.3250   -7.4070 O.2    94  ALA94      -0.2864
     87  CB       -25.7830  -19.7250   -9.1590 C.3    94  ALA94       0.0319
     88  N        -27.8630  -21.7240   -4.6510 N.3    96  PRO96      -0.2116
     89  CA       -29.2940  -21.3820   -4.6960 C.3    96  PRO96       0.1372
     90  C        -29.6750  -20.2360   -3.7580 C.2    96  PRO96       0.2244
     91  O        -29.1780  -20.1590   -2.6360 O.2    96  PRO96      -0.2868
     92  CB       -29.9800  -22.6790   -4.2580 C.3    96  PRO96       0.0268
     93  CG       -28.9920  -23.7510   -4.5450 C.3    96  PRO96       0.0207
     94  CD       -27.6470  -23.1380   -4.3030 C.3    96  PRO96       0.0892
@<TRIPOS>BOND
     1    63    62    2
     2    62    61    1
     3    67    69   ar
     4    67    65   ar
     5    69    70   ar
     6    61    64    1
     7    61    60    1
     8    82    80   ar
     9    82    81   ar
    10    80    78   ar
    11    64    65    1
    12    65    66   ar
    13    70    71    1
    14    70    68   ar
    15    81    79   ar
    16    78    77   ar
    17    66    68   ar
    18    72    73    1
    19    79    77   ar
    20    77    76    1
    21    73    76    1
    22    73    74    1
    23     9     7   am
    24    55    54    2
    25    74    83   am
    26    74    75    2
    27    83    84    1
    28     7     8    2
    29     7     6    1
    30    87    84    1
    31    47    46    2
    32    54    53    1
    33    84    85    1
    34     6     5    1
    35    26    25    1
    36    26    27    1
    37    53    52    1
    38    53    56    1
    39    50    49    1
    40    46    52   am
    41    46    45    1
    42     5     2    1
    43    85    86    2
    44     4     3    2
    45    25    22    1
    46     2     3    1
    47     2     1    1
    48    56    57    1
    49    27    21    1
    50    45    48    1
    51    45    44    1
    52    49    48    1
    53    49    51    1
    54     3    10   am
    55    22    21    1
    56    22    23    1
    57    57    58    1
    58    59    58    1
    59    43    41    1
    60    10    11    1
    61    35    33    1
    62    41    40    1
    63    23    28   am
    64    23    24    2
    65    33    34    1
    66    33    32    1
    67    89    88    1
    68    89    92    1
    69    89    90    1
    70    88    94    1
    71    11    12    1
    72    11    14    1
    73    28    29    1
    74    93    94    1
    75    93    92    1
    76    12    13    2
    77    42    40    1
    78    18    20   ar
    79    18    16   ar
    80    40    37    1
    81    20    19   ar
    82    90    91    2
    83    16    15   ar
    84    29    32    1
    85    29    30    1
    86    19    17   ar
    87    15    17   ar
    88    15    14    1
    89    37    36    1
    90    37    38    1
    91    30    31    2
    92    38    39    2
