@<TRIPOS>MOLECULE
tmp/4f0dA00.pdb
 89 89 0 0 0
SMALL
GASTEIGER

@<TRIPOS>ATOM
      1  N         14.3980   40.9950   -2.7250 N.3   148  PHE148     -0.1227
      2  CA        15.1850   40.7300   -1.5300 C.3   148  PHE148      0.1736
      3  C         16.5170   41.4560   -1.4880 C.2   148  PHE148      0.2595
      4  O         17.1560   41.6630   -2.5020 O.2   148  PHE148     -0.2718
      5  CB        15.4830   39.2260   -1.4220 C.3   148  PHE148      0.0547
      6  CG        14.3130   38.2860   -1.4920 C.ar  148  PHE148     -0.0202
      7  CD1       13.4820   38.1010   -0.3910 C.ar  148  PHE148     -0.0042
      8  CD2       14.0680   37.5460   -2.6390 C.ar  148  PHE148     -0.0042
      9  CE1       12.3940   37.2300   -0.4550 C.ar  148  PHE148     -0.0003
     10  CE2       12.9940   36.6600   -2.6970 C.ar  148  PHE148     -0.0003
     11  CZ        12.1620   36.5050   -1.6050 C.ar  148  PHE148     -0.0000
     12  N         16.9590   41.7400   -0.2710 N.am  149  HIS149     -0.1961
     13  CA        18.2030   42.3660    0.0950 C.3   149  HIS149      0.1787
     14  C         18.7100   41.7250    1.4010 C.2   149  HIS149      0.2620
     15  O         18.0670   41.8370    2.4470 O.2   149  HIS149     -0.2715
     16  CB        18.0360   43.8890    0.2450 C.3   149  HIS149      0.0785
     17  CG        19.3130   44.5970    0.5960 C.ar  149  HIS149      0.0821
     18  ND1       20.1310   45.1300   -0.3770 N.ar  149  HIS149     -0.2267
     19  CD2       19.8810   44.8090    1.8010 C.ar  149  HIS149      0.1154
     20  CE1       21.1540   45.6610    0.2610 C.ar  149  HIS149      0.1986
     21  NE2       21.0570   45.4830    1.5700 N.ar  149  HIS149     -0.2212
     22  N         19.8500   41.0530    1.3040 N.am  150  GLY150     -0.1954
     23  CA        20.5240   40.4360    2.4250 C.3   150  GLY150      0.1869
     24  C         21.5450   41.4040    2.9580 C.2   150  GLY150      0.2309
     25  O         21.9140   42.3580    2.2690 O.2   150  GLY150     -0.2863
     26  N         20.8510   47.0640   -3.7080 N.3   177  TYR177     -0.1227
     27  CA        20.8760   45.8400   -4.5020 C.3   177  TYR177      0.1736
     28  C         19.7560   44.9480   -4.0900 C.2   177  TYR177      0.2595
     29  O         19.5540   44.6750   -2.8970 O.2   177  TYR177     -0.2718
     30  CB        22.2240   45.1140   -4.4110 C.3   177  TYR177      0.0548
     31  CG        23.2380   45.6660   -5.3830 C.ar  177  TYR177     -0.0200
     32  CD1       23.8350   46.9050   -5.1700 C.ar  177  TYR177     -0.0009
     33  CD2       23.5550   44.9800   -6.5520 C.ar  177  TYR177     -0.0009
     34  CE1       24.7360   47.4390   -6.0870 C.ar  177  TYR177      0.0417
     35  CE2       24.4660   45.4970   -7.4670 C.ar  177  TYR177      0.0417
     36  CZ        25.0520   46.7280   -7.2290 C.ar  177  TYR177      0.1957
     37  OH        25.9320   47.2570   -8.1290 O.3   177  TYR177     -0.2866
     38  N         18.9870   44.5280   -5.1000 N.am  178  LEU178     -0.1966
     39  CA        17.8180   43.6920   -4.9260 C.3   178  LEU178      0.1728
     40  C         17.8050   42.5500   -5.9280 C.2   178  LEU178      0.2616
     41  O         18.4710   42.6190   -6.9610 O.2   178  LEU178     -0.2715
     42  CB        16.5460   44.5490   -5.0830 C.3   178  LEU178      0.0311
     43  CG        16.3850   45.7430   -4.1670 C.3   178  LEU178      0.0022
     44  CD1       15.4240   46.6800   -4.7280 C.3   178  LEU178      0.0001
     45  CD2       15.9560   45.3330   -2.7950 C.3   178  LEU178      0.0001
     46  N         17.0320   41.5060   -5.6320 N.am  179  THR179     -0.1951
     47  CA        16.9160   40.3220   -6.4630 C.3   179  THR179      0.1897
     48  C         15.6430   39.6120   -6.0910 C.2   179  THR179      0.2313
     49  O         15.2800   39.5660   -4.9110 O.2   179  THR179     -0.2863
     50  CB        18.1620   39.4040   -6.3330 C.3   179  THR179      0.1794
     51  OG1       17.9490   38.2330   -7.1180 O.3   179  THR179     -0.2208
     52  CG2       18.4800   39.0030   -4.8810 C.3   179  THR179      0.0378
     53  N         20.1320   34.2040   -3.8090 N.3   184  LEU184     -0.1231
     54  CA        21.1630   35.1860   -4.0980 C.3   184  LEU184      0.1693
     55  C         21.2460   36.1710   -2.9330 C.2   184  LEU184      0.2591
     56  O         22.3470   36.4940   -2.5070 O.2   184  LEU184     -0.2718
     57  CB        20.8890   35.8920   -5.4430 C.3   184  LEU184      0.0284
     58  CG        21.9300   36.9330   -5.9070 C.3   184  LEU184      0.0019
     59  CD1       23.3320   36.3180   -6.0260 C.3   184  LEU184      0.0001
     60  CD2       21.5130   37.5770   -7.2260 C.3   184  LEU184      0.0001
     61  N         20.0960   36.6080   -2.3820 N.am  185  ALA185     -0.1980
     62  CA        20.0600   37.5110   -1.2150 C.3   185  ALA185      0.1597
     63  C         20.7560   36.8730   -0.0230 C.2   185  ALA185      0.2287
     64  O         21.6440   37.4850    0.5700 O.2   185  ALA185     -0.2864
     65  CB        18.6290   37.8500   -0.8460 C.3   185  ALA185      0.0319
     66  N         24.4280   37.0460    1.0980 N.3   188  TYR188     -0.1241
     67  CA        24.8150   38.3150    1.6830 C.3   188  TYR188      0.1605
     68  C         24.1970   38.4860    3.0840 C.2   188  TYR188      0.2264
     69  O         24.3600   39.5440    3.6820 O.2   188  TYR188     -0.2867
     70  CB        24.4520   39.4790    0.7620 C.3   188  TYR188      0.0534
     71  CG        25.0470   39.3490   -0.6170 C.ar  188  TYR188     -0.0201
     72  CD1       26.4180   39.4930   -0.8270 C.ar  188  TYR188     -0.0009
     73  CD2       24.2500   39.0200   -1.7110 C.ar  188  TYR188     -0.0009
     74  CE1       26.9800   39.3140   -2.0970 C.ar  188  TYR188      0.0417
     75  CE2       24.7990   38.8530   -2.9850 C.ar  188  TYR188      0.0417
     76  CZ        26.1600   39.0150   -3.1760 C.ar  188  TYR188      0.1957
     77  OH        26.6710   38.8940   -4.4450 O.3   188  TYR188     -0.2866
     78  N         19.4960   40.1630  -10.7280 N.3   219  TYR219     -0.1241
     79  CA        19.2900   41.2270   -9.7450 C.3   219  TYR219      0.1605
     80  C         19.0960   42.6030  -10.4140 C.2   219  TYR219      0.2264
     81  O         19.2940   42.7340  -11.6290 O.2   219  TYR219     -0.2867
     82  CB        20.4860   41.2730   -8.7780 C.3   219  TYR219      0.0534
     83  CG        21.8000   41.6820   -9.3950 C.ar  219  TYR219     -0.0201
     84  CD1       22.1650   43.0220   -9.4830 C.ar  219  TYR219     -0.0009
     85  CD2       22.7160   40.7280   -9.8230 C.ar  219  TYR219     -0.0009
     86  CE1       23.3900   43.4050  -10.0320 C.ar  219  TYR219      0.0417
     87  CE2       23.9520   41.0980  -10.3600 C.ar  219  TYR219      0.0417
     88  CZ        24.2880   42.4380  -10.4550 C.ar  219  TYR219      0.1957
     89  OH        25.5130   42.8020  -10.9650 O.3   219  TYR219     -0.2866
@<TRIPOS>BOND
     1    81    80    2
     2    89    88    1
     3    78    79    1
     4    88    87   ar
     5    88    86   ar
     6    80    79    1
     7    87    85   ar
     8    86    84   ar
     9    85    83   ar
    10    79    82    1
    11    84    83   ar
    12    83    82    1
    13    37    36    1
    14    35    36   ar
    15    35    33   ar
    16    36    34   ar
    17    60    58    1
    18    51    50    1
    19    41    40    2
    20    33    31   ar
    21    47    50    1
    22    47    48    1
    23    47    46    1
    24    50    52    1
    25    48    49    2
    26    34    32   ar
    27    59    58    1
    28    40    46   am
    29    40    39    1
    30    58    57    1
    31    57    54    1
    32    31    32   ar
    33    31    30    1
    34    38    39    1
    35    38    28   am
    36    42    39    1
    37    42    43    1
    38    44    43    1
    39    27    30    1
    40    27    28    1
    41    27    26    1
    42    77    76    1
    43    43    45    1
    44    54    53    1
    45    54    55    1
    46    28    29    2
    47    76    75   ar
    48    76    74   ar
    49    75    73   ar
    50    55    56    2
    51    55    61   am
    52     1     2    1
    53    10     8   ar
    54    10    11   ar
    55     8     6   ar
    56     4     3    2
    57    61    62    1
    58    74    72   ar
    59    73    71   ar
    60    11     9   ar
    61     2     3    1
    62     2     5    1
    63     6     5    1
    64     6     7   ar
    65     3    12   am
    66    62    65    1
    67    62    63    1
    68    72    71   ar
    69    71    70    1
    70     9     7   ar
    71    18    20   ar
    72    18    17   ar
    73    12    13    1
    74    63    64    2
    75    13    16    1
    76    13    14    1
    77    16    17    1
    78    20    21   ar
    79    17    19   ar
    80    70    67    1
    81    66    67    1
    82    22    14   am
    83    22    23    1
    84    14    15    2
    85    21    19   ar
    86    67    68    1
    87    25    24    2
    88    23    24    1
    89    68    69    2
