@<TRIPOS>MOLECULE
tmp/4f0eA00.pdb
 138 133 0 0 0
SMALL
GASTEIGER

@<TRIPOS>ATOM
      1  N          6.7380   -5.4940  -30.8110 N.3    80  HIS80      -0.1226
      2  CA         7.5030   -4.7810  -31.8240 C.3    80  HIS80       0.1752
      3  C          6.8880   -3.4170  -32.0970 C.2    80  HIS80       0.2597
      4  O          5.7950   -3.3210  -32.6520 O.2    80  HIS80      -0.2718
      5  CB         7.5810   -5.5770  -33.1260 C.3    80  HIS80       0.0759
      6  CG         8.4670   -4.9520  -34.1620 C.ar   80  HIS80       0.0818
      7  ND1        9.8420   -5.0380  -34.1150 N.ar   80  HIS80      -0.2268
      8  CD2        8.1750   -4.2290  -35.2690 C.ar   80  HIS80       0.1154
      9  CE1       10.3580   -4.3990  -35.1500 C.ar   80  HIS80       0.1986
     10  NE2        9.3680   -3.8990  -35.8670 N.ar   80  HIS80      -0.2212
     11  N          7.5870   -2.3640  -31.6890 N.am   81  GLY81      -0.1942
     12  CA         7.1670   -1.0170  -32.0130 C.3    81  GLY81       0.2014
     13  C          7.6340   -0.6710  -33.4100 C.2    81  GLY81       0.2640
     14  O          8.7390   -1.0450  -33.8090 O.2    81  GLY81      -0.2714
     15  N          6.7890    0.0280  -34.1610 N.am   82  THR82      -0.1936
     16  CA         7.1280    0.4380  -35.5200 C.3    82  THR82       0.2028
     17  C          6.3860    1.7230  -35.8900 C.2    82  THR82       0.2642
     18  O          5.6540    2.2820  -35.0680 O.2    82  THR82      -0.2714
     19  CB         6.8070   -0.6650  -36.5390 C.3    82  THR82       0.1808
     20  OG1        7.5620   -0.4530  -37.7390 O.3    82  THR82      -0.2208
     21  CG2        5.3170   -0.6770  -36.8670 C.3    82  THR82       0.0379
     22  N          6.5700    2.1900  -37.1210 N.am   83  ASP83      -0.1971
     23  CA         6.0120    3.4760  -37.5300 C.3    83  ASP83       0.1709
     24  C          4.9430    3.3750  -38.6230 C.2    83  ASP83       0.2293
     25  O          4.7930    2.3400  -39.2730 O.2    83  ASP83      -0.2864
     26  CB         7.1250    4.4450  -37.9470 C.3    83  ASP83       0.1436
     27  CG         7.9470    3.9330  -39.1150 C.2    83  ASP83       0.3671
     28  OD1        8.1640    2.7090  -39.2090 O.co2  83  ASP83      -0.2456
     29  OD2        8.3780    4.7670  -39.9390 O.co2  83  ASP83      -0.2456
     30  N          5.4700    1.6720  -41.8830 N.3    86  SER86      -0.1217
     31  CA         5.8960    0.2760  -41.8290 C.3    86  SER86       0.1889
     32  C          4.7920   -0.6990  -41.4460 C.2    86  SER86       0.2288
     33  O          5.0180   -1.9050  -41.4070 O.2    86  SER86      -0.2866
     34  CB         7.0770    0.1080  -40.8690 C.3    86  SER86       0.2089
     35  OG         8.3040    0.4100  -41.5160 O.3    86  SER86      -0.2183
     36  N         15.3740   -4.5930  -43.7110 N.3    99  CYS99      -0.1221
     37  CA        14.7850   -3.2720  -43.5160 C.3    99  CYS99       0.1808
     38  C         14.9550   -2.8390  -42.0660 C.2    99  CYS99       0.2601
     39  O         14.6030   -1.7220  -41.6880 O.2    99  CYS99      -0.2717
     40  CB        13.3010   -3.2900  -43.8880 C.3    99  CYS99       0.0970
     41  SG        12.9770   -3.6170  -45.6340 S.3    99  CYS99      -0.0800
     42  N         15.5100   -3.7420  -41.2640 N.am  100  ALA100     -0.1965
     43  CA        15.6720   -3.5350  -39.8300 C.3   100  ALA100      0.1728
     44  C         16.4580   -2.2700  -39.5010 C.2   100  ALA100      0.2617
     45  O         17.4940   -1.9940  -40.1010 O.2   100  ALA100     -0.2715
     46  CB        16.3470   -4.7450  -39.2020 C.3   100  ALA100      0.0334
     47  N         15.9590   -1.5110  -38.5320 N.am  101  GLY101     -0.1940
     48  CA        16.6570   -0.3380  -38.0430 C.3   101  GLY101      0.2014
     49  C         17.7370   -0.7270  -37.0540 C.2   101  GLY101      0.2639
     50  O         17.5760   -1.6770  -36.2910 O.2   101  GLY101     -0.2714
     51  N         18.8450    0.0050  -37.0700 N.am  102  LYS102     -0.1963
     52  CA        19.9350   -0.2410  -36.1320 C.3   102  LYS102      0.1728
     53  C         19.5030    0.0550  -34.6950 C.2   102  LYS102      0.2616
     54  O         18.6520    0.9130  -34.4540 O.2   102  LYS102     -0.2715
     55  CB        21.1690    0.5900  -36.4970 C.3   102  LYS102      0.0311
     56  CG        22.2910   -0.2030  -37.1520 C.3   102  LYS102      0.0038
     57  CD        22.0340   -0.4360  -38.6300 C.3   102  LYS102      0.0206
     58  CE        22.9820   -1.4970  -39.1840 C.3   102  LYS102      0.1093
     59  NZ        24.4200   -1.1380  -39.0150 N.3   102  LYS102     -0.1314
     60  N         20.0920   -0.6640  -33.7450 N.am  103  ASN103     -0.1972
     61  CA        19.7340   -0.5260  -32.3370 C.3   103  ASN103      0.1688
     62  C         20.8450    0.1520  -31.5430 C.2   103  ASN103      0.2292
     63  O         22.0240   -0.0710  -31.8110 O.2   103  ASN103     -0.2864
     64  CB        19.4270   -1.8970  -31.7300 C.3   103  ASN103      0.1181
     65  CG        18.8220   -1.7950  -30.3420 C.2   103  ASN103      0.2629
     66  OD1       18.0800   -0.8590  -30.0450 O.2   103  ASN103     -0.2716
     67  ND2       19.1390   -2.7580  -29.4830 N.am  103  ASN103     -0.0877
     68  N         14.5060   -7.0100  -34.0710 N.3   112  TYR112     -0.1241
     69  CA        14.4780   -7.0030  -32.6160 C.3   112  TYR112      0.1605
     70  C         13.0790   -6.9910  -32.0370 C.2   112  TYR112      0.2264
     71  O         12.2190   -6.2390  -32.4850 O.2   112  TYR112     -0.2867
     72  CB        15.2350   -5.7870  -32.1040 C.3   112  TYR112      0.0534
     73  CG        16.7150   -5.9170  -32.2890 C.ar  112  TYR112     -0.0201
     74  CD1       17.2750   -5.9670  -33.5560 C.ar  112  TYR112     -0.0009
     75  CD2       17.5510   -6.0020  -31.1980 C.ar  112  TYR112     -0.0009
     76  CE1       18.6320   -6.0930  -33.7220 C.ar  112  TYR112      0.0417
     77  CE2       18.8900   -6.1250  -31.3530 C.ar  112  TYR112      0.0417
     78  CZ        19.4370   -6.1700  -32.6100 C.ar  112  TYR112      0.1957
     79  OH        20.7980   -6.2930  -32.7300 O.3   112  TYR112     -0.2866
     80  N         10.9080   -7.0290  -28.1180 N.3   114  ALA114     -0.1245
     81  CA        11.1090   -6.6730  -26.7120 C.3   114  ALA114      0.1562
     82  C         10.2710   -7.5070  -25.7430 C.2   114  ALA114      0.2260
     83  O          9.1530   -7.9120  -26.0600 O.2   114  ALA114     -0.2867
     84  CB        10.8380   -5.1850  -26.4970 C.3   114  ALA114      0.0290
     85  N          9.8940   -0.5980  -23.5470 N.3   119  TYR119     -0.1227
     86  CA        11.0240   -0.4240  -24.4520 C.3   119  TYR119      0.1736
     87  C         10.5640   -0.2000  -25.8920 C.2   119  TYR119      0.2596
     88  O         11.1650    0.5780  -26.6320 O.2   119  TYR119     -0.2718
     89  CB        11.9650   -1.6280  -24.3770 C.3   119  TYR119      0.0548
     90  CG        13.3610   -1.3370  -24.8830 C.ar  119  TYR119     -0.0200
     91  CD1       14.3610   -0.9150  -24.0140 C.ar  119  TYR119     -0.0009
     92  CD2       13.6810   -1.4780  -26.2290 C.ar  119  TYR119     -0.0009
     93  CE1       15.6400   -0.6440  -24.4690 C.ar  119  TYR119      0.0417
     94  CE2       14.9590   -1.2090  -26.6920 C.ar  119  TYR119      0.0417
     95  CZ        15.9340   -0.7920  -25.8080 C.ar  119  TYR119      0.1957
     96  OH        17.2080   -0.5220  -26.2600 O.3   119  TYR119     -0.2866
     97  N          9.4930   -0.8850  -26.2800 N.am  120  SER120     -0.1952
     98  CA         8.9590   -0.7730  -27.6330 C.3   120  SER120      0.1924
     99  C          8.0670    0.4520  -27.8060 C.2   120  SER120      0.2314
    100  O          7.7290    0.8300  -28.9280 O.2   120  SER120     -0.2863
    101  CB         8.1850   -2.0370  -28.0020 C.3   120  SER120      0.2116
    102  OG         9.0650   -3.1380  -28.1390 O.3   120  SER120     -0.2180
    103  N         11.4960    6.2490  -30.2440 N.3   124  THR124     -0.1203
    104  CA        12.6020    5.8250  -31.0880 C.3   124  THR124      0.1994
    105  C         12.1070    4.7620  -32.0530 C.2   124  THR124      0.2617
    106  O         12.3820    4.8190  -33.2510 O.2   124  THR124     -0.2717
    107  CB        13.7530    5.2060  -30.2700 C.3   124  THR124      0.1784
    108  OG1       14.1760    6.1190  -29.2520 O.3   124  THR124     -0.2211
    109  CG2       14.9350    4.8850  -31.1760 C.3   124  THR124      0.0376
    110  N         11.3680    3.7990  -31.5110 N.am  125  TYR125     -0.1975
    111  CA        10.9410    2.6230  -32.2550 C.3   125  TYR125      0.1639
    112  C          9.5220    2.8190  -32.7540 C.2   125  TYR125      0.2290
    113  O          9.2720    2.7920  -33.9580 O.2   125  TYR125     -0.2864
    114  CB        11.0240    1.3850  -31.3670 C.3   125  TYR125      0.0560
    115  CG        12.3670    1.2430  -30.6860 C.ar  125  TYR125     -0.0198
    116  CD1       13.5420    1.3320  -31.4150 C.ar  125  TYR125     -0.0009
    117  CD2       12.4600    1.0420  -29.3150 C.ar  125  TYR125     -0.0009
    118  CE1       14.7700    1.2130  -30.8060 C.ar  125  TYR125      0.0417
    119  CE2       13.6880    0.9230  -28.6950 C.ar  125  TYR125      0.0417
    120  CZ        14.8420    1.0090  -29.4470 C.ar  125  TYR125      0.1957
    121  OH        16.0710    0.8900  -28.8380 O.3   125  TYR125     -0.2866
    122  N          7.2630    5.3470  -33.6060 N.3   127  LYS127     -0.1245
    123  CA         7.1950    6.7790  -33.8720 C.3   127  LYS127      0.1561
    124  C          5.7590    7.2310  -34.1050 C.2   127  LYS127      0.2260
    125  O          5.0420    6.6260  -34.8990 O.2   127  LYS127     -0.2867
    126  CB         8.0490    7.1490  -35.0890 C.3   127  LYS127      0.0271
    127  CG         8.3030    8.6470  -35.2250 C.3   127  LYS127      0.0035
    128  CD         8.9470    9.0010  -36.5560 C.3   127  LYS127      0.0206
    129  CE         8.0030    8.7200  -37.7080 C.3   127  LYS127      0.1093
    130  NZ         8.6340    9.0480  -39.0120 N.3   127  LYS127     -0.1314
    131  N         15.4730   -8.4570  -24.5060 N.3   180  LEU180     -0.1245
    132  CA        15.3190   -8.3660  -25.9520 C.3   180  LEU180      0.1561
    133  C         15.5820   -9.7170  -26.6070 C.2   180  LEU180      0.2260
    134  O         16.1340  -10.6240  -25.9810 O.2   180  LEU180     -0.2867
    135  CB        16.2710   -7.3220  -26.5360 C.3   180  LEU180      0.0270
    136  CG        16.0370   -5.8550  -26.1780 C.3   180  LEU180      0.0019
    137  CD1       17.1200   -4.9740  -26.7880 C.3   180  LEU180      0.0001
    138  CD2       14.6610   -5.3960  -26.6330 C.3   180  LEU180      0.0001
@<TRIPOS>BOND
     1    41    40    1
     2    40    37    1
     3    36    37    1
     4    37    38    1
     5    38    39    2
     6    38    42   am
     7    30    31    1
     8    31    32    1
     9    31    34    1
    10    35    34    1
    11    32    33    2
    12    42    43    1
    13    45    44    2
    14    29    27   ar
    15    43    44    1
    16    43    46    1
    17    44    47   am
    18    25    24    2
    19    28    27   ar
    20    58    59    1
    21    58    57    1
    22    27    26    1
    23   130   129    1
    24    57    56    1
    25    24    23    1
    26    47    48    1
    27    48    49    1
    28    26    23    1
    29    20    19    1
    30   129   128    1
    31    23    22    1
    32    56    55    1
    33    22    17   am
    34    51    49   am
    35    51    52    1
    36    49    50    2
    37    21    19    1
    38   128   127    1
    39    19    16    1
    40    55    52    1
    41    52    53    1
    42    17    16    1
    43    17    18    2
    44    10     8   ar
    45    10     9   ar
    46    16    15    1
    47     8     6   ar
    48   127   126    1
    49     9     7   ar
    50   126   123    1
    51   125   124    2
    52    53    54    2
    53    53    60   am
    54     6     7   ar
    55     6     5    1
    56    15    13   am
    57   124   123    1
    58    68    69    1
    59   113   112    2
    60   123   122    1
    61    14    13    2
    62    60    61    1
    63    76    74   ar
    64    76    78   ar
    65    74    73   ar
    66    13    12    1
    67   106   105    2
    68     5     2    1
    69   112   111    1
    70    79    78    1
    71     4     3    2
    72    69    72    1
    73    69    70    1
    74    78    77   ar
    75    71    70    2
    76    61    64    1
    77    61    62    1
    78    73    72    1
    79    73    75   ar
    80   111   110    1
    81   111   114    1
    82     3     2    1
    83     3    11   am
    84   105   110   am
    85   105   104    1
    86    12    11    1
    87     2     1    1
    88    63    62    2
    89    64    65    1
    90   116   118   ar
    91   116   115   ar
    92   114   115    1
    93    77    75   ar
    94   109   107    1
    95   104   107    1
    96   104   103    1
    97   118   120   ar
    98   115   117   ar
    99    65    66    2
   100    65    67   am
   101   107   108    1
   102   120   121    1
   103   120   119   ar
   104   117   119   ar
   105   100    99    2
   106   102   101    1
   107    80    81    1
   108   101    98    1
   109    99    98    1
   110    98    97    1
   111   137   136    1
   112    81    84    1
   113    81    82    1
   114    94    92   ar
   115    94    95   ar
   116   138   136    1
   117    88    87    2
   118   133   134    2
   119   133   132    1
   120   135   136    1
   121   135   132    1
   122    97    87   am
   123    96    95    1
   124    92    90   ar
   125    83    82    2
   126   132   131    1
   127    87    86    1
   128    95    93   ar
   129    90    89    1
   130    90    91   ar
   131    93    91   ar
   132    86    89    1
   133    86    85    1
