@<TRIPOS>MOLECULE
tmp/4f0eD00.pdb
 87 86 0 0 0
SMALL
GASTEIGER

@<TRIPOS>ATOM
      1  N        -20.3640    0.7340  -61.3820 N.3    78  PHE78      -0.1227
      2  CA       -21.6250    0.2640  -61.9270 C.3    78  PHE78       0.1736
      3  C        -22.1810    1.2680  -62.9240 C.2    78  PHE78       0.2595
      4  O        -22.0260    2.4770  -62.7500 O.2    78  PHE78      -0.2718
      5  CB       -22.6370    0.0400  -60.8050 C.3    78  PHE78       0.0547
      6  CG       -22.2010   -0.9760  -59.7860 C.ar   78  PHE78      -0.0202
      7  CD1      -22.4290   -2.3240  -59.9950 C.ar   78  PHE78      -0.0042
      8  CD2      -21.5720   -0.5810  -58.6150 C.ar   78  PHE78      -0.0042
      9  CE1      -22.0340   -3.2630  -59.0570 C.ar   78  PHE78      -0.0003
     10  CE2      -21.1740   -1.5130  -57.6730 C.ar   78  PHE78      -0.0003
     11  CZ       -21.4050   -2.8550  -57.8940 C.ar   78  PHE78      -0.0000
     12  N        -22.8240    0.7660  -63.9710 N.am   79  HIS79      -0.1961
     13  CA       -23.5200    1.6410  -64.9070 C.3    79  HIS79       0.1787
     14  C        -24.9380    1.1420  -65.1590 C.2    79  HIS79       0.2621
     15  O        -25.1470    0.1640  -65.8810 O.2    79  HIS79      -0.2715
     16  CB       -22.7590    1.7560  -66.2300 C.3    79  HIS79       0.0785
     17  CG       -23.2310    2.8840  -67.0990 C.ar   79  HIS79       0.0821
     18  ND1      -22.6830    4.1450  -67.0470 N.ar   79  HIS79      -0.2267
     19  CD2      -24.2080    2.9360  -68.0340 C.ar   79  HIS79       0.1154
     20  CE1      -23.2960    4.9280  -67.9150 C.ar   79  HIS79       0.1986
     21  NE2      -24.2280    4.2180  -68.5280 N.ar   79  HIS79      -0.2212
     22  N        -25.9130    1.8060  -64.5490 N.am   80  GLY80      -0.1940
     23  CA       -27.3030    1.4990  -64.8230 C.3    80  GLY80       0.2014
     24  C        -27.6830    2.1080  -66.1580 C.2    80  GLY80       0.2639
     25  O        -27.2220    3.2020  -66.4920 O.2    80  GLY80      -0.2714
     26  N        -28.5080    1.3990  -66.9240 N.am   81  THR81      -0.1950
     27  CA       -28.9530    1.8820  -68.2260 C.3    81  THR81       0.1897
     28  C        -30.3380    1.3210  -68.5390 C.2    81  THR81       0.2313
     29  O        -30.8130    0.4200  -67.8460 O.2    81  THR81      -0.2863
     30  CB       -27.9760    1.4620  -69.3350 C.3    81  THR81       0.1794
     31  OG1      -27.9060    2.4890  -70.3320 O.3    81  THR81      -0.2208
     32  CG2      -28.4400    0.1520  -69.9770 C.3    81  THR81       0.0378
     33  N        -20.7310    8.1520  -66.9670 N.3   104  TYR104     -0.1241
     34  CA       -20.8220    8.1090  -65.5120 C.3   104  TYR104      0.1605
     35  C        -20.8690    6.6930  -64.9440 C.2   104  TYR104      0.2264
     36  O        -21.5680    5.8210  -65.4600 O.2   104  TYR104     -0.2867
     37  CB       -22.0490    8.8920  -65.0500 C.3   104  TYR104      0.0534
     38  CG       -21.8740   10.3880  -65.1580 C.ar  104  TYR104     -0.0201
     39  CD1      -21.7850   11.0080  -66.3950 C.ar  104  TYR104     -0.0009
     40  CD2      -21.8020   11.1780  -64.0230 C.ar  104  TYR104     -0.0009
     41  CE1      -21.6260   12.3720  -66.4990 C.ar  104  TYR104      0.0417
     42  CE2      -21.6440   12.5410  -64.1140 C.ar  104  TYR104      0.0417
     43  CZ       -21.5570   13.1340  -65.3520 C.ar  104  TYR104      0.1957
     44  OH       -21.3970   14.4970  -65.4430 O.3   104  TYR104     -0.2866
     45  N        -21.0280    4.4960  -61.0670 N.3   106  ALA106     -0.1245
     46  CA       -21.3280    4.6390  -59.6460 C.3   106  ALA106      0.1562
     47  C        -20.4290    3.7780  -58.7670 C.2   106  ALA106      0.2260
     48  O        -20.1690    2.6130  -59.0780 O.2   106  ALA106     -0.2867
     49  CB       -22.7840    4.3190  -59.3770 C.3   106  ALA106      0.0290
     50  N        -26.9150    3.5930  -56.2070 N.3   111  TYR111     -0.1227
     51  CA       -26.9670    4.8010  -57.0200 C.3   111  TYR111      0.1736
     52  C        -27.4090    4.4950  -58.4520 C.2   111  TYR111      0.2596
     53  O        -28.3970    5.0460  -58.9370 O.2   111  TYR111     -0.2718
     54  CB       -25.6050    5.4980  -57.0140 C.3   111  TYR111      0.0548
     55  CG       -25.6790    6.9800  -57.2910 C.ar  111  TYR111     -0.0200
     56  CD1      -25.8190    7.8930  -56.2550 C.ar  111  TYR111     -0.0009
     57  CD2      -25.6150    7.4660  -58.5880 C.ar  111  TYR111     -0.0009
     58  CE1      -25.8900    9.2500  -56.5010 C.ar  111  TYR111      0.0417
     59  CE2      -25.6860    8.8240  -58.8460 C.ar  111  TYR111      0.0417
     60  CZ       -25.8230    9.7110  -57.7960 C.ar  111  TYR111      0.1957
     61  OH       -25.8940   11.0640  -58.0300 O.3   111  TYR111     -0.2866
     62  N        -26.6740    3.6150  -59.1240 N.am  112  SER112     -0.1952
     63  CA       -27.0120    3.2140  -60.4830 C.3   112  SER112      0.1924
     64  C        -28.4330    2.6750  -60.5470 C.2   112  SER112      0.2314
     65  O        -29.1400    2.8730  -61.5360 O.2   112  SER112     -0.2863
     66  CB       -26.0450    2.1390  -60.9700 C.3   112  SER112      0.2116
     67  OG       -24.7150    2.4650  -60.6290 O.3   112  SER112     -0.2180
     68  N        -31.6920    5.8700  -63.9620 N.3   117  TYR117     -0.1241
     69  CA       -30.5780    5.3290  -64.7320 C.3   117  TYR117      0.1605
     70  C        -30.9170    3.9370  -65.2580 C.2   117  TYR117      0.2264
     71  O        -31.1160    3.7480  -66.4600 O.2   117  TYR117     -0.2867
     72  CB       -29.3330    5.2640  -63.8500 C.3   117  TYR117      0.0534
     73  CG       -29.0060    6.5830  -63.1820 C.ar  117  TYR117     -0.0201
     74  CD1      -29.0400    7.7700  -63.9020 C.ar  117  TYR117     -0.0009
     75  CD2      -28.6700    6.6440  -61.8320 C.ar  117  TYR117     -0.0009
     76  CE1      -28.7420    8.9780  -63.3050 C.ar  117  TYR117      0.0417
     77  CE2      -28.3700    7.8520  -61.2240 C.ar  117  TYR117      0.0417
     78  CZ       -28.4080    9.0140  -61.9650 C.ar  117  TYR117      0.1957
     79  OH       -28.1110   10.2190  -61.3690 O.3   117  TYR117     -0.2866
     80  N        -18.9370    8.8730  -57.4900 N.3   172  LEU172     -0.1245
     81  CA       -19.1550    8.6530  -58.9160 C.3   172  LEU172      0.1561
     82  C        -17.8420    8.8230  -59.6750 C.2   172  LEU172      0.2260
     83  O        -16.8430    9.2680  -59.1040 O.2   172  LEU172     -0.2867
     84  CB       -20.1950    9.6320  -59.4640 C.3   172  LEU172      0.0270
     85  CG       -21.5850    9.6300  -58.8260 C.3   172  LEU172      0.0019
     86  CD1      -22.4160   10.8060  -59.3300 C.3   172  LEU172      0.0001
     87  CD2      -22.3240    8.3130  -59.0560 C.3   172  LEU172      0.0001
@<TRIPOS>BOND
     1    31    30    1
     2    32    30    1
     3    30    27    1
     4    28    27    1
     5    28    29    2
     6    21    19   ar
     7    21    20   ar
     8    27    26    1
     9    19    17   ar
    10    20    18   ar
    11    17    18   ar
    12    17    16    1
    13    33    34    1
    14    26    24   am
    15    41    39   ar
    16    41    43   ar
    17    25    24    2
    18    71    70    2
    19    39    38   ar
    20    16    13    1
    21    24    23    1
    22    15    14    2
    23    34    37    1
    24    34    35    1
    25    36    35    2
    26    44    43    1
    27    43    42   ar
    28    70    69    1
    29    14    13    1
    30    14    22   am
    31    38    37    1
    32    38    40   ar
    33    13    12    1
    34    23    22    1
    35    69    68    1
    36    69    72    1
    37    42    40   ar
    38    12     3   am
    39    74    76   ar
    40    74    73   ar
    41    72    73    1
    42    76    78   ar
    43    73    75   ar
    44     3     4    2
    45     3     2    1
    46    78    79    1
    47    78    77   ar
    48     2     1    1
    49     2     5    1
    50    75    77   ar
    51    65    64    2
    52    45    46    1
    53    66    67    1
    54    66    63    1
    55     5     6    1
    56    64    63    1
    57    63    62    1
    58     7     6   ar
    59     7     9   ar
    60     6     8   ar
    61    82    83    2
    62    82    81    1
    63    46    49    1
    64    46    47    1
    65    84    81    1
    66    84    85    1
    67    86    85    1
    68    62    52   am
    69    48    47    2
    70     9    11   ar
    71    87    85    1
    72    53    52    2
    73    81    80    1
    74    59    57   ar
    75    59    60   ar
    76     8    10   ar
    77    57    55   ar
    78    52    51    1
    79    61    60    1
    80    11    10   ar
    81    60    58   ar
    82    55    54    1
    83    55    56   ar
    84    51    54    1
    85    51    50    1
    86    58    56   ar
