@<TRIPOS>MOLECULE
tmp/4f0rA00.pdb
 143 140 0 0 0
SMALL
GASTEIGER

@<TRIPOS>ATOM
      1  N          5.1910   25.2840   12.0930 N.3    67  HIS67      -0.1241
      2  CA         5.2000   25.6260   13.5060 C.3    67  HIS67       0.1621
      3  C          6.5800   26.1810   13.8170 C.2    67  HIS67       0.2264
      4  O          7.4670   25.4670   14.3500 O.2    67  HIS67      -0.2867
      5  CB         4.9120   24.4090   14.3770 C.3    67  HIS67       0.0745
      6  CG         3.6920   23.6350   13.9560 C.ar   67  HIS67       0.0817
      7  ND1        2.4410   24.1370   14.0790 N.ar   67  HIS67      -0.2268
      8  CD2        3.5590   22.3720   13.3670 C.ar   67  HIS67       0.1154
      9  CE1        1.5460   23.2260   13.6230 C.ar   67  HIS67       0.1986
     10  NE2        2.2430   22.1770   13.1100 N.ar   67  HIS67      -0.2212
     11  N          6.0890   12.2140   22.0630 N.3    84  LEU84      -0.1245
     12  CA         5.2980   13.3400   22.5520 C.3    84  LEU84       0.1561
     13  C          5.2670   13.3930   24.0810 C.2    84  LEU84       0.2260
     14  O          5.5740   14.4270   24.6850 O.2    84  LEU84      -0.2867
     15  CB         3.8770   13.2630   22.0020 C.3    84  LEU84       0.0270
     16  CG         3.7530   13.4150   20.4650 C.3    84  LEU84       0.0019
     17  CD1        2.3440   13.0550   20.0410 C.3    84  LEU84       0.0001
     18  CD2        4.1100   14.8360   20.0130 C.3    84  LEU84       0.0001
     19  N          8.7180   15.7530   23.7490 N.3    88  ILE88      -0.1231
     20  CA         8.3040   17.0200   23.1870 C.3    88  ILE88       0.1692
     21  C          7.4490   17.8490   24.1750 C.2    88  ILE88       0.2592
     22  O          7.7830   19.0100   24.4660 O.2    88  ILE88      -0.2718
     23  CB         7.5520   16.8610   21.8480 C.3    88  ILE88       0.0266
     24  CG1        8.4620   16.2080   20.7740 C.3    88  ILE88       0.0019
     25  CG2        7.0290   18.2420   21.3990 C.3    88  ILE88       0.0020
     26  CD1        9.7420   16.9780   20.4690 C.3    88  ILE88       0.0001
     27  N          6.4240   17.2200   24.7840 N.am   89  TRP89      -0.1976
     28  CA         5.4870   17.9640   25.6360 C.3    89  TRP89       0.1640
     29  C          6.1220   18.4440   26.9400 C.2    89  TRP89       0.2290
     30  O          5.9670   19.6210   27.3150 O.2    89  TRP89      -0.2864
     31  CB         4.1670   17.1980   25.8670 C.3    89  TRP89       0.0576
     32  CG         3.3680   17.0450   24.5950 C.ar   89  TRP89       0.0006
     33  CD1        3.4370   17.8430   23.4430 C.ar   89  TRP89       0.0946
     34  CD2        2.3840   16.0140   24.2940 C.ar   89  TRP89       0.0152
     35  NE1        2.5900   17.3690   22.4740 N.ar   89  TRP89      -0.2442
     36  CE2        1.8900   16.2910   22.9480 C.ar   89  TRP89       0.0810
     37  CE3        1.8400   14.9490   25.0070 C.ar   89  TRP89       0.0012
     38  CZ2        0.9200   15.4960   22.3340 C.ar   89  TRP89       0.0191
     39  CZ3        0.8880   14.1370   24.3740 C.ar   89  TRP89       0.0001
     40  CH2        0.4330   14.4140   23.0710 C.ar   89  TRP89       0.0015
     41  N          8.2890   21.4470   25.8730 N.3    92  GLU92      -0.1245
     42  CA         7.4280   22.6140   25.6190 C.3    92  GLU92       0.1567
     43  C          6.8860   23.1940   26.9150 C.2    92  GLU92       0.2260
     44  O          6.8640   24.3980   27.1010 O.2    92  GLU92      -0.2867
     45  CB         6.2770   22.2590   24.6540 C.3    92  GLU92       0.0388
     46  CG         6.7610   22.1100   23.2050 C.3    92  GLU92       0.1160
     47  CD         5.6320   21.7800   22.2420 C.2    92  GLU92       0.3649
     48  OE1        4.8120   20.9010   22.5750 O.co2  92  GLU92      -0.2457
     49  OE2        5.5930   22.3730   21.1340 O.co2  92  GLU92      -0.2457
     50  N          1.0830   28.4730   16.0110 N.3   121  TYR121     -0.1227
     51  CA         1.7030   28.1510   17.2980 C.3   121  TYR121      0.1736
     52  C          1.0240   28.9480   18.4130 C.2   121  TYR121      0.2595
     53  O         -0.1420   29.3220   18.2650 O.2   121  TYR121     -0.2718
     54  CB         3.2180   28.3840   17.2570 C.3   121  TYR121      0.0548
     55  CG         3.9780   27.4730   18.2000 C.ar  121  TYR121     -0.0200
     56  CD1        3.8690   26.0590   18.1030 C.ar  121  TYR121     -0.0009
     57  CD2        4.7870   28.0060   19.2190 C.ar  121  TYR121     -0.0009
     58  CE1        4.5760   25.2240   18.9730 C.ar  121  TYR121      0.0417
     59  CE2        5.4860   27.1790   20.0830 C.ar  121  TYR121      0.0417
     60  CZ         5.3940   25.8060   19.9620 C.ar  121  TYR121      0.1957
     61  OH         6.0860   25.0160   20.8500 O.3   121  TYR121     -0.2866
     62  N          1.7520   29.1970   19.4950 N.am  122  PHE122     -0.1976
     63  CA         1.2560   29.9560   20.6280 C.3   122  PHE122      0.1639
     64  C          1.9800   31.2900   20.6450 C.2   122  PHE122      0.2290
     65  O          2.8780   31.4990   19.8220 O.2   122  PHE122     -0.2864
     66  CB         1.5670   29.1850   21.9130 C.3   122  PHE122      0.0560
     67  CG         1.0400   27.7730   21.9040 C.ar  122  PHE122     -0.0200
     68  CD1        1.9070   26.7010   21.7000 C.ar  122  PHE122     -0.0042
     69  CD2       -0.3350   27.5310   21.9500 C.ar  122  PHE122     -0.0042
     70  CE1        1.4290   25.3930   21.6520 C.ar  122  PHE122     -0.0003
     71  CE2       -0.8250   26.2130   21.8740 C.ar  122  PHE122     -0.0003
     72  CZ         0.0630   25.1520   21.7200 C.ar  122  PHE122     -0.0000
     73  N         -3.3740   29.5290   17.7330 N.3   142  SER142     -0.1217
     74  CA        -3.7520   28.1490   18.0220 C.3   142  SER142      0.1889
     75  C         -4.7900   28.0680   19.1170 C.2   142  SER142      0.2288
     76  O         -4.8050   28.8680   20.0310 O.2   142  SER142     -0.2866
     77  CB        -2.5310   27.3020   18.3750 C.3   142  SER142      0.2089
     78  OG        -1.6980   27.1320   17.2270 O.3   142  SER142     -0.2183
     79  N         -6.8280   25.2320   21.6310 N.3   144  LEU144     -0.1245
     80  CA        -6.7700   23.8610   22.2110 C.3   144  LEU144      0.1561
     81  C         -7.7490   23.9200   23.3680 C.2   144  LEU144      0.2260
     82  O         -8.0550   25.0230   23.8730 O.2   144  LEU144     -0.2867
     83  CB        -5.3660   23.5850   22.8070 C.3   144  LEU144      0.0270
     84  CG        -4.1390   23.2000   21.9610 C.3   144  LEU144      0.0019
     85  CD1       -2.8870   23.1420   22.8370 C.3   144  LEU144      0.0001
     86  CD2       -4.3200   21.8590   21.2660 C.3   144  LEU144      0.0001
     87  N         -7.0820   22.1710   26.3220 N.3   146  PHE146     -0.1241
     88  CA        -6.3640   22.0220   27.5670 C.3   146  PHE146      0.1605
     89  C         -5.3660   23.1460   27.8200 C.2   146  PHE146      0.2264
     90  O         -4.9080   23.8060   26.8720 O.2   146  PHE146     -0.2867
     91  CB        -5.6770   20.6620   27.6530 C.3   146  PHE146      0.0534
     92  CG        -4.7060   20.4220   26.5620 C.ar  146  PHE146     -0.0203
     93  CD1       -3.4050   20.9230   26.6500 C.ar  146  PHE146     -0.0042
     94  CD2       -5.0860   19.7330   25.4220 C.ar  146  PHE146     -0.0042
     95  CE1       -2.5060   20.7280   25.6280 C.ar  146  PHE146     -0.0003
     96  CE2       -4.1690   19.4940   24.3980 C.ar  146  PHE146     -0.0003
     97  CZ        -2.8860   20.0150   24.4910 C.ar  146  PHE146     -0.0000
     98  N         -2.0130   25.2580   28.6130 N.3   148  THR148     -0.1218
     99  CA        -0.5910   25.2880   28.3340 C.3   148  THR148      0.1862
    100  C         -0.0480   26.5530   28.9980 C.2   148  THR148      0.2287
    101  O         -0.8070   27.3060   29.6120 O.2   148  THR148     -0.2866
    102  CB        -0.3190   25.3710   26.8150 C.3   148  THR148      0.1770
    103  OG1       -0.9380   26.5600   26.2750 O.3   148  THR148     -0.2211
    104  CG2       -0.8470   24.0720   26.0590 C.3   148  THR148      0.0375
    105  N         -6.5220   23.4860   16.7120 N.3   180  HIS180     -0.1241
    106  CA        -5.4410   22.5780   16.4540 C.3   180  HIS180      0.1621
    107  C         -5.8090   21.3610   15.6100 C.2   180  HIS180      0.2264
    108  O         -5.1530   21.0700   14.6000 O.2   180  HIS180     -0.2867
    109  CB        -4.8190   22.1530   17.7700 C.3   180  HIS180      0.0745
    110  CG        -3.8060   21.0780   17.6150 C.ar  180  HIS180      0.0817
    111  ND1       -4.0330   19.7970   18.0120 N.ar  180  HIS180     -0.2268
    112  CD2       -2.5660   21.0860   17.0160 C.ar  180  HIS180      0.1154
    113  CE1       -2.9870   19.0430   17.6840 C.ar  180  HIS180      0.1986
    114  NE2       -2.0780   19.8230   17.0910 N.ar  180  HIS180     -0.2212
    115  N         -9.3820   16.2810   17.2810 N.3   183  TYR183     -0.1227
    116  CA        -9.2670   15.4980   18.5370 C.3   183  TYR183      0.1736
    117  C         -8.8400   16.3310   19.7420 C.2   183  TYR183      0.2596
    118  O         -8.6990   15.7910   20.8660 O.2   183  TYR183     -0.2718
    119  CB        -8.3220   14.2910   18.3440 C.3   183  TYR183      0.0548
    120  CG        -6.9900   14.6370   17.7800 C.ar  183  TYR183     -0.0200
    121  CD1       -5.9470   15.0210   18.6070 C.ar  183  TYR183     -0.0009
    122  CD2       -6.7500   14.5340   16.4210 C.ar  183  TYR183     -0.0009
    123  CE1       -4.6950   15.3440   18.0830 C.ar  183  TYR183      0.0417
    124  CE2       -5.5300   14.8880   15.8780 C.ar  183  TYR183      0.0417
    125  CZ        -4.5110   15.3100   16.7140 C.ar  183  TYR183      0.1957
    126  OH        -3.2910   15.6370   16.1860 O.3   183  TYR183     -0.2866
    127  N         -8.6270   17.6340   19.5360 N.am  184  THR184     -0.1953
    128  CA        -8.2270   18.5370   20.6580 C.3   184  THR184      0.1897
    129  C         -9.1670   19.7190   20.7660 C.2   184  THR184      0.2313
    130  O         -8.9050   20.6660   21.5010 O.2   184  THR184     -0.2863
    131  CB        -6.7800   19.0840   20.4580 C.3   184  THR184      0.1794
    132  OG1       -6.6650   19.6160   19.1360 O.3   184  THR184     -0.2208
    133  CG2       -5.7540   17.9820   20.6240 C.3   184  THR184      0.0378
    134  N         -5.3520   21.0900   11.5560 N.3   206  HIS206     -0.1241
    135  CA        -4.8590   19.7610   11.1370 C.3   206  HIS206      0.1621
    136  C         -6.0480   18.8300   10.9810 C.2   206  HIS206      0.2264
    137  O         -6.7510   18.5680   11.9630 O.2   206  HIS206     -0.2867
    138  CB        -3.9860   19.1390   12.2200 C.3   206  HIS206      0.0745
    139  CG        -2.7250   19.9200   12.5310 C.ar  206  HIS206      0.0817
    140  ND1       -2.5800   20.6350   13.6750 N.ar  206  HIS206     -0.2268
    141  CD2       -1.4860   19.9680   11.8770 C.ar  206  HIS206      0.1154
    142  CE1       -1.3290   21.1730   13.7210 C.ar  206  HIS206      0.1986
    143  NE2       -0.6540   20.7530   12.6420 N.ar  206  HIS206     -0.2212
@<TRIPOS>BOND
     1   136   135    1
     2   136   137    2
     3   135   134    1
     4   135   138    1
     5   141   139   ar
     6   141   143   ar
     7     1     2    1
     8   138   139    1
     9   139   140   ar
    10   143   142   ar
    11    10     8   ar
    12    10     9   ar
    13     8     6   ar
    14     2     3    1
    15     2     5    1
    16     9     7   ar
    17   140   142   ar
    18     3     4    2
    19     6     7   ar
    20     6     5    1
    21   108   107    2
    22   107   106    1
    23   124   122   ar
    24   124   125   ar
    25    50    51    1
    26   126   125    1
    27   122   120   ar
    28   106   105    1
    29   106   109    1
    30   125   123   ar
    31   112   114   ar
    32   112   110   ar
    33   114   113   ar
    34    78    77    1
    35    54    51    1
    36    54    55    1
    37   115   116    1
    38    51    52    1
    39   110   109    1
    40   110   111   ar
    41   113   111   ar
    42    73    74    1
    43   120   119    1
    44   120   121   ar
    45    74    77    1
    46    74    75    1
    47   123   121   ar
    48    56    55   ar
    49    56    58   ar
    50    55    57   ar
    51    53    52    2
    52   119   116    1
    53    52    62   am
    54   116   117    1
    55    58    60   ar
    56    75    76    2
    57   132   131    1
    58    57    59   ar
    59    62    63    1
    60   127   117   am
    61   127   128    1
    62   117   118    2
    63    65    64    2
    64    60    59   ar
    65    60    61    1
    66    18    16    1
    67    17    16    1
    68   131   133    1
    69   131   128    1
    70    16    15    1
    71    26    24    1
    72    63    64    1
    73    63    66    1
    74   128   129    1
    75   129   130    2
    76    24    23    1
    77    49    47   ar
    78    86    84    1
    79    25    23    1
    80    79    80    1
    81    70    68   ar
    82    70    72   ar
    83    68    67   ar
    84    72    71   ar
    85    23    20    1
    86    71    69   ar
    87    67    66    1
    88    67    69   ar
    89    84    83    1
    90    84    85    1
    91    15    12    1
    92    11    12    1
    93    80    83    1
    94    80    81    1
    95    47    48   ar
    96    47    46    1
    97    38    36   ar
    98    38    40   ar
    99    35    36   ar
   100    35    33   ar
   101    12    13    1
   102    36    34   ar
   103    40    39   ar
   104    20    19    1
   105    20    21    1
   106    46    45    1
   107    81    82    2
   108    33    32   ar
   109    13    14    2
   110    21    22    2
   111    21    27   am
   112    34    32   ar
   113    34    37   ar
   114    39    37   ar
   115    96    97   ar
   116    96    94   ar
   117    97    95   ar
   118    32    31    1
   119    45    42    1
   120    27    28    1
   121    94    92   ar
   122    42    41    1
   123    42    43    1
   124    95    93   ar
   125    28    31    1
   126    28    29    1
   127   104   102    1
   128   103   102    1
   129    87    88    1
   130    92    93   ar
   131    92    91    1
   132   102    99    1
   133    90    89    2
   134    43    44    2
   135    29    30    2
   136    88    91    1
   137    88    89    1
   138    99    98    1
   139    99   100    1
   140   100   101    2
