@<TRIPOS>MOLECULE
tmp/4f0sA00.pdb
 190 184 0 0 0
SMALL
GASTEIGER

@<TRIPOS>ATOM
      1  N         -5.2370  -25.3290   11.9560 N.3    67  HIS67      -0.1241
      2  CA        -5.2060  -25.6650   13.3780 C.3    67  HIS67       0.1621
      3  C         -6.5970  -26.2040   13.6680 C.2    67  HIS67       0.2264
      4  O         -7.4450  -25.5080   14.2420 O.2    67  HIS67      -0.2867
      5  CB        -4.9380  -24.4230   14.2290 C.3    67  HIS67       0.0745
      6  CG        -3.6680  -23.7100   13.8820 C.ar   67  HIS67       0.0817
      7  ND1       -2.4230  -24.2480   14.1250 N.ar   67  HIS67      -0.2268
      8  CD2       -3.4510  -22.4970   13.3180 C.ar   67  HIS67       0.1154
      9  CE1       -1.4920  -23.3980   13.7270 C.ar   67  HIS67       0.1986
     10  NE2       -2.0880  -22.3290   13.2310 N.ar   67  HIS67      -0.2212
     11  N         -2.4740  -10.0510   15.7670 N.3    81  LEU81      -0.1245
     12  CA        -1.9220  -11.3430   16.2000 C.3    81  LEU81       0.1561
     13  C         -1.4800  -11.4490   17.6640 C.2    81  LEU81       0.2260
     14  O         -1.9580  -12.3150   18.4030 O.2    81  LEU81      -0.2867
     15  CB        -0.7570  -11.7540   15.2950 C.3    81  LEU81       0.0270
     16  CG        -0.0500  -13.0480   15.7060 C.3    81  LEU81       0.0019
     17  CD1       -0.9340  -14.2470   15.3870 C.3    81  LEU81       0.0001
     18  CD2        1.2910  -13.1570   15.0170 C.3    81  LEU81       0.0001
     19  N         -4.2460  -11.0320   20.1350 N.3    83  TRP83      -0.1227
     20  CA        -5.1240  -12.1860   19.9370 C.3    83  TRP83       0.1737
     21  C         -4.5880  -13.4410   20.6440 C.2    83  TRP83       0.2595
     22  O         -5.3180  -14.1050   21.3910 O.2    83  TRP83      -0.2718
     23  CB        -5.2410  -12.4040   18.4300 C.3    83  TRP83       0.0564
     24  CG        -6.1930  -13.4480   17.9420 C.ar   83  TRP83       0.0003
     25  CD1       -7.5530  -13.3600   17.8680 C.ar   83  TRP83       0.0946
     26  CD2       -5.8370  -14.7040   17.3630 C.ar   83  TRP83       0.0152
     27  NE1       -8.0680  -14.5060   17.3040 N.ar   83  TRP83      -0.2442
     28  CE2       -7.0320  -15.3460   16.9840 C.ar   83  TRP83       0.0810
     29  CE3       -4.6160  -15.3580   17.1420 C.ar   83  TRP83       0.0012
     30  CZ2       -7.0460  -16.6160   16.4050 C.ar   83  TRP83       0.0191
     31  CZ3       -4.6290  -16.6180   16.5600 C.ar   83  TRP83       0.0001
     32  CH2       -5.8350  -17.2350   16.2020 C.ar   83  TRP83       0.0015
     33  N         -3.3140  -13.7600   20.4370 N.am   84  LEU84      -0.1980
     34  CA        -2.7260  -14.9290   21.0960 C.3    84  LEU84       0.1596
     35  C         -2.6220  -14.7510   22.6090 C.2    84  LEU84       0.2287
     36  O         -3.0540  -15.6080   23.3850 O.2    84  LEU84      -0.2864
     37  CB        -1.3330  -15.2310   20.5380 C.3    84  LEU84       0.0297
     38  CG        -1.2140  -15.7890   19.1280 C.3    84  LEU84       0.0022
     39  CD1        0.2630  -15.8040   18.6890 C.3    84  LEU84       0.0001
     40  CD2       -1.8230  -17.1880   19.0410 C.3    84  LEU84       0.0001
     41  N         -6.5990  -16.0880   22.7790 N.3    88  ILE88      -0.1231
     42  CA        -6.4390  -17.4770   22.3650 C.3    88  ILE88       0.1692
     43  C         -5.6960  -18.3470   23.3770 C.2    88  ILE88       0.2592
     44  O         -6.2050  -19.3910   23.7870 O.2    88  ILE88      -0.2718
     45  CB        -5.7570  -17.5900   20.9980 C.3    88  ILE88       0.0266
     46  CG1       -6.6400  -16.9430   19.9220 C.3    88  ILE88       0.0019
     47  CG2       -5.4930  -19.0480   20.6720 C.3    88  ILE88       0.0020
     48  CD1       -8.0450  -17.5600   19.8120 C.3    88  ILE88       0.0001
     49  N         -4.4940  -17.9470   23.7800 N.am   89  TRP89      -0.1976
     50  CA        -3.7710  -18.7950   24.7240 C.3    89  TRP89       0.1640
     51  C         -4.4980  -19.0040   26.0560 C.2    89  TRP89       0.2290
     52  O         -4.5250  -20.1250   26.5530 O.2    89  TRP89      -0.2864
     53  CB        -2.3180  -18.3600   24.9150 C.3    89  TRP89       0.0576
     54  CG        -1.4660  -18.7230   23.7260 C.ar   89  TRP89       0.0006
     55  CD1       -1.7000  -19.7260   22.8200 C.ar   89  TRP89       0.0946
     56  CD2       -0.2580  -18.0790   23.3090 C.ar   89  TRP89       0.0152
     57  NE1       -0.7040  -19.7440   21.8650 N.ar   89  TRP89      -0.2442
     58  CE2        0.1920  -18.7380   22.1420 C.ar   89  TRP89       0.0810
     59  CE3        0.4860  -17.0010   23.8040 C.ar   89  TRP89       0.0012
     60  CZ2        1.3550  -18.3580   21.4690 C.ar   89  TRP89       0.0191
     61  CZ3        1.6340  -16.6150   23.1300 C.ar   89  TRP89       0.0001
     62  CH2        2.0630  -17.2950   21.9780 C.ar   89  TRP89       0.0015
     63  N         -7.2290  -21.5100   25.3560 N.3    92  GLU92      -0.1245
     64  CA        -6.6220  -22.8170   25.1330 C.3    92  GLU92       0.1567
     65  C         -6.1280  -23.4440   26.4440 C.2    92  GLU92       0.2260
     66  O         -6.2400  -24.6560   26.6400 O.2    92  GLU92      -0.2867
     67  CB        -5.4920  -22.7230   24.0940 C.3    92  GLU92       0.0388
     68  CG        -5.9900  -22.4450   22.6720 C.3    92  GLU92       0.1160
     69  CD        -4.8710  -22.4070   21.6320 C.2    92  GLU92       0.3649
     70  OE1       -3.6860  -22.2230   21.9980 O.co2  92  GLU92      -0.2457
     71  OE2       -5.1820  -22.5490   20.4210 O.co2  92  GLU92      -0.2457
     72  N         -1.1220  -28.5240   15.8180 N.3   121  TYR121     -0.1227
     73  CA        -1.7750  -28.2500   17.1030 C.3   121  TYR121      0.1736
     74  C         -1.0920  -28.9520   18.2680 C.2   121  TYR121      0.2595
     75  O          0.1240  -29.1270   18.2490 O.2   121  TYR121     -0.2718
     76  CB        -3.2740  -28.5860   17.0400 C.3   121  TYR121      0.0548
     77  CG        -4.1030  -27.6470   17.8920 C.ar  121  TYR121     -0.0200
     78  CD1       -4.0440  -26.2730   17.6950 C.ar  121  TYR121     -0.0009
     79  CD2       -4.9230  -28.1290   18.9010 C.ar  121  TYR121     -0.0009
     80  CE1       -4.7810  -25.3990   18.4860 C.ar  121  TYR121      0.0417
     81  CE2       -5.6780  -27.2650   19.6990 C.ar  121  TYR121      0.0417
     82  CZ        -5.6030  -25.9050   19.4800 C.ar  121  TYR121      0.1957
     83  OH        -6.3400  -25.0390   20.2560 O.3   121  TYR121     -0.2866
     84  N         -1.8750  -29.3360   19.2800 N.am  122  PHE122     -0.1976
     85  CA        -1.3690  -30.0310   20.4650 C.3   122  PHE122      0.1639
     86  C         -2.0730  -31.3700   20.5790 C.2   122  PHE122      0.2290
     87  O         -2.9940  -31.6270   19.8140 O.2   122  PHE122     -0.2864
     88  CB        -1.6540  -29.2020   21.7200 C.3   122  PHE122      0.0560
     89  CG        -1.1300  -27.8020   21.6400 C.ar  122  PHE122     -0.0200
     90  CD1        0.2260  -27.5470   21.8290 C.ar  122  PHE122     -0.0042
     91  CD2       -1.9820  -26.7410   21.3520 C.ar  122  PHE122     -0.0042
     92  CE1        0.7190  -26.2570   21.7460 C.ar  122  PHE122     -0.0003
     93  CE2       -1.4940  -25.4430   21.2690 C.ar  122  PHE122     -0.0003
     94  CZ        -0.1420  -25.2020   21.4670 C.ar  122  PHE122     -0.0000
     95  N          3.1910  -29.2940   17.6480 N.3   142  SER142     -0.1217
     96  CA         3.5950  -27.9380   18.0050 C.3   142  SER142      0.1889
     97  C          4.6470  -27.9600   19.0970 C.2   142  SER142      0.2288
     98  O          4.6180  -28.7960   20.0040 O.2   142  SER142     -0.2866
     99  CB         2.3970  -27.0810   18.4320 C.3   142  SER142      0.2089
    100  OG         1.5220  -26.8550   17.3270 O.3   142  SER142     -0.2183
    101  N          6.6420  -25.2840   21.7460 N.3   144  LEU144     -0.1245
    102  CA         6.7450  -23.9580   22.3560 C.3   144  LEU144      0.1561
    103  C          7.7780  -24.0590   23.4710 C.2   144  LEU144      0.2260
    104  O          8.2450  -25.1570   23.7950 O.2   144  LEU144     -0.2867
    105  CB         5.4010  -23.5470   22.9750 C.3   144  LEU144      0.0270
    106  CG         4.1780  -23.2890   22.0970 C.3   144  LEU144      0.0019
    107  CD1        2.9140  -23.3720   22.9460 C.3   144  LEU144      0.0001
    108  CD2        4.2670  -21.9260   21.4240 C.3   144  LEU144      0.0001
    109  N          6.5590  -29.1830   14.4490 N.3   178  ALA178     -0.1245
    110  CA         5.9770  -27.8540   14.2500 C.3   178  ALA178      0.1562
    111  C          6.3880  -26.8120   15.2920 C.2   178  ALA178      0.2260
    112  O          5.5510  -26.3510   16.0820 O.2   178  ALA178     -0.2867
    113  CB         4.4560  -27.9440   14.1660 C.3   178  ALA178      0.0290
    114  N          6.6060  -23.4820   16.8660 N.3   180  HIS180     -0.1241
    115  CA         5.4910  -22.5740   16.6570 C.3   180  HIS180      0.1621
    116  C          5.7960  -21.3660   15.7720 C.2   180  HIS180      0.2264
    117  O          5.0740  -21.1070   14.8010 O.2   180  HIS180     -0.2867
    118  CB         4.9150  -22.1110   17.9920 C.3   180  HIS180      0.0745
    119  CG         3.8180  -21.1170   17.8360 C.ar  180  HIS180      0.0817
    120  ND1        3.9950  -19.7700   18.0720 N.ar  180  HIS180     -0.2268
    121  CD2        2.5350  -21.2630   17.4270 C.ar  180  HIS180      0.1154
    122  CE1        2.8660  -19.1330   17.8280 C.ar  180  HIS180      0.1986
    123  NE2        1.9620  -20.0150   17.4380 N.ar  180  HIS180     -0.2212
    124  N          9.3210  -16.2910   17.3660 N.3   183  TYR183     -0.1241
    125  CA         9.2180  -15.5320   18.6200 C.3   183  TYR183      0.1605
    126  C          8.7600  -16.3660   19.8170 C.2   183  TYR183      0.2264
    127  O          8.5300  -15.8260   20.8990 O.2   183  TYR183     -0.2867
    128  CB         8.2910  -14.3190   18.4430 C.3   183  TYR183      0.0534
    129  CG         6.9140  -14.6880   17.9360 C.ar  183  TYR183     -0.0201
    130  CD1        5.9410  -15.1520   18.8060 C.ar  183  TYR183     -0.0009
    131  CD2        6.5950  -14.5870   16.5880 C.ar  183  TYR183     -0.0009
    132  CE1        4.6930  -15.5120   18.3580 C.ar  183  TYR183      0.0417
    133  CE2        5.3420  -14.9360   16.1270 C.ar  183  TYR183      0.0417
    134  CZ         4.3950  -15.3990   17.0210 C.ar  183  TYR183      0.1957
    135  OH         3.1310  -15.7650   16.5940 O.3   183  TYR183     -0.2866
    136  N          5.0730  -21.0600   11.6140 N.3   206  HIS206     -0.1241
    137  CA         4.5840  -19.7290   11.2150 C.3   206  HIS206      0.1621
    138  C          5.7860  -18.8040   11.1000 C.2   206  HIS206      0.2264
    139  O          6.4570  -18.5610   12.1090 O.2   206  HIS206     -0.2867
    140  CB         3.6920  -19.1050   12.2980 C.3   206  HIS206      0.0745
    141  CG         2.4990  -19.9210   12.6970 C.ar  206  HIS206      0.0817
    142  ND1        2.4880  -20.7170   13.8230 N.ar  206  HIS206     -0.2268
    143  CD2        1.2460  -19.9770   12.1860 C.ar  206  HIS206      0.1154
    144  CE1        1.2920  -21.2660   13.9620 C.ar  206  HIS206      0.1986
    145  NE2        0.5220  -20.8370   12.9810 N.ar  206  HIS206     -0.2212
    146  N          4.9080  -13.6540    9.8170 N.3   209  GLU209     -0.1245
    147  CA         3.4820  -13.3230    9.7630 C.3   209  GLU209      0.1567
    148  C          3.2020  -11.8190    9.9210 C.2   209  GLU209      0.2260
    149  O          2.2730  -11.2940    9.3070 O.2   209  GLU209     -0.2867
    150  CB         2.6970  -14.1090   10.8160 C.3   209  GLU209      0.0388
    151  CG         1.1890  -13.9320   10.6680 C.3   209  GLU209      0.1160
    152  CD         0.4070  -14.7670   11.6540 C.2   209  GLU209      0.3649
    153  OE1        1.0440  -15.5660   12.3880 O.co2 209  GLU209     -0.2457
    154  OE2       -0.8420  -14.6290   11.6890 O.co2 209  GLU209     -0.2457
    155  N          2.2880  -18.5040    6.3590 N.3   243  HIS243     -0.1241
    156  CA         2.1010  -17.0440    6.3340 C.3   243  HIS243      0.1621
    157  C          3.0640  -16.3260    5.3880 C.2   243  HIS243      0.2264
    158  O          2.6720  -16.0020    4.2640 O.2   243  HIS243     -0.2867
    159  CB         2.0830  -16.4140    7.7410 C.3   243  HIS243      0.0745
    160  CG         0.8830  -16.7970    8.5490 C.ar  243  HIS243      0.0817
    161  ND1       -0.4080  -16.6380    8.0870 N.ar  243  HIS243     -0.2268
    162  CD2        0.7730  -17.3420    9.7870 C.ar  243  HIS243      0.1154
    163  CE1       -1.2610  -17.0540    9.0100 C.ar  243  HIS243      0.1986
    164  NE2       -0.5710  -17.4820   10.0510 N.ar  243  HIS243     -0.2212
    165  N         -6.5510  -10.6490   10.8380 N.3   270  LEU270     -0.1245
    166  CA        -5.6680  -10.2200   11.9350 C.3   270  LEU270      0.1561
    167  C         -4.8970   -8.9510   11.5710 C.2   270  LEU270      0.2260
    168  O         -4.1150   -8.4330   12.3840 O.2   270  LEU270     -0.2867
    169  CB        -4.6970  -11.3420   12.3250 C.3   270  LEU270      0.0270
    170  CG        -5.3270  -12.6350   12.8410 C.3   270  LEU270      0.0019
    171  CD1       -4.2900  -13.7500   12.9650 C.3   270  LEU270      0.0001
    172  CD2       -6.0190  -12.4110   14.1660 C.3   270  LEU270      0.0001
    173  N         -5.6300  -21.4510    8.0180 N.3   291  ASP291     -0.1225
    174  CA        -5.3390  -21.1750    9.4300 C.3   291  ASP291      0.1805
    175  C         -6.5020  -21.7520   10.2530 C.2   291  ASP291      0.2598
    176  O         -7.2590  -22.5920    9.7570 O.2   291  ASP291     -0.2718
    177  CB        -5.1600  -19.6610    9.6720 C.3   291  ASP291      0.1424
    178  CG        -4.0820  -19.3360   10.6980 C.2   291  ASP291      0.3668
    179  OD1       -3.3180  -20.2360   11.0950 O.co2 291  ASP291     -0.2456
    180  OD2       -3.9810  -18.1510   11.0920 O.co2 291  ASP291     -0.2456
    181  N         -6.6520  -21.3170   11.5000 N.am  292  GLY292     -0.1957
    182  CA        -7.7160  -21.8420   12.3490 C.3   292  GLY292      0.1869
    183  C         -9.0230  -21.0690   12.2350 C.2   292  GLY292      0.2309
    184  O         -9.0460  -19.9170   11.7950 O.2   292  GLY292     -0.2863
    185  N         -9.7050  -17.3440   13.3440 N.3   295  SER295     -0.1217
    186  CA        -9.2120  -16.2190   12.5470 C.3   295  SER295      0.1889
    187  C         -9.4330  -16.4510   11.0490 C.2   295  SER295      0.2288
    188  O         -8.5030  -16.3700   10.2460 O.2   295  SER295     -0.2866
    189  CB        -7.7300  -15.9400   12.8250 C.3   295  SER295      0.2089
    190  OG        -6.8870  -16.9930   12.3760 O.3   295  SER295     -0.2183
@<TRIPOS>BOND
     1   158   157    2
     2   157   156    1
     3   156   155    1
     4   156   159    1
     5   159   160    1
     6   173   174    1
     7   161   160   ar
     8   161   163   ar
     9   160   162   ar
    10   163   164   ar
    11   149   148    2
    12   174   177    1
    13   174   175    1
    14   177   178    1
    15   176   175    2
    16   147   146    1
    17   147   148    1
    18   147   150    1
    19   162   164   ar
    20   188   187    2
    21   175   181   am
    22   151   150    1
    23   151   152    1
    24   178   180   ar
    25   178   179   ar
    26   165   166    1
    27   187   186    1
    28   138   137    1
    29   138   139    2
    30   137   136    1
    31   137   140    1
    32   181   182    1
    33   167   166    1
    34   167   168    2
    35   152   154   ar
    36   152   153   ar
    37   184   183    2
    38   166   169    1
    39     1     2    1
    40   143   141   ar
    41   143   145   ar
    42   183   182    1
    43   140   141    1
    44   169   170    1
    45   190   189    1
    46   186   189    1
    47   186   185    1
    48   141   142   ar
    49   170   171    1
    50   170   172    1
    51   145   144   ar
    52    10     8   ar
    53    10     9   ar
    54     8     6   ar
    55     2     3    1
    56     2     5    1
    57     3     4    2
    58     9     7   ar
    59   142   144   ar
    60     6     7   ar
    61     6     5    1
    62   113   110    1
    63   110   109    1
    64   110   111    1
    65   117   116    2
    66    18    16    1
    67   111   112    2
    68    15    16    1
    69    15    12    1
    70    17    16    1
    71    11    12    1
    72   116   115    1
    73    72    73    1
    74   133   131   ar
    75   133   134   ar
    76    12    13    1
    77    32    30   ar
    78    32    31   ar
    79    30    28   ar
    80    31    29   ar
    81   131   129   ar
    82   135   134    1
    83   115   114    1
    84   115   118    1
    85    28    27   ar
    86    28    26   ar
    87   134   132   ar
    88    76    73    1
    89    76    77    1
    90    73    74    1
    91    29    26   ar
    92    27    25   ar
    93   100    99    1
    94    26    24   ar
    95   124   125    1
    96   121   123   ar
    97   121   119   ar
    98   123   122   ar
    99    95    96    1
   100    13    14    2
   101    78    77   ar
   102    78    80   ar
   103   122   120   ar
   104   119   118    1
   105   119   120   ar
   106    25    24   ar
   107    77    79   ar
   108   129   128    1
   109   129   130   ar
   110    24    23    1
   111    96    99    1
   112    96    97    1
   113    75    74    2
   114    74    84   am
   115   132   130   ar
   116    23    20    1
   117   128   125    1
   118    80    82   ar
   119   125   126    1
   120    39    38    1
   121    79    81   ar
   122    40    38    1
   123    97    98    2
   124    38    37    1
   125    84    85    1
   126    82    81   ar
   127    82    83    1
   128    48    46    1
   129    87    86    2
   130   126   127    2
   131    46    45    1
   132    20    19    1
   133    20    21    1
   134    71    69   ar
   135    33    21   am
   136    33    34    1
   137    85    86    1
   138    85    88    1
   139    37    34    1
   140    21    22    2
   141    47    45    1
   142    45    42    1
   143    34    35    1
   144    93    91   ar
   145    93    94   ar
   146    91    89   ar
   147   108   106    1
   148    94    92   ar
   149    60    62   ar
   150    60    58   ar
   151    69    70   ar
   152    69    68    1
   153    89    88    1
   154    89    90   ar
   155   101   102    1
   156    92    90   ar
   157    57    58   ar
   158    57    55   ar
   159    62    61   ar
   160   106   107    1
   161   106   105    1
   162    58    56   ar
   163   102   105    1
   164   102   103    1
   165    42    41    1
   166    42    43    1
   167    35    36    2
   168    68    67    1
   169    55    54   ar
   170    61    59   ar
   171    56    54   ar
   172    56    59   ar
   173    43    49   am
   174    43    44    2
   175   103   104    2
   176    54    53    1
   177    49    50    1
   178    67    64    1
   179    50    53    1
   180    50    51    1
   181    64    63    1
   182    64    65    1
   183    51    52    2
   184    65    66    2
