@<TRIPOS>MOLECULE
tmp/4f0sA02.pdb
 105 106 0 0 0
SMALL
GASTEIGER

@<TRIPOS>ATOM
      1  N         -4.4940  -17.9470   23.7800 N.3    89  TRP89      -0.1228
      2  CA        -3.7710  -18.7950   24.7240 C.3    89  TRP89       0.1722
      3  C         -4.4980  -19.0040   26.0560 C.2    89  TRP89       0.2437
      4  O         -4.5250  -20.1250   26.5530 O.2    89  TRP89      -0.2733
      5  CB        -2.3180  -18.3600   24.9150 C.3    89  TRP89       0.0563
      6  CG        -1.4660  -18.7230   23.7260 C.ar   89  TRP89       0.0003
      7  CD1       -1.7000  -19.7260   22.8200 C.ar   89  TRP89       0.0946
      8  CD2       -0.2580  -18.0790   23.3090 C.ar   89  TRP89       0.0152
      9  NE1       -0.7040  -19.7440   21.8650 N.ar   89  TRP89      -0.2442
     10  CE2        0.1920  -18.7380   22.1420 C.ar   89  TRP89       0.0810
     11  CE3        0.4860  -17.0010   23.8040 C.ar   89  TRP89       0.0012
     12  CZ2        1.3550  -18.3580   21.4690 C.ar   89  TRP89       0.0191
     13  CZ3        1.6340  -16.6150   23.1300 C.ar   89  TRP89       0.0001
     14  CH2        2.0630  -17.2950   21.9780 C.ar   89  TRP89       0.0015
     15  N         -5.1070  -17.9440   26.6290 N.am   90  PRO90      -0.2729
     16  CA        -5.8560  -18.2190   27.8660 C.3    90  PRO90       0.1401
     17  C         -7.0420  -19.1640   27.6650 C.2    90  PRO90       0.2269
     18  O         -7.3210  -19.9890   28.5400 O.2    90  PRO90      -0.2865
     19  CB        -6.3490  -16.8310   28.2890 C.3    90  PRO90       0.0296
     20  CG        -5.3390  -15.8960   27.7350 C.3    90  PRO90       0.0237
     21  CD        -4.9090  -16.4960   26.4180 C.3    90  PRO90       0.0939
     22  N         -7.2290  -21.5100   25.3560 N.3    92  GLU92      -0.1231
     23  CA        -6.6220  -22.8170   25.1330 C.3    92  GLU92       0.1699
     24  C         -6.1280  -23.4440   26.4440 C.2    92  GLU92       0.2592
     25  O         -6.2400  -24.6560   26.6400 O.2    92  GLU92      -0.2718
     26  CB        -5.4920  -22.7230   24.0940 C.3    92  GLU92       0.0402
     27  CG        -5.9900  -22.4450   22.6720 C.3    92  GLU92       0.1161
     28  CD        -4.8710  -22.4070   21.6320 C.2    92  GLU92       0.3649
     29  OE1       -3.6860  -22.2230   21.9980 O.co2  92  GLU92      -0.2457
     30  OE2       -5.1820  -22.5490   20.4210 O.co2  92  GLU92      -0.2457
     31  N         -5.5980  -22.6220   27.3460 N.am   93  GLY93      -0.1957
     32  CA        -5.2220  -23.1110   28.6630 C.3    93  GLY93       0.1869
     33  C         -6.4100  -23.6590   29.4450 C.2    93  GLY93       0.2309
     34  O         -6.2680  -24.6040   30.2320 O.2    93  GLY93      -0.2863
     35  N         -8.1890  -26.8950   26.2880 N.3    96  VAL96      -0.1245
     36  CA        -7.5200  -27.8490   25.3990 C.3    96  VAL96       0.1561
     37  C         -6.9160  -29.0590   26.1150 C.2    96  VAL96       0.2260
     38  O         -5.9570  -28.9340   26.8820 O.2    96  VAL96      -0.2867
     39  CB        -6.4600  -27.1760   24.4960 C.3    96  VAL96       0.0252
     40  CG1       -5.7020  -28.2320   23.6840 C.3    96  VAL96       0.0019
     41  CG2       -7.1300  -26.1790   23.5680 C.3    96  VAL96       0.0019
     42  N         -1.8750  -29.3360   19.2800 N.3   122  PHE122     -0.1241
     43  CA        -1.3690  -30.0310   20.4650 C.3   122  PHE122      0.1605
     44  C         -2.0730  -31.3700   20.5790 C.2   122  PHE122      0.2264
     45  O         -2.9940  -31.6270   19.8140 O.2   122  PHE122     -0.2867
     46  CB        -1.6540  -29.2020   21.7200 C.3   122  PHE122      0.0534
     47  CG        -1.1300  -27.8020   21.6400 C.ar  122  PHE122     -0.0203
     48  CD1        0.2260  -27.5470   21.8290 C.ar  122  PHE122     -0.0042
     49  CD2       -1.9820  -26.7410   21.3520 C.ar  122  PHE122     -0.0042
     50  CE1        0.7190  -26.2570   21.7460 C.ar  122  PHE122     -0.0003
     51  CE2       -1.4940  -25.4430   21.2690 C.ar  122  PHE122     -0.0003
     52  CZ        -0.1420  -25.2020   21.4670 C.ar  122  PHE122     -0.0000
     53  N          6.6420  -25.2840   21.7460 N.3   144  LEU144     -0.1245
     54  CA         6.7450  -23.9580   22.3560 C.3   144  LEU144      0.1561
     55  C          7.7780  -24.0590   23.4710 C.2   144  LEU144      0.2260
     56  O          8.2450  -25.1570   23.7950 O.2   144  LEU144     -0.2867
     57  CB         5.4010  -23.5470   22.9750 C.3   144  LEU144      0.0270
     58  CG         4.1780  -23.2890   22.0970 C.3   144  LEU144      0.0019
     59  CD1        2.9140  -23.3720   22.9460 C.3   144  LEU144      0.0001
     60  CD2        4.2670  -21.9260   21.4240 C.3   144  LEU144      0.0001
     61  N          7.1450  -22.2930   26.5680 N.3   146  PHE146     -0.1228
     62  CA         6.4220  -22.1530   27.8300 C.3   146  PHE146      0.1721
     63  C          5.5490  -23.3610   28.1880 C.2   146  PHE146      0.2437
     64  O          5.0510  -24.0640   27.2940 O.2   146  PHE146     -0.2733
     65  CB         5.6360  -20.8250   27.8950 C.3   146  PHE146      0.0547
     66  CG         4.5770  -20.6670   26.8400 C.ar  146  PHE146     -0.0202
     67  CD1        3.3070  -21.2080   27.0210 C.ar  146  PHE146     -0.0042
     68  CD2        4.8310  -19.9190   25.6930 C.ar  146  PHE146     -0.0042
     69  CE1        2.3140  -21.0320   26.0590 C.ar  146  PHE146     -0.0003
     70  CE2        3.8510  -19.7350   24.7300 C.ar  146  PHE146     -0.0003
     71  CZ         2.5880  -20.2990   24.9090 C.ar  146  PHE146     -0.0000
     72  N          5.3730  -23.6170   29.5000 N.am  147  PRO147     -0.2718
     73  CA         4.5450  -24.7560   29.9140 C.3   147  PRO147      0.1535
     74  C          3.0710  -24.5460   29.6050 C.2   147  PRO147      0.2599
     75  O          2.5580  -23.4290   29.7060 O.2   147  PRO147     -0.2715
     76  CB         4.7580  -24.8230   31.4350 C.3   147  PRO147      0.0310
     77  CG         5.1410  -23.4380   31.8230 C.3   147  PRO147      0.0237
     78  CD         5.9410  -22.9010   30.6580 C.3   147  PRO147      0.0939
     79  N          2.4080  -25.6300   29.2130 N.am  148  THR148     -0.1937
     80  CA         0.9860  -25.6360   28.9270 C.3   148  THR148      0.2028
     81  C          0.4590  -26.9110   29.5550 C.2   148  THR148      0.2642
     82  O          1.2350  -27.7130   30.0840 O.2   148  THR148     -0.2714
     83  CB         0.7260  -25.7160   27.4090 C.3   148  THR148      0.1808
     84  OG1        1.4430  -26.8340   26.8650 O.3   148  THR148     -0.2208
     85  CG2        1.1560  -24.4330   26.6990 C.3   148  THR148      0.0379
     86  N         -0.8460  -27.1250   29.4850 N.am  149  ASN149     -0.1957
     87  CA        -1.3860  -28.3910   29.9570 C.3   149  ASN149      0.1819
     88  C         -0.7910  -29.5630   29.1900 C.2   149  ASN149      0.2621
     89  O         -0.5850  -30.6360   29.7540 O.2   149  ASN149     -0.2715
     90  CB        -2.9100  -28.3890   29.8750 C.3   149  ASN149      0.1195
     91  CG        -3.5280  -27.4580   30.8960 C.2   149  ASN149      0.2630
     92  OD1       -3.1730  -27.5000   32.0820 O.2   149  ASN149     -0.2716
     93  ND2       -4.4300  -26.6020   30.4480 N.am  149  ASN149     -0.0877
     94  N         -0.4660  -29.3400   27.9170 N.am  150  TYR150     -0.1974
     95  CA         0.0960  -30.4020   27.0870 C.3   150  TYR150      0.1639
     96  C          1.5320  -30.8000   27.4260 C.2   150  TYR150      0.2290
     97  O          1.8450  -31.9970   27.5040 O.2   150  TYR150     -0.2864
     98  CB         0.0140  -30.0380   25.6010 C.3   150  TYR150      0.0560
     99  CG         0.6060  -31.1110   24.7160 C.ar  150  TYR150     -0.0198
    100  CD1        0.0190  -32.3730   24.6290 C.ar  150  TYR150     -0.0009
    101  CD2        1.7570  -30.8730   23.9810 C.ar  150  TYR150     -0.0009
    102  CE1        0.5710  -33.3670   23.8300 C.ar  150  TYR150      0.0417
    103  CE2        2.3160  -31.8560   23.1840 C.ar  150  TYR150      0.0417
    104  CZ         1.7130  -33.0920   23.1070 C.ar  150  TYR150      0.1957
    105  OH         2.2700  -34.0640   22.3150 O.3   150  TYR150     -0.2866
@<TRIPOS>BOND
     1    42    43    1
     2    45    44    2
     3    30    28   ar
     4    43    44    1
     5    43    46    1
     6    51    49   ar
     7    51    52   ar
     8    49    47   ar
     9    60    58    1
    10    52    50   ar
    11    12    14   ar
    12    12    10   ar
    13    28    29   ar
    14    28    27    1
    15    47    46    1
    16    47    48   ar
    17    50    48   ar
    18    53    54    1
    19     9    10   ar
    20     9     7   ar
    21    14    13   ar
    22    58    59    1
    23    58    57    1
    24    10     8   ar
    25   105   104    1
    26    54    57    1
    27    54    55    1
    28    27    26    1
    29     7     6   ar
    30   104   103   ar
    31   104   102   ar
    32    13    11   ar
    33   103   101   ar
    34     8     6   ar
    35     8    11   ar
    36    55    56    2
    37    41    39    1
    38    40    39    1
    39     6     5    1
    40     1     2    1
    41   102   100   ar
    42   101    99   ar
    43    26    23    1
    44    39    36    1
    45   100    99   ar
    46    99    98    1
    47     2     5    1
    48     2     3    1
    49    70    71   ar
    50    70    68   ar
    51    71    69   ar
    52    23    22    1
    53    23    24    1
    54    36    37    1
    55    36    35    1
    56    98    95    1
    57    68    66   ar
    58     3     4    2
    59     3    15   am
    60    69    67   ar
    61    37    38    2
    62    21    15    1
    63    21    20    1
    64    24    25    2
    65    24    31   am
    66    61    62    1
    67    15    16    1
    68    85    83    1
    69    66    67   ar
    70    66    65    1
    71    84    83    1
    72    95    96    1
    73    95    94    1
    74    64    63    2
    75    31    32    1
    76    83    80    1
    77    96    97    2
    78    17    16    1
    79    17    18    2
    80    20    19    1
    81    62    65    1
    82    62    63    1
    83    16    19    1
    84    94    88   am
    85    63    72   am
    86    32    33    1
    87    80    79    1
    88    80    81    1
    89    88    89    2
    90    88    87    1
    91    79    74   am
    92    33    34    2
    93    86    81   am
    94    86    87    1
    95    72    73    1
    96    72    78    1
    97    81    82    2
    98    74    75    2
    99    74    73    1
   100    90    87    1
   101    90    91    1
   102    73    76    1
   103    93    91   am
   104    78    77    1
   105    91    92    2
   106    76    77    1
