@<TRIPOS>MOLECULE
tmp/4f0wA00.pdb
 88 86 0 0 0
SMALL
GASTEIGER

@<TRIPOS>ATOM
      1  N        -10.9200   11.3760   10.9600 N.3    26  ASP26      -0.1225
      2  CA       -10.7180   10.5350    9.7840 C.3    26  ASP26       0.1805
      3  C        -10.0780   11.2720    8.6040 C.2    26  ASP26       0.2598
      4  O        -10.1360   10.7880    7.4790 O.2    26  ASP26      -0.2718
      5  CB       -12.0520    9.9160    9.3270 C.3    26  ASP26       0.1424
      6  CG       -12.6740    9.0300   10.3750 C.2    26  ASP26       0.3668
      7  OD1      -11.9230    8.3180   11.0720 O.co2  26  ASP26      -0.2456
      8  OD2      -13.9160    9.0520   10.5020 O.co2  26  ASP26      -0.2456
      9  N         -9.4670   12.4270    8.8590 N.am   27  ASN27      -0.1960
     10  CA        -9.0100   13.3160    7.7900 C.3    27  ASN27       0.1819
     11  C         -7.8790   14.2000    8.3040 C.2    27  ASN27       0.2621
     12  O         -8.1330   15.2310    8.9260 O.2    27  ASN27      -0.2715
     13  CB       -10.1900   14.1560    7.2810 C.3    27  ASN27       0.1195
     14  CG        -9.7840   15.1640    6.2140 C.2    27  ASN27       0.2630
     15  OD1       -8.6620   15.1410    5.7060 O.2    27  ASN27      -0.2716
     16  ND2      -10.6860   16.0650    5.8850 N.am   27  ASN27      -0.0877
     17  N         -6.6350   13.7920    8.0750 N.am   28  ALA28      -0.1963
     18  CA        -5.4880   14.4990    8.6590 C.3    28  ALA28       0.1728
     19  C         -5.4660   16.0050    8.3140 C.2    28  ALA28       0.2616
     20  O         -5.3030   16.9040    9.1910 O.2    28  ALA28      -0.2715
     21  CB        -4.1810   13.8370    8.2280 C.3    28  ALA28       0.0334
     22  N         -5.6290   16.2830    7.0260 N.am   29  SER29      -0.1950
     23  CA        -5.6180   17.6560    6.5630 C.3    29  SER29       0.1924
     24  C         -6.7750   18.4460    7.1520 C.2    29  SER29       0.2314
     25  O         -6.5810   19.5660    7.6040 O.2    29  SER29      -0.2863
     26  CB        -5.5830   17.7290    5.0320 C.3    29  SER29       0.2116
     27  OG        -6.6210   16.9650    4.4420 O.3    29  SER29      -0.2180
     28  N         -5.5110   18.8250    0.4790 N.3    47  ASN47      -0.1225
     29  CA        -5.2560   17.6200    1.2470 C.3    47  ASN47       0.1785
     30  C         -3.8590   17.6610    1.8790 C.2    47  ASN47       0.2597
     31  O         -3.1740   18.6840    1.8090 O.2    47  ASN47      -0.2718
     32  CB        -5.4830   16.3730    0.3850 C.3    47  ASN47       0.1169
     33  CG        -4.5130   16.2700   -0.7840 C.2    47  ASN47       0.2627
     34  OD1       -3.4940   16.9660   -0.8460 O.2    47  ASN47      -0.2716
     35  ND2       -4.8230   15.3790   -1.7160 N.am   47  ASN47      -0.0877
     36  N         -3.4280   16.5730    2.5040 N.am   48  ALA48      -0.1966
     37  CA        -2.1820   16.6210    3.2530 C.3    48  ALA48       0.1728
     38  C         -0.9830   16.9460    2.3660 C.2    48  ALA48       0.2616
     39  O         -0.1510   17.7770    2.7330 O.2    48  ALA48      -0.2715
     40  CB        -1.9580   15.3270    4.0320 C.3    48  ALA48       0.0334
     41  N         -0.8940   16.3150    1.1940 N.am   49  ASN49      -0.1972
     42  CA         0.2150   16.6240    0.2870 C.3    49  ASN49       0.1688
     43  C          0.2170   18.0980   -0.1180 C.2    49  ASN49       0.2292
     44  O          1.2770   18.7440   -0.1710 O.2    49  ASN49      -0.2864
     45  CB         0.1780   15.7500   -0.9690 C.3    49  ASN49       0.1181
     46  CG         0.8880   14.4140   -0.7870 C.2    49  ASN49       0.2629
     47  OD1        1.2760   14.0310    0.3080 O.2    49  ASN49      -0.2716
     48  ND2        1.0530   13.6890   -1.8840 N.am   49  ASN49      -0.0877
     49  N         -1.0000    9.2100   -0.2410 N.3    87  TYR87      -0.1227
     50  CA        -1.4900   10.1400    0.7710 C.3    87  TYR87       0.1736
     51  C         -0.3270   10.6660    1.5800 C.2    87  TYR87       0.2596
     52  O          0.5430    9.8950    1.9950 O.2    87  TYR87      -0.2718
     53  CB        -2.4240    9.4420    1.7630 C.3    87  TYR87       0.0548
     54  CG        -3.6470    8.8190    1.1600 C.ar   87  TYR87      -0.0200
     55  CD1       -3.8980    7.4660    1.3180 C.ar   87  TYR87      -0.0009
     56  CD2       -4.5540    9.5780    0.4390 C.ar   87  TYR87      -0.0009
     57  CE1       -5.0190    6.8820    0.7770 C.ar   87  TYR87       0.0417
     58  CE2       -5.6850    9.0050   -0.1030 C.ar   87  TYR87       0.0417
     59  CZ        -5.9020    7.6540    0.0610 C.ar   87  TYR87       0.1957
     60  OH        -7.0200    7.0700   -0.4870 O.3    87  TYR87      -0.2866
     61  N         -0.3170   11.9690    1.8230 N.am   88  GLY88      -0.1942
     62  CA         0.5670   12.5360    2.8180 C.3    88  GLY88       0.2014
     63  C         -0.0650   12.4890    4.1950 C.2    88  GLY88       0.2638
     64  O         -1.1770   11.9860    4.3770 O.2    88  GLY88      -0.2714
     65  N          0.6460   13.0180    5.1750 N.am   89  HIS89      -0.1973
     66  CA         0.1140   13.1260    6.5280 C.3    89  HIS89       0.1656
     67  C          0.6160   14.4100    7.1580 C.2    89  HIS89       0.2291
     68  O          1.7360   14.8470    6.8850 O.2    89  HIS89      -0.2864
     69  CB         0.5010   11.9120    7.3870 C.3    89  HIS89       0.0771
     70  CG        -0.1880   11.8690    8.7160 C.ar   89  HIS89       0.0820
     71  ND1       -1.5500   11.7040    8.8440 N.ar   89  HIS89      -0.2267
     72  CD2        0.2970   11.9910    9.9750 C.ar   89  HIS89       0.1154
     73  CE1       -1.8700   11.7110   10.1260 C.ar   89  HIS89       0.1986
     74  NE2       -0.7670   11.8840   10.8330 N.ar   89  HIS89      -0.2212
     75  N         -6.7110   10.8050   10.6770 N.3   110  SER110     -0.1202
     76  CA        -6.1970   10.0810    9.5170 C.3   110  SER110      0.2020
     77  C         -7.2290    9.2410    8.7990 C.2   110  SER110      0.2618
     78  O         -8.0180    8.5410    9.4230 O.2   110  SER110     -0.2717
     79  CB        -5.0610    9.1500    9.9270 C.3   110  SER110      0.2103
     80  OG        -4.5620    8.4380    8.8040 O.3   110  SER110     -0.2182
     81  N         -7.1580    9.2810    7.4720 N.am  111  ILE111     -0.1979
     82  CA        -7.9230    8.4000    6.6010 C.3   111  ILE111      0.1595
     83  C         -7.6030    6.9320    6.8810 C.2   111  ILE111      0.2287
     84  O         -8.4270    6.0620    6.6050 O.2   111  ILE111     -0.2864
     85  CB        -7.6480    8.7370    5.1030 C.3   111  ILE111      0.0276
     86  CG1       -8.6460    8.0430    4.1650 C.3   111  ILE111      0.0022
     87  CG2       -6.2140    8.4110    4.7210 C.3   111  ILE111      0.0022
     88  CD1       -8.5760    8.5670    2.7350 C.3   111  ILE111      0.0001
@<TRIPOS>BOND
     1    48    46   am
     2    35    33   am
     3    45    46    1
     4    45    42    1
     5    34    33    2
     6    46    47    2
     7    33    32    1
     8    60    59    1
     9    49    50    1
    10    44    43    2
    11    43    42    1
    12    58    59   ar
    13    58    56   ar
    14    59    57   ar
    15    42    41    1
    16    32    29    1
    17    56    54   ar
    18    28    29    1
    19    50    51    1
    20    50    53    1
    21    57    55   ar
    22    54    55   ar
    23    54    53    1
    24    41    38   am
    25    29    30    1
    26    51    61   am
    27    51    52    2
    28    31    30    2
    29    61    62    1
    30    30    36   am
    31    38    39    2
    32    38    37    1
    33    36    37    1
    34    88    86    1
    35    62    63    1
    36    37    40    1
    37    86    85    1
    38    63    64    2
    39    63    65   am
    40    27    26    1
    41    87    85    1
    42    26    23    1
    43    85    82    1
    44    65    66    1
    45    15    14    2
    46    16    14   am
    47    14    13    1
    48    66    67    1
    49    66    69    1
    50    23    22    1
    51    23    24    1
    52    82    83    1
    53    82    81    1
    54    84    83    2
    55    68    67    2
    56    22    19   am
    57    24    25    2
    58    13    10    1
    59    69    70    1
    60    81    77   am
    61     4     3    2
    62    10    11    1
    63    10     9    1
    64    17    11   am
    65    17    18    1
    66    21    18    1
    67    11    12    2
    68    19    18    1
    69    19    20    2
    70     3     9   am
    71     3     2    1
    72    70    71   ar
    73    70    72   ar
    74    77    78    2
    75    77    76    1
    76    80    79    1
    77    71    73   ar
    78     5     2    1
    79     5     6    1
    80    76    79    1
    81    76    75    1
    82     2     1    1
    83    72    74   ar
    84    73    74   ar
    85     6     8   ar
    86     6     7   ar
