@<TRIPOS>MOLECULE
tmp/4f0xD00.pdb
 178 174 0 0 0
SMALL
GASTEIGER

@<TRIPOS>ATOM
      1  N          7.8270   20.8190   60.4240 N.3   176  VAL176     -0.1245
      2  CA         8.5840   21.3110   59.2510 C.3   176  VAL176      0.1561
      3  C          9.5910   22.3810   59.7390 C.2   176  VAL176      0.2260
      4  O         10.7710   22.0500   59.8940 O.2   176  VAL176     -0.2867
      5  CB         7.8240   21.8310   57.9800 C.3   176  VAL176      0.0252
      6  CG1        8.7870   22.0100   56.8160 C.3   176  VAL176      0.0019
      7  CG2        6.6590   20.9600   57.5670 C.3   176  VAL176      0.0019
      8  N         -4.8110   18.0680   61.0690 N.3   209  VAL209     -0.1245
      9  CA        -3.8530   18.4330   60.0290 C.3   209  VAL209      0.1561
     10  C         -3.7760   19.9520   59.8980 C.2   209  VAL209      0.2260
     11  O         -4.7900   20.6310   60.0410 O.2   209  VAL209     -0.2867
     12  CB        -4.0580   17.6630   58.6850 C.3   209  VAL209      0.0252
     13  CG1       -5.3600   18.0340   57.9900 C.3   209  VAL209      0.0019
     14  CG2       -2.8600   17.8150   57.7500 C.3   209  VAL209      0.0019
     15  N          2.2000   26.9850   49.3310 N.3   246  PHE246     -0.1227
     16  CA         2.0640   26.0760   50.4630 C.3   246  PHE246      0.1736
     17  C          3.4520   25.8200   51.0470 C.2   246  PHE246      0.2595
     18  O          4.3040   25.2390   50.3750 O.2   246  PHE246     -0.2718
     19  CB         1.3590   24.7720   50.0350 C.3   246  PHE246      0.0547
     20  CG         0.0130   24.9750   49.3710 C.ar  246  PHE246     -0.0202
     21  CD1       -0.9940   25.6940   50.0040 C.ar  246  PHE246     -0.0042
     22  CD2       -0.2490   24.4430   48.1170 C.ar  246  PHE246     -0.0042
     23  CE1       -2.2360   25.8820   49.3930 C.ar  246  PHE246     -0.0003
     24  CE2       -1.4950   24.6280   47.5070 C.ar  246  PHE246     -0.0003
     25  CZ        -2.4800   25.3470   48.1490 C.ar  246  PHE246     -0.0000
     26  N          3.7090   26.3230   52.2660 N.am  247  TYR247     -0.1976
     27  CA         5.0380   26.2010   52.8670 C.3   247  TYR247      0.1639
     28  C          5.2540   25.2430   54.0600 C.2   247  TYR247      0.2290
     29  O          6.3800   24.7680   54.2390 O.2   247  TYR247     -0.2864
     30  CB         5.7180   27.5630   53.0300 C.3   247  TYR247      0.0560
     31  CG         5.1640   28.4350   54.1340 C.ar  247  TYR247     -0.0198
     32  CD1        4.2220   29.4270   53.8590 C.ar  247  TYR247     -0.0009
     33  CD2        5.6690   28.3600   55.4260 C.ar  247  TYR247     -0.0009
     34  CE1        3.7660   30.2900   54.8620 C.ar  247  TYR247      0.0417
     35  CE2        5.2180   29.2090   56.4350 C.ar  247  TYR247      0.0417
     36  CZ         4.2710   30.1780   56.1480 C.ar  247  TYR247      0.1957
     37  OH         3.8360   31.0170   57.1440 O.3   247  TYR247     -0.2866
     38  N          3.0300   21.9460   55.8940 N.3   249  ILE249     -0.1231
     39  CA         1.9220   21.0120   55.7810 C.3   249  ILE249      0.1692
     40  C          2.3230   19.8220   56.6040 C.2   249  ILE249      0.2593
     41  O          3.2650   19.1040   56.2680 O.2   249  ILE249     -0.2718
     42  CB         1.4170   20.7350   54.3180 C.3   249  ILE249      0.0266
     43  CG1        0.6280   19.4310   54.1610 C.3   249  ILE249      0.0019
     44  CG2        2.4940   20.8620   53.2680 C.3   249  ILE249      0.0020
     45  CD1       -0.7860   19.4710   54.6420 C.3   249  ILE249      0.0001
     46  N          1.6890   19.7150   57.7730 N.am  250  SER250     -0.1938
     47  CA         2.0260   18.7150   58.7720 C.3   250  SER250      0.2055
     48  C          0.8400   18.1470   59.5280 C.2   250  SER250      0.2642
     49  O         -0.1090   18.8680   59.8370 O.2   250  SER250     -0.2714
     50  CB         3.0080   19.3190   59.7690 C.3   250  SER250      0.2130
     51  OG         2.5660   20.6110   60.1580 O.3   250  SER250     -0.2179
     52  N          0.9330   16.8580   59.8800 N.am  251  LEU251     -0.1977
     53  CA        -0.0680   16.1520   60.6870 C.3   251  LEU251      0.1596
     54  C          0.2180   16.4390   62.1610 C.2   251  LEU251      0.2287
     55  O          1.3870   16.4400   62.5570 O.2   251  LEU251     -0.2864
     56  CB         0.0460   14.6370   60.4730 C.3   251  LEU251      0.0297
     57  CG        -0.8370   14.0090   59.4190 C.3   251  LEU251      0.0022
     58  CD1       -0.0580   13.0210   58.6220 C.3   251  LEU251      0.0001
     59  CD2       -2.0070   13.2890   60.0450 C.3   251  LEU251      0.0001
     60  N         -3.3260    9.2930   62.2390 N.3   256  LEU256     -0.1231
     61  CA        -4.1010    9.4990   61.0130 C.3   256  LEU256      0.1693
     62  C         -3.3360    9.5470   59.6780 C.2   256  LEU256      0.2592
     63  O         -3.7600   10.2510   58.7550 O.2   256  LEU256     -0.2718
     64  CB        -5.0540   10.7000   61.1680 C.3   256  LEU256      0.0284
     65  CG        -5.9000   10.7120   62.4240 C.3   256  LEU256      0.0019
     66  CD1       -6.5710   12.0290   62.6140 C.3   256  LEU256      0.0001
     67  CD2       -6.9230    9.6280   62.3910 C.3   256  LEU256      0.0001
     68  N         -2.2610    8.7530   59.5470 N.am  257  GLN257     -0.1966
     69  CA        -1.4910    8.6690   58.2990 C.3   257  GLN257      0.1733
     70  C         -2.2700    7.8720   57.2510 C.2   257  GLN257      0.2617
     71  O         -3.1500    7.0910   57.6120 O.2   257  GLN257     -0.2715
     72  CB        -0.1540    7.9730   58.5420 C.3   257  GLN257      0.0408
     73  CG         0.8760    8.8430   59.2410 C.3   257  GLN257      0.0908
     74  CD         2.2270    8.1710   59.2720 C.2   257  GLN257      0.2608
     75  OE1        2.6450    7.5020   58.3160 O.2   257  GLN257     -0.2717
     76  NE2        2.9450    8.3440   60.3690 N.am  257  GLN257     -0.0878
     77  N         -1.9630    8.1010   55.9680 N.am  258  GLY258     -0.1940
     78  CA        -2.5980    7.4300   54.8330 C.3   258  GLY258      0.2014
     79  C         -4.1160    7.4980   54.7800 C.2   258  GLY258      0.2639
     80  O         -4.7430    6.6640   54.1260 O.2   258  GLY258     -0.2714
     81  N         -4.7250    8.4770   55.4820 N.am  259  VAL259     -0.1963
     82  CA        -6.1840    8.6880   55.5380 C.3   259  VAL259      0.1727
     83  C         -6.5400    9.8930   54.6260 C.2   259  VAL259      0.2616
     84  O         -7.6190   10.4840   54.7300 O.2   259  VAL259     -0.2715
     85  CB        -6.6980    8.7840   57.0250 C.3   259  VAL259      0.0290
     86  CG1       -8.1610    9.2210   57.1280 C.3   259  VAL259      0.0023
     87  CG2       -6.5040    7.4550   57.7500 C.3   259  VAL259      0.0023
     88  N         -5.6160   10.2220   53.7000 N.am  260  GLU260     -0.1963
     89  CA        -5.7350   11.3120   52.7310 C.3   260  GLU260      0.1733
     90  C         -6.0980   12.6720   53.3540 C.2   260  GLU260      0.2616
     91  O         -6.5960   13.5420   52.6340 O.2   260  GLU260     -0.2715
     92  CB        -6.6980   10.9350   51.5940 C.3   260  GLU260      0.0429
     93  CG        -6.2330    9.7360   50.7930 C.3   260  GLU260      0.1163
     94  CD        -6.7620    9.7150   49.3760 C.2   260  GLU260      0.3649
     95  OE1       -5.9600    9.9070   48.4320 O.co2 260  GLU260     -0.2457
     96  OE2       -7.9940    9.5510   49.2190 O.co2 260  GLU260     -0.2457
     97  N         -5.8380   12.8610   54.6780 N.am  261  LEU261     -0.1963
     98  CA        -6.1350   14.1050   55.4060 C.3   261  LEU261      0.1728
     99  C         -5.4970   15.3110   54.7420 C.2   261  LEU261      0.2617
    100  O         -6.1840   16.3110   54.5180 O.2   261  LEU261     -0.2715
    101  CB        -5.7070   14.0410   56.8780 C.3   261  LEU261      0.0311
    102  CG        -6.7300   13.5670   57.9170 C.3   261  LEU261      0.0022
    103  CD1       -6.2300   13.8440   59.2950 C.3   261  LEU261      0.0001
    104  CD2       -8.0220   14.3050   57.8100 C.3   261  LEU261      0.0001
    105  N         -4.2160   15.1630   54.3810 N.am  262  GLY262     -0.1940
    106  CA        -3.4190   16.1520   53.6660 C.3   262  GLY262      0.2014
    107  C         -4.0680   16.5570   52.3610 C.2   262  GLY262      0.2639
    108  O         -4.4310   17.7270   52.2050 O.2   262  GLY262     -0.2714
    109  N         -4.2850   15.5690   51.4500 N.am  263  THR263     -0.1950
    110  CA        -4.9140   15.7300   50.1270 C.3   263  THR263      0.1897
    111  C         -6.1340   16.6610   50.1640 C.2   263  THR263      0.2313
    112  O         -6.0950   17.7210   49.5340 O.2   263  THR263     -0.2863
    113  CB        -5.3080   14.3660   49.5260 C.3   263  THR263      0.1794
    114  OG1       -4.3100   13.3880   49.8160 O.3   263  THR263     -0.2208
    115  CG2       -5.5880   14.4430   48.0170 C.3   263  THR263      0.0378
    116  N          3.4420   24.7440   45.7040 N.3   285  SER285     -0.1217
    117  CA         4.0640   24.4810   46.9870 C.3   285  SER285      0.1889
    118  C          5.5170   24.8940   46.8910 C.2   285  SER285      0.2288
    119  O          6.0470   25.0270   45.7900 O.2   285  SER285     -0.2866
    120  CB         4.0170   22.9860   47.2920 C.3   285  SER285      0.2089
    121  OG         5.1650   22.3250   46.7800 O.3   285  SER285     -0.2183
    122  N          8.1990   23.0360   48.8280 N.3   287  SER287     -0.1203
    123  CA         8.4140   21.8710   49.6670 C.3   287  SER287      0.2005
    124  C          9.8610   21.4320   49.8590 C.2   287  SER287      0.2460
    125  O         10.6800   21.6350   48.9610 O.2   287  SER287     -0.2732
    126  CB         7.5880   20.7100   49.1290 C.3   287  SER287      0.2103
    127  OG         6.2060   20.9800   49.2820 O.3   287  SER287     -0.2182
    128  N         10.1640   20.7280   50.9800 N.am  288  PRO288     -0.2728
    129  CA        11.5240   20.2100   51.1720 C.3   288  PRO288      0.1401
    130  C         11.7110   18.8990   50.3920 C.2   288  PRO288      0.2269
    131  O         10.7910   18.4570   49.6930 O.2   288  PRO288     -0.2865
    132  CB        11.5990   19.9910   52.6870 C.3   288  PRO288      0.0296
    133  CG        10.1990   19.6420   53.0780 C.3   288  PRO288      0.0237
    134  CD         9.2880   20.3480   52.1090 C.3   288  PRO288      0.0939
    135  N          9.0050   10.3860   49.9140 N.3   372  PRO372     -0.2102
    136  CA         7.5850   10.3320   50.3240 C.3   372  PRO372      0.1504
    137  C          6.8060   11.6300   50.0990 C.2   372  PRO372      0.2575
    138  O          5.5930   11.5810   49.8750 O.2   372  PRO372     -0.2718
    139  CB         7.6620    9.9490   51.8040 C.3   372  PRO372      0.0282
    140  CG         9.0120   10.4040   52.2470 C.3   372  PRO372      0.0208
    141  CD         9.9040   10.1940   51.0710 C.3   372  PRO372      0.0893
    142  N          7.5040   12.7790   50.1530 N.am  373  VAL373     -0.1980
    143  CA         6.9480   14.1150   49.9060 C.3   373  VAL373      0.1595
    144  C          6.6140   14.1990   48.4110 C.2   373  VAL373      0.2287
    145  O          5.5390   14.6960   48.0560 O.2   373  VAL373     -0.2864
    146  CB         7.9130   15.2440   50.3790 C.3   373  VAL373      0.0276
    147  CG1        7.4770   16.6240   49.8950 C.3   373  VAL373      0.0022
    148  CG2        8.0530   15.2240   51.8900 C.3   373  VAL373      0.0022
    149  N          3.5500   12.2070   47.7880 N.3   376  PHE376     -0.1227
    150  CA         2.4340   12.9920   48.3220 C.3   376  PHE376      0.1736
    151  C          1.8450   13.9870   47.3130 C.2   376  PHE376      0.2595
    152  O          0.6630   13.8720   46.9900 O.2   376  PHE376     -0.2718
    153  CB         2.7910   13.6890   49.6530 C.3   376  PHE376      0.0547
    154  CG         1.6320   14.4860   50.2090 C.ar  376  PHE376     -0.0202
    155  CD1        0.5780   13.8500   50.8490 C.ar  376  PHE376     -0.0042
    156  CD2        1.5620   15.8610   50.0290 C.ar  376  PHE376     -0.0042
    157  CE1       -0.5150   14.5720   51.3140 C.ar  376  PHE376     -0.0003
    158  CE2        0.4650   16.5860   50.4930 C.ar  376  PHE376     -0.0003
    159  CZ        -0.5670   15.9370   51.1360 C.ar  376  PHE376     -0.0000
    160  N          2.6470   14.9640   46.8450 N.am  377  HIS377     -0.1975
    161  CA         2.1870   15.9800   45.8950 C.3   377  HIS377      0.1656
    162  C          1.8170   15.4110   44.5280 C.2   377  HIS377      0.2291
    163  O          0.8870   15.9130   43.9090 O.2   377  HIS377     -0.2864
    164  CB         3.1860   17.1330   45.7860 C.3   377  HIS377      0.0771
    165  CG         3.2770   17.9540   47.0390 C.ar  377  HIS377      0.0820
    166  ND1        2.3080   18.8930   47.3510 N.ar  377  HIS377     -0.2267
    167  CD2        4.2050   17.9310   48.0200 C.ar  377  HIS377      0.1154
    168  CE1        2.6830   19.4150   48.4990 C.ar  377  HIS377      0.1986
    169  NE2        3.8180   18.8710   48.9430 N.ar  377  HIS377     -0.2212
    170  N          0.6030   12.2000   43.9670 N.3   379  GLN379     -0.1245
    171  CA        -0.6410   11.4600   44.2330 C.3   379  GLN379      0.1566
    172  C         -1.7950   12.4130   43.9520 C.2   379  GLN379      0.2260
    173  O         -2.7190   12.0660   43.2230 O.2   379  GLN379     -0.2867
    174  CB        -0.7250   11.0850   45.7190 C.3   379  GLN379      0.0367
    175  CG        -0.3580    9.6590   46.0760 C.3   379  GLN379      0.0905
    176  CD        -0.6660    9.4770   47.5400 C.2   379  GLN379      0.2608
    177  OE1        0.0190   10.0110   48.4210 O.2   379  GLN379     -0.2717
    178  NE2       -1.7570    8.7960   47.8250 N.am  379  GLN379     -0.0878
@<TRIPOS>BOND
     1   173   172    2
     2   163   162    2
     3   172   171    1
     4   170   171    1
     5   171   174    1
     6   162   161    1
     7   116   117    1
     8   174   175    1
     9   164   161    1
    10   164   165    1
    11   119   118    2
    12   161   160    1
    13   175   176    1
    14   121   120    1
    15   160   151   am
    16   118   117    1
    17   117   120    1
    18   152   151    2
    19   165   166   ar
    20   165   167   ar
    21   151   150    1
    22   166   168   ar
    23    24    22   ar
    24    24    25   ar
    25   176   178   am
    26   176   177    2
    27   149   150    1
    28   115   113    1
    29   167   169   ar
    30   145   144    2
    31    22    20   ar
    32    25    23   ar
    33   150   153    1
    34   144   143    1
    35    95    94   ar
    36   168   169   ar
    37   122   123    1
    38   125   124    2
    39   126   127    1
    40   126   123    1
    41    96    94   ar
    42    15    16    1
    43    20    21   ar
    44    20    19    1
    45    94    93    1
    46    23    21   ar
    47   113   114    1
    48   113   110    1
    49   112   111    2
    50   153   154    1
    51   123   124    1
    52   131   130    2
    53   124   128   am
    54   138   137    2
    55   147   146    1
    56   143   142    1
    57   143   146    1
    58   135   136    1
    59   135   141    1
    60   156   154   ar
    61   156   158   ar
    62    19    16    1
    63   137   142   am
    64   137   136    1
    65   110   111    1
    66   110   109    1
    67   154   155   ar
    68   136   139    1
    69    18    17    2
    70   146   148    1
    71   130   129    1
    72    16    17    1
    73   158   159   ar
    74    93    92    1
    75   155   157   ar
    76   128   129    1
    77   128   134    1
    78    17    26   am
    79   141   140    1
    80   159   157   ar
    81   129   132    1
    82   109   107   am
    83    92    89    1
    84   139   140    1
    85   134   133    1
    86   108   107    2
    87    26    27    1
    88   107   106    1
    89    91    90    2
    90   132   133    1
    91    89    90    1
    92    89    88    1
    93    27    30    1
    94    27    28    1
    95    30    31    1
    96    44    42    1
    97    90    97   am
    98   106   105    1
    99    88    83   am
   100    32    31   ar
   101    32    34   ar
   102    28    29    2
   103    80    79    2
   104    31    33   ar
   105    43    42    1
   106    43    45    1
   107    42    39    1
   108   105    99   am
   109   100    99    2
   110    83    84    2
   111    83    82    1
   112    97    98    1
   113    99    98    1
   114    79    78    1
   115    79    81   am
   116    78    77    1
   117    34    36   ar
   118    98   101    1
   119    33    35   ar
   120    81    82    1
   121    82    85    1
   122    39    38    1
   123    39    40    1
   124    77    70   am
   125    36    35   ar
   126    36    37    1
   127    41    40    2
   128    40    46   am
   129     6     5    1
   130   101   102    1
   131    85    86    1
   132    85    87    1
   133    70    71    2
   134    70    69    1
   135     7     5    1
   136    14    12    1
   137    46    47    1
   138   104   102    1
   139   102   103    1
   140     5     2    1
   141    13    12    1
   142    69    72    1
   143    69    68    1
   144    75    74    2
   145    72    73    1
   146    58    57    1
   147    12     9    1
   148    63    62    2
   149    47    48    1
   150    47    50    1
   151    73    74    1
   152     2     3    1
   153     2     1    1
   154    74    76   am
   155    57    59    1
   156    57    56    1
   157    48    49    2
   158    48    52   am
   159    68    62   am
   160    62    61    1
   161     3     4    2
   162    50    51    1
   163    52    53    1
   164    10     9    1
   165    10    11    2
   166     9     8    1
   167    56    53    1
   168    53    54    1
   169    61    64    1
   170    61    60    1
   171    64    65    1
   172    54    55    2
   173    67    65    1
   174    65    66    1
