@<TRIPOS>MOLECULE
tmp/4f10B00.pdb
 117 112 0 0 0
SMALL
GASTEIGER

@<TRIPOS>ATOM
      1  N        -17.7890  -26.1540   12.4390 N.3    72  ARG72      -0.1245
      2  CA       -17.3430  -25.3400   13.5570 C.3    72  ARG72       0.1563
      3  C        -16.2880  -24.3480   13.1090 C.2    72  ARG72       0.2260
      4  O        -16.3160  -23.1880   13.4950 O.2    72  ARG72      -0.2867
      5  CB       -16.7730  -26.2190   14.6690 C.3    72  ARG72       0.0307
      6  CG       -17.5940  -26.2210   15.9450 C.3    72  ARG72       0.0489
      7  CD       -18.8140  -27.1090   15.8150 C.3    72  ARG72       0.2205
      8  NE       -19.0910  -27.8400   17.0430 N.pl3  72  ARG72      -0.0865
      9  CZ       -20.2140  -28.5040   17.2810 C.cat  72  ARG72       0.5346
     10  NH1      -21.1790  -28.5250   16.3750 N.pl3  72  ARG72       0.1354
     11  NH2      -20.3730  -29.1450   18.4240 N.pl3  72  ARG72       0.1354
     12  N        -29.4770  -35.0500   11.6360 N.3   118  GLN118     -0.1245
     13  CA       -28.7800  -34.0280   12.3930 C.3   118  GLN118      0.1566
     14  C        -28.4000  -32.8560   11.4930 C.2   118  GLN118      0.2260
     15  O        -28.3400  -31.7220   11.9470 O.2   118  GLN118     -0.2867
     16  CB       -27.5480  -34.6260   13.0790 C.3   118  GLN118      0.0367
     17  CG       -26.8180  -33.6800   14.0210 C.3   118  GLN118      0.0905
     18  CD       -27.7050  -33.1220   15.1180 C.2   118  GLN118      0.2608
     19  OE1      -28.6200  -33.7860   15.5890 O.2   118  GLN118     -0.2717
     20  NE2      -27.4340  -31.8980   15.5290 N.am  118  GLN118     -0.0878
     21  N        -27.6000  -23.3930   12.0650 N.3   125  TRP125     -0.1241
     22  CA       -26.5150  -22.7870   12.8150 C.3   125  TRP125      0.1605
     23  C        -25.4780  -22.1590   11.8980 C.2   125  TRP125      0.2264
     24  O        -25.0360  -21.0490   12.1370 O.2   125  TRP125     -0.2867
     25  CB       -25.8090  -23.8170   13.7070 C.3   125  TRP125      0.0550
     26  CG       -26.6470  -24.4100   14.8150 C.ar  125  TRP125      0.0003
     27  CD1      -27.6160  -23.7880   15.5160 C.ar  125  TRP125      0.0946
     28  CD2      -26.5780  -25.7540   15.3270 C.ar  125  TRP125      0.0152
     29  NE1      -28.1640  -24.6470   16.4380 N.ar  125  TRP125     -0.2442
     30  CE2      -27.5490  -25.8550   16.3400 C.ar  125  TRP125      0.0810
     31  CE3      -25.8020  -26.8690   15.0230 C.ar  125  TRP125      0.0012
     32  CZ2      -27.7490  -27.0370   17.0550 C.ar  125  TRP125      0.0191
     33  CZ3      -26.0090  -28.0310   15.7290 C.ar  125  TRP125      0.0001
     34  CH2      -26.9710  -28.1070   16.7320 C.ar  125  TRP125      0.0015
     35  N        -36.8140  -24.8530   20.9610 N.3   175  ASN175     -0.1240
     36  CA       -35.6960  -23.9660   20.6790 C.3   175  ASN175      0.1653
     37  C        -35.2220  -24.0560   19.2220 C.2   175  ASN175      0.2266
     38  O        -34.7640  -23.0720   18.6670 O.2   175  ASN175     -0.2867
     39  CB       -34.5340  -24.2110   21.6460 C.3   175  ASN175      0.1155
     40  CG       -33.7320  -25.4350   21.2960 C.2   175  ASN175      0.2627
     41  OD1      -34.0170  -26.5270   21.7760 O.2   175  ASN175     -0.2716
     42  ND2      -32.7160  -25.2640   20.4700 N.am  175  ASN175     -0.0877
     43  N        -30.2800  -25.9810   30.8340 N.3   229  HIS229     -0.1226
     44  CA       -29.4460  -25.7040   29.6770 C.3   229  HIS229      0.1752
     45  C        -30.2640  -25.2140   28.4850 C.2   229  HIS229      0.2596
     46  O        -29.9240  -24.2070   27.8760 O.2   229  HIS229     -0.2718
     47  CB       -28.6500  -26.9450   29.2700 C.3   229  HIS229      0.0759
     48  CG       -27.8050  -26.7410   28.0590 C.ar  229  HIS229      0.0818
     49  ND1      -26.5490  -26.1630   28.1120 N.ar  229  HIS229     -0.2268
     50  CD2      -28.0330  -27.0010   26.7490 C.ar  229  HIS229      0.1154
     51  CE1      -26.0410  -26.1030   26.9010 C.ar  229  HIS229      0.1986
     52  NE2      -26.9230  -26.6020   26.0450 N.ar  229  HIS229     -0.2212
     53  N        -31.3360  -25.9260   28.1500 N.am  230  TYR230     -0.1976
     54  CA       -32.1160  -25.6080   26.9570 C.3   230  TYR230      0.1639
     55  C        -33.0310  -24.3980   27.1390 C.2   230  TYR230      0.2290
     56  O        -33.3980  -23.7430   26.1700 O.2   230  TYR230     -0.2864
     57  CB       -32.8960  -26.8230   26.4440 C.3   230  TYR230      0.0560
     58  CG       -32.0430  -27.7820   25.6230 C.ar  230  TYR230     -0.0198
     59  CD1      -31.7720  -29.0680   26.0670 C.ar  230  TYR230     -0.0009
     60  CD2      -31.4910  -27.3910   24.4110 C.ar  230  TYR230     -0.0009
     61  CE1      -30.9820  -29.9320   25.3210 C.ar  230  TYR230      0.0417
     62  CE2      -30.7010  -28.2500   23.6650 C.ar  230  TYR230      0.0417
     63  CZ       -30.4480  -29.5200   24.1230 C.ar  230  TYR230      0.1957
     64  OH       -29.6640  -30.3680   23.3740 O.3   230  TYR230     -0.2866
     65  N        -30.5790  -21.8950   26.3430 N.3   233  TYR233     -0.1241
     66  CA       -30.2560  -22.0610   24.9470 C.3   233  TYR233      0.1605
     67  C        -31.2960  -21.3750   24.0610 C.2   233  TYR233      0.2264
     68  O        -30.9600  -20.8110   23.0280 O.2   233  TYR233     -0.2867
     69  CB       -30.1650  -23.5450   24.6250 C.3   233  TYR233      0.0534
     70  CG       -29.3610  -23.8780   23.3940 C.ar  233  TYR233     -0.0201
     71  CD1      -29.9180  -24.5890   22.3490 C.ar  233  TYR233     -0.0009
     72  CD2      -28.0430  -23.4850   23.2730 C.ar  233  TYR233     -0.0009
     73  CE1      -29.1760  -24.8990   21.2230 C.ar  233  TYR233      0.0417
     74  CE2      -27.3040  -23.7890   22.1460 C.ar  233  TYR233      0.0417
     75  CZ       -27.8770  -24.4940   21.1230 C.ar  233  TYR233      0.1957
     76  OH       -27.1420  -24.8020   20.0010 O.3   233  TYR233     -0.2866
     77  N        -23.0820  -26.6580   32.6820 N.3   290  ARG290     -0.1245
     78  CA       -21.8460  -26.3340   31.9940 C.3   290  ARG290      0.1563
     79  C        -21.9300  -25.0050   31.2590 C.2   290  ARG290      0.2260
     80  O        -20.9210  -24.3520   31.0480 O.2   290  ARG290     -0.2867
     81  CB       -21.4740  -27.4510   31.0240 C.3   290  ARG290      0.0307
     82  CG       -22.3320  -27.5200   29.7770 C.3   290  ARG290      0.0489
     83  CD       -22.1470  -28.8450   29.0710 C.3   290  ARG290      0.2205
     84  NE       -22.7330  -28.8400   27.7390 N.pl3 290  ARG290     -0.0865
     85  CZ       -23.9940  -29.1550   27.4740 C.cat 290  ARG290      0.5346
     86  NH1      -24.8140  -29.5020   28.4520 N.pl3 290  ARG290      0.1354
     87  NH2      -24.4340  -29.1290   26.2290 N.pl3 290  ARG290      0.1354
     88  N        -18.5350  -18.6980   28.5610 N.3   296  ARG296     -0.1245
     89  CA       -19.3360  -19.5970   27.7430 C.3   296  ARG296      0.1563
     90  C        -20.1170  -18.8340   26.6690 C.2   296  ARG296      0.2260
     91  O        -20.8050  -17.8670   26.9630 O.2   296  ARG296     -0.2867
     92  CB       -20.2970  -20.4210   28.6030 C.3   296  ARG296      0.0307
     93  CG       -19.6600  -21.5510   29.3920 C.3   296  ARG296      0.0489
     94  CD       -19.1810  -22.6840   28.5020 C.3   296  ARG296      0.2205
     95  NE       -20.2680  -23.3310   27.7810 N.pl3 296  ARG296     -0.0865
     96  CZ       -20.2670  -24.6020   27.4020 C.cat 296  ARG296      0.5346
     97  NH1      -21.3030  -25.0960   26.7460 N.pl3 296  ARG296      0.1354
     98  NH2      -19.2320  -25.3810   27.6750 N.pl3 296  ARG296      0.1354
     99  N        -22.7340  -19.5900   25.4530 N.3   298  ASP298     -0.1239
    100  CA       -24.1450  -19.6970   25.8170 C.3   298  ASP298      0.1674
    101  C        -24.7140  -18.4350   26.4840 C.2   298  ASP298      0.2266
    102  O        -25.9260  -18.2720   26.5650 O.2   298  ASP298     -0.2867
    103  CB       -24.3720  -20.8930   26.7350 C.3   298  ASP298      0.1410
    104  CG       -23.8540  -22.1850   26.1500 C.2   298  ASP298      0.3668
    105  OD1      -22.6250  -22.3670   26.1000 O.co2 298  ASP298     -0.2456
    106  OD2      -24.6760  -23.0380   25.7790 O.co2 298  ASP298     -0.2456
    107  N        -22.6040  -18.2730   16.4580 N.3   326  ARG326     -0.1245
    108  CA       -24.0040  -18.5120   16.1360 C.3   326  ARG326      0.1563
    109  C        -24.9270  -17.3670   16.5280 C.2   326  ARG326      0.2260
    110  O        -26.0370  -17.2750   16.0250 O.2   326  ARG326     -0.2867
    111  CB       -24.4660  -19.8370   16.7380 C.3   326  ARG326      0.0307
    112  CG       -23.8980  -21.0470   16.0080 C.3   326  ARG326      0.0489
    113  CD       -23.8310  -22.3060   16.8470 C.3   326  ARG326      0.2205
    114  NE       -23.1280  -23.3460   16.1130 N.pl3 326  ARG326     -0.0865
    115  CZ       -23.1970  -24.6440   16.3870 C.cat 326  ARG326      0.5346
    116  NH1      -23.9460  -25.0940   17.3770 N.pl3 326  ARG326      0.1354
    117  NH2      -22.5200  -25.5080   15.6560 N.pl3 326  ARG326      0.1354
@<TRIPOS>BOND
     1    14    15    2
     2    14    13    1
     3    12    13    1
     4    23    24    2
     5    23    22    1
     6    21    22    1
     7    13    16    1
     8     1     2    1
     9    22    25    1
    10    16    17    1
    11     3     4    2
    12     3     2    1
    13     2     5    1
    14    25    26    1
    15    17    18    1
    16     5     6    1
    17    26    28   ar
    18    26    27   ar
    19    31    28   ar
    20    31    33   ar
    21    18    20   am
    22    18    19    2
    23    28    30   ar
    24    27    29   ar
    25   117   115    1
    26    33    34   ar
    27     7     6    1
    28     7     8    1
    29   112   111    1
    30   112   113    1
    31   110   109    2
    32   114   115    2
    33   114   113    1
    34   108   107    1
    35   108   109    1
    36   108   111    1
    37    30    29   ar
    38    30    32   ar
    39    10     9    1
    40   115   116    1
    41    34    32   ar
    42     8     9    2
    43     9    11    1
    44    38    37    2
    45    37    36    1
    46    76    75    1
    47    42    40   am
    48    36    35    1
    49    36    39    1
    50    75    73   ar
    51    75    74   ar
    52    73    71   ar
    53    40    39    1
    54    40    41    2
    55    74    72   ar
    56    71    70   ar
    57    68    67    2
    58    72    70   ar
    59    64    63    1
    60    70    69    1
    61    62    63   ar
    62    62    60   ar
    63    67    66    1
    64    63    61   ar
    65    60    58   ar
    66    69    66    1
    67    66    65    1
    68    61    59   ar
    69    99   100    1
    70    58    59   ar
    71    58    57    1
    72   106   104   ar
    73   100   101    1
    74   100   103    1
    75    52    50   ar
    76    52    51   ar
    77   105   104   ar
    78   104   103    1
    79    56    55    2
    80    87    85    1
    81    57    54    1
    82   101   102    2
    83    90    91    2
    84    90    89    1
    85    97    96    1
    86    50    48   ar
    87    51    49   ar
    88    54    55    1
    89    54    53    1
    90    96    98    1
    91    96    95    2
    92    85    84    2
    93    85    86    1
    94    84    83    1
    95    89    88    1
    96    89    92    1
    97    95    94    1
    98    46    45    2
    99    48    49   ar
   100    48    47    1
   101    53    45   am
   102    45    44    1
   103    94    93    1
   104    92    93    1
   105    83    82    1
   106    47    44    1
   107    44    43    1
   108    82    81    1
   109    81    78    1
   110    80    79    2
   111    79    78    1
   112    78    77    1
