@<TRIPOS>MOLECULE
tmp/4f10A00.pdb
 259 254 0 0 0
SMALL
GASTEIGER

@<TRIPOS>ATOM
      1  N         -2.7970  -15.7800   36.3450 N.3    64  ARG64      -0.1231
      2  CA        -3.8240  -14.8100   36.6790 C.3    64  ARG64       0.1694
      3  C         -3.6320  -13.4630   35.9880 C.2    64  ARG64       0.2592
      4  O         -4.5760  -12.9150   35.4310 O.2    64  ARG64      -0.2718
      5  CB        -3.9310  -14.6100   38.1920 C.3    64  ARG64       0.0321
      6  CG        -4.8150  -13.4390   38.5960 C.3    64  ARG64       0.0489
      7  CD        -5.2080  -13.4550   40.0660 C.3    64  ARG64       0.2205
      8  NE        -6.6050  -13.0680   40.2480 N.pl3  64  ARG64      -0.0865
      9  CZ        -7.0280  -11.8090   40.2990 C.cat  64  ARG64       0.5346
     10  NH1       -6.1640  -10.8210   40.1780 N.pl3  64  ARG64       0.1354
     11  NH2       -8.3090  -11.5330   40.4730 N.pl3  64  ARG64       0.1354
     12  N         -2.4110  -12.9460   36.0010 N.am   65  TYR65      -0.1976
     13  CA        -2.1680  -11.6200   35.4610 C.3    65  TYR65       0.1639
     14  C         -1.6850  -11.6630   34.0230 C.2    65  TYR65       0.2290
     15  O         -0.8270  -12.4560   33.6830 O.2    65  TYR65      -0.2864
     16  CB        -1.1740  -10.8460   36.3240 C.3    65  TYR65       0.0560
     17  CG        -1.7520  -10.4250   37.6520 C.ar   65  TYR65      -0.0198
     18  CD1       -1.3670  -11.0380   38.8300 C.ar   65  TYR65      -0.0009
     19  CD2       -2.7180   -9.4410   37.7230 C.ar   65  TYR65      -0.0009
     20  CE1       -1.9140  -10.6600   40.0370 C.ar   65  TYR65       0.0417
     21  CE2       -3.2670   -9.0600   38.9260 C.ar   65  TYR65       0.0417
     22  CZ        -2.8630   -9.6700   40.0840 C.ar   65  TYR65       0.1957
     23  OH        -3.4210   -9.2830   41.2730 O.3    65  TYR65      -0.2866
     24  N          3.3010   -9.6800   34.3860 N.3    68  GLY68      -0.1210
     25  CA         3.8290   -9.3340   35.6870 C.3    68  GLY68       0.1956
     26  C          2.9770   -9.8650   36.8180 C.2    68  GLY68       0.2611
     27  O          2.3600  -10.9150   36.6930 O.2    68  GLY68      -0.2717
     28  N          2.9270   -9.1160   37.9190 N.am   69  ASN69      -0.1974
     29  CA         2.1480   -9.5100   39.0890 C.3    69  ASN69       0.1688
     30  C          1.0790   -8.4970   39.5000 C.2    69  ASN69       0.2292
     31  O          0.7080   -8.4150   40.6640 O.2    69  ASN69      -0.2864
     32  CB         3.0610   -9.8160   40.2760 C.3    69  ASN69       0.1181
     33  CG         3.8520   -8.6050   40.7390 C.2    69  ASN69       0.2629
     34  OD1        3.5600   -7.4780   40.3670 O.2    69  ASN69      -0.2716
     35  ND2        4.8560   -8.8360   41.5640 N.am   69  ASN69      -0.0877
     36  N         -8.1540  -16.9200   32.4710 N.3    77  TYR77      -0.1241
     37  CA        -7.9970  -17.4030   33.8340 C.3    77  TYR77       0.1605
     38  C         -9.3070  -17.9130   34.4500 C.2    77  TYR77       0.2264
     39  O         -9.4360  -19.0900   34.7480 O.2    77  TYR77      -0.2867
     40  CB        -7.3900  -16.3070   34.6960 C.3    77  TYR77       0.0534
     41  CG        -7.1770  -16.6650   36.1530 C.ar   77  TYR77      -0.0201
     42  CD1       -6.2260  -17.5940   36.5370 C.ar   77  TYR77      -0.0009
     43  CD2       -7.9170  -16.0520   37.1440 C.ar   77  TYR77      -0.0009
     44  CE1       -6.0300  -17.9110   37.8700 C.ar   77  TYR77       0.0417
     45  CE2       -7.7210  -16.3580   38.4740 C.ar   77  TYR77       0.0417
     46  CZ        -6.7830  -17.2860   38.8410 C.ar   77  TYR77       0.1957
     47  OH        -6.6240  -17.5690   40.1770 O.3    77  TYR77      -0.2866
     48  N        -13.2510  -23.0450   42.2990 N.3    85  ARG85      -0.1245
     49  CA       -14.1090  -22.1900   43.0770 C.3    85  ARG85       0.1563
     50  C        -15.4360  -22.8610   43.4760 C.2    85  ARG85       0.2260
     51  O        -15.8970  -22.6490   44.5840 O.2    85  ARG85      -0.2867
     52  CB       -14.2880  -20.8340   42.4030 C.3    85  ARG85       0.0307
     53  CG       -13.0110  -20.0100   42.4660 C.3    85  ARG85       0.0489
     54  CD       -13.0160  -18.8140   41.5390 C.3    85  ARG85       0.2205
     55  NE       -11.7320  -18.1270   41.5360 N.pl3  85  ARG85      -0.0865
     56  CZ       -11.5500  -16.8790   41.1250 C.cat  85  ARG85       0.5346
     57  NH1      -12.5660  -16.1710   40.6790 N.pl3  85  ARG85       0.1354
     58  NH2      -10.3450  -16.3440   41.1490 N.pl3  85  ARG85       0.1354
     59  N          0.4960  -21.2690   37.7130 N.3   131  GLN131     -0.1245
     60  CA        -0.5850  -20.7610   38.5240 C.3   131  GLN131      0.1566
     61  C         -1.1750  -21.8780   39.3840 C.2   131  GLN131      0.2260
     62  O         -1.6420  -21.6330   40.4860 O.2   131  GLN131     -0.2867
     63  CB        -1.6610  -20.1210   37.6360 C.3   131  GLN131      0.0367
     64  CG        -2.7940  -19.4310   38.3810 C.3   131  GLN131      0.0905
     65  CD        -2.3210  -18.3260   39.3040 C.2   131  GLN131      0.2608
     66  OE1       -1.3770  -17.6090   39.0000 O.2   131  GLN131     -0.2717
     67  NE2       -2.9820  -18.1830   40.4380 N.am  131  GLN131     -0.0878
     68  N         -0.4650  -22.0920   43.1990 N.3   134  TYR134     -0.1227
     69  CA        -1.2880  -21.2860   44.0850 C.3   134  TYR134      0.1736
     70  C         -2.6830  -21.8790   44.2750 C.2   134  TYR134      0.2595
     71  O         -3.1930  -21.8840   45.3840 O.2   134  TYR134     -0.2718
     72  CB        -1.3800  -19.8490   43.5790 C.3   134  TYR134      0.0548
     73  CG        -0.0260  -19.1760   43.4850 C.ar  134  TYR134     -0.0200
     74  CD1        0.6100  -18.6850   44.6150 C.ar  134  TYR134     -0.0009
     75  CD2        0.6300  -19.0500   42.2730 C.ar  134  TYR134     -0.0009
     76  CE1        1.8530  -18.0830   44.5330 C.ar  134  TYR134      0.0417
     77  CE2        1.8700  -18.4510   42.1870 C.ar  134  TYR134      0.0417
     78  CZ         2.4810  -17.9680   43.3160 C.ar  134  TYR134      0.1957
     79  OH         3.7140  -17.3720   43.2300 O.3   134  TYR134     -0.2866
     80  N         -3.2860  -22.3670   43.1930 N.am  135  GLN135     -0.1979
     81  CA        -4.6220  -22.9380   43.2790 C.3   135  GLN135      0.1601
     82  C         -4.6670  -24.0760   44.2960 C.2   135  GLN135      0.2287
     83  O         -5.6560  -24.2480   44.9910 O.2   135  GLN135     -0.2864
     84  CB        -5.1330  -23.4040   41.9220 C.3   135  GLN135      0.0394
     85  CG        -6.6040  -23.8080   41.9290 C.3   135  GLN135      0.0908
     86  CD        -7.5070  -22.7080   42.4430 C.2   135  GLN135      0.2608
     87  OE1       -7.6500  -21.6700   41.8070 O.2   135  GLN135     -0.2717
     88  NE2       -8.1190  -22.9240   43.5850 N.am  135  GLN135     -0.0878
     89  N         -2.8610  -24.4640   47.1030 N.3   137  GLU137     -0.1231
     90  CA        -2.8730  -23.9760   48.4660 C.3   137  GLU137      0.1699
     91  C         -4.2730  -23.5300   48.8940 C.2   137  GLU137      0.2592
     92  O         -4.6810  -23.7860   50.0110 O.2   137  GLU137     -0.2718
     93  CB        -1.8390  -22.8610   48.6810 C.3   137  GLU137      0.0402
     94  CG        -2.2620  -21.4600   48.2570 C.3   137  GLU137      0.1161
     95  CD        -1.0800  -20.5790   47.9240 C.2   137  GLU137      0.3649
     96  OE1        0.0470  -21.0890   47.9140 O.co2 137  GLU137     -0.2457
     97  OE2       -1.2680  -19.3760   47.6680 O.co2 137  GLU137     -0.2457
     98  N         -4.9990  -22.8900   47.9850 N.am  138  TRP138     -0.1976
     99  CA        -6.3280  -22.3630   48.2770 C.3   138  TRP138      0.1640
    100  C         -7.3650  -23.4660   48.4360 C.2   138  TRP138      0.2290
    101  O         -8.1490  -23.4500   49.3720 O.2   138  TRP138     -0.2864
    102  CB        -6.8000  -21.3870   47.1910 C.3   138  TRP138      0.0576
    103  CG        -5.9860  -20.1350   47.0490 C.ar  138  TRP138      0.0006
    104  CD1       -5.3600  -19.4480   48.0370 C.ar  138  TRP138      0.0946
    105  CD2       -5.6990  -19.4300   45.8280 C.ar  138  TRP138      0.0152
    106  NE1       -4.7100  -18.3560   47.5190 N.ar  138  TRP138     -0.2442
    107  CE2       -4.8930  -18.3290   46.1720 C.ar  138  TRP138      0.0810
    108  CE3       -6.0350  -19.6320   44.4880 C.ar  138  TRP138      0.0012
    109  CZ2       -4.4300  -17.4230   45.2130 C.ar  138  TRP138      0.0191
    110  CZ3       -5.5630  -18.7300   43.5420 C.ar  138  TRP138      0.0001
    111  CH2       -4.7780  -17.6400   43.9140 C.ar  138  TRP138      0.0015
    112  N          6.2730  -13.8060   50.6580 N.3   187  ASN187     -0.1225
    113  CA         5.1500  -12.8760   50.6160 C.3   187  ASN187      0.1785
    114  C          3.8500  -13.5380   51.0740 C.2   187  ASN187      0.2597
    115  O          3.8890  -14.5570   51.7400 O.2   187  ASN187     -0.2718
    116  CB         4.9860  -12.2990   49.2160 C.3   187  ASN187      0.1169
    117  CG         4.4500  -13.3140   48.2270 C.2   187  ASN187      0.2627
    118  OD1        4.4540  -14.5090   48.4850 O.2   187  ASN187     -0.2716
    119  ND2        3.9940  -12.8330   47.0850 N.am  187  ASN187     -0.0877
    120  N          2.7080  -12.9640   50.7040 N.am  188  ASN188     -0.1960
    121  CA         1.4290  -13.5050   51.1260 C.3   188  ASN188      0.1819
    122  C          1.2370  -14.9750   50.7240 C.2   188  ASN188      0.2621
    123  O          0.6010  -15.7270   51.4430 O.2   188  ASN188     -0.2715
    124  CB         0.2600  -12.6460   50.6370 C.3   188  ASN188      0.1195
    125  CG        -0.0610  -12.8680   49.1780 C.2   188  ASN188      0.2630
    126  OD1        0.4720  -12.1940   48.3050 O.2   188  ASN188     -0.2716
    127  ND2       -0.9390  -13.8110   48.9070 N.am  188  ASN188     -0.0877
    128  N          1.7910  -15.3680   49.5800 N.am  189  ALA189     -0.1977
    129  CA         1.7260  -16.7520   49.1430 C.3   189  ALA189      0.1597
    130  C          2.3410  -17.6850   50.1880 C.2   189  ALA189      0.2287
    131  O          1.7990  -18.7500   50.4600 O.2   189  ALA189     -0.2864
    132  CB         2.4090  -16.9400   47.7840 C.3   189  ALA189      0.0319
    133  N         -0.1580  -18.1230   52.8890 N.3   192  TRP192     -0.1241
    134  CA        -1.2100  -19.0310   52.4480 C.3   192  TRP192      0.1605
    135  C         -0.7670  -20.4950   52.5600 C.2   192  TRP192      0.2264
    136  O         -1.5490  -21.3440   52.9630 O.2   192  TRP192     -0.2867
    137  CB        -1.6880  -18.7050   51.0270 C.3   192  TRP192      0.0550
    138  CG        -2.5590  -17.4720   50.9360 C.ar  192  TRP192      0.0003
    139  CD1       -2.1830  -16.2410   50.5190 C.ar  192  TRP192      0.0946
    140  CD2       -3.9500  -17.3650   51.2800 C.ar  192  TRP192      0.0152
    141  NE1       -3.2390  -15.3710   50.5800 N.ar  192  TRP192     -0.2442
    142  CE2       -4.3360  -16.0370   51.0450 C.ar  192  TRP192      0.0810
    143  CE3       -4.9070  -18.2600   51.7630 C.ar  192  TRP192      0.0012
    144  CZ2       -5.6350  -15.5840   51.2720 C.ar  192  TRP192      0.0191
    145  CZ3       -6.1930  -17.8020   51.9940 C.ar  192  TRP192      0.0001
    146  CH2       -6.5410  -16.4820   51.7480 C.ar  192  TRP192      0.0015
    147  N          3.3530   -4.1320   45.0140 N.3   236  ARG236     -0.1245
    148  CA         2.3630   -4.6210   44.0630 C.3   236  ARG236      0.1563
    149  C          1.6170   -3.4940   43.3510 C.2   236  ARG236      0.2260
    150  O          0.5790   -3.7190   42.7510 O.2   236  ARG236     -0.2867
    151  CB         1.3800   -5.5770   44.7450 C.3   236  ARG236      0.0307
    152  CG         2.0200   -6.7200   45.5380 C.3   236  ARG236      0.0489
    153  CD         2.8410   -7.6730   44.6750 C.3   236  ARG236      0.2205
    154  NE         2.0580   -8.3550   43.6490 N.pl3 236  ARG236     -0.0865
    155  CZ         1.4520   -9.5300   43.8120 C.cat 236  ARG236      0.5346
    156  NH1        1.5220  -10.1640   44.9720 N.pl3 236  ARG236      0.1354
    157  NH2        0.7690  -10.0690   42.8140 N.pl3 236  ARG236      0.1354
    158  N         -4.5520   -3.8240   48.5830 N.3   242  HIS242     -0.1226
    159  CA        -5.2430   -5.0920   48.4390 C.3   242  HIS242      0.1752
    160  C         -4.4520   -6.2540   49.0290 C.2   242  HIS242      0.2596
    161  O         -4.9890   -7.0300   49.8070 O.2   242  HIS242     -0.2718
    162  CB        -5.5460   -5.3780   46.9680 C.3   242  HIS242      0.0759
    163  CG        -6.2170   -6.6850   46.7500 C.ar  242  HIS242      0.0818
    164  ND1       -7.5880   -6.8490   46.8630 N.ar  242  HIS242     -0.2268
    165  CD2       -5.7280   -7.9120   46.4490 C.ar  242  HIS242      0.1154
    166  CE1       -7.9030   -8.1000   46.6280 C.ar  242  HIS242      0.1986
    167  NE2       -6.7880   -8.7780   46.3730 N.ar  242  HIS242     -0.2212
    168  N         -3.1780   -6.3630   48.6680 N.am  243  TYR243     -0.1976
    169  CA        -2.3680   -7.4980   49.0970 C.3   243  TYR243      0.1639
    170  C         -1.9240   -7.3990   50.5540 C.2   243  TYR243      0.2290
    171  O         -1.6400   -8.4060   51.1800 O.2   243  TYR243     -0.2864
    172  CB        -1.1770   -7.7330   48.1640 C.3   243  TYR243      0.0560
    173  CG        -1.5510   -8.4770   46.8890 C.ar  243  TYR243     -0.0198
    174  CD1       -1.4310   -7.8810   45.6440 C.ar  243  TYR243     -0.0009
    175  CD2       -2.0480   -9.7680   46.9380 C.ar  243  TYR243     -0.0009
    176  CE1       -1.7910   -8.5530   44.4870 C.ar  243  TYR243      0.0417
    177  CE2       -2.4020  -10.4450   45.7860 C.ar  243  TYR243      0.0417
    178  CZ        -2.2800   -9.8390   44.5560 C.ar  243  TYR243      0.1957
    179  OH        -2.6350  -10.5150   43.4110 O.3   243  TYR243     -0.2866
    180  N         -4.8750   -8.8350   52.0090 N.3   246  TYR246     -0.1241
    181  CA        -4.8990  -10.2210   51.5990 C.3   246  TYR246      0.1605
    182  C         -3.9900  -11.0820   52.4810 C.2   246  TYR246      0.2264
    183  O         -4.3200  -12.2240   52.7850 O.2   246  TYR246     -0.2867
    184  CB        -4.4820  -10.3190   50.1400 C.3   246  TYR246      0.0534
    185  CG        -4.9420  -11.5630   49.4240 C.ar  246  TYR246     -0.0201
    186  CD1       -4.0300  -12.4220   48.8330 C.ar  246  TYR246     -0.0009
    187  CD2       -6.2780  -11.8770   49.3270 C.ar  246  TYR246     -0.0009
    188  CE1       -4.4480  -13.5590   48.1720 C.ar  246  TYR246      0.0417
    189  CE2       -6.6980  -13.0140   48.6680 C.ar  246  TYR246      0.0417
    190  CZ        -5.7820  -13.8590   48.0900 C.ar  246  TYR246      0.1957
    191  OH        -6.2080  -14.9850   47.4330 O.3   246  TYR246     -0.2866
    192  N        -11.3710   -2.6570   45.7880 N.3   303  ARG303     -0.1245
    193  CA       -12.5170   -3.5230   45.6130 C.3   303  ARG303      0.1563
    194  C        -12.7460   -4.4500   46.8000 C.2   303  ARG303      0.2260
    195  O        -13.8630   -4.8770   47.0390 O.2   303  ARG303     -0.2867
    196  CB       -12.3770   -4.3430   44.3310 C.3   303  ARG303      0.0307
    197  CG       -11.3680   -5.4670   44.4210 C.3   303  ARG303      0.0489
    198  CD       -11.0030   -5.9960   43.0500 C.3   303  ARG303      0.2205
    199  NE       -10.2590   -7.2430   43.1230 N.pl3 303  ARG303     -0.0865
    200  CZ        -8.9360   -7.3220   43.1590 C.cat 303  ARG303      0.5346
    201  NH1       -8.1960   -6.2250   43.1360 N.pl3 303  ARG303      0.1354
    202  NH2       -8.3540   -8.5060   43.2150 N.pl3 303  ARG303      0.1354
    203  N        -19.4220   -7.2100   52.8370 N.3   308  GLY308     -0.1210
    204  CA       -19.7690   -8.4670   52.2120 C.3   308  GLY308      0.1956
    205  C        -18.6320   -9.1150   51.4590 C.2   308  GLY308      0.2612
    206  O        -18.7630  -10.2480   51.0000 O.2   308  GLY308     -0.2717
    207  N        -17.5190   -8.4170   51.3180 N.am  309  ARG309     -0.1965
    208  CA       -16.3860   -9.0020   50.6250 C.3   309  ARG309      0.1729
    209  C        -15.7450  -10.1010   51.4720 C.2   309  ARG309      0.2617
    210  O        -15.5460   -9.9270   52.6630 O.2   309  ARG309     -0.2715
    211  CB       -15.3700   -7.9320   50.2430 C.3   309  ARG309      0.0348
    212  CG       -15.7710   -7.1020   49.0370 C.3   309  ARG309      0.0492
    213  CD       -15.7930   -7.9280   47.7610 C.3   309  ARG309      0.2205
    214  NE       -14.4740   -8.4440   47.4250 N.pl3 309  ARG309     -0.0865
    215  CZ       -13.9930   -8.5690   46.1950 C.cat 309  ARG309      0.5346
    216  NH1      -14.7200   -8.2180   45.1510 N.pl3 309  ARG309      0.1354
    217  NH2      -12.7760   -9.0500   46.0120 N.pl3 309  ARG309      0.1354
    218  N        -15.4560  -11.2380   50.8500 N.am  310  GLY310     -0.1940
    219  CA       -14.7610  -12.3200   51.5170 C.3   310  GLY310      0.2014
    220  C        -13.4590  -11.8510   52.1340 C.2   310  GLY310      0.2638
    221  O        -13.0470  -12.3480   53.1720 O.2   310  GLY310     -0.2714
    222  N        -12.8240  -10.8900   51.4730 N.am  311  ASP311     -0.1971
    223  CA       -11.5250  -10.3620   51.8790 C.3   311  ASP311      0.1709
    224  C        -11.4900   -9.8570   53.3300 C.2   311  ASP311      0.2293
    225  O        -10.4210   -9.7060   53.8990 O.2   311  ASP311     -0.2864
    226  CB       -11.0850   -9.2430   50.9380 C.3   311  ASP311      0.1436
    227  CG       -11.0800   -9.6690   49.4830 C.2   311  ASP311      0.3671
    228  OD1      -12.1740   -9.7980   48.9110 O.co2 311  ASP311     -0.2456
    229  OD2       -9.9940   -9.8480   48.9130 O.co2 311  ASP311     -0.2456
    230  N        -18.4740  -14.2130   53.9860 N.3   336  PHE336     -0.1227
    231  CA       -18.2610  -15.6070   53.6490 C.3   336  PHE336      0.1736
    232  C        -17.0170  -15.7470   52.7870 C.2   336  PHE336      0.2595
    233  O        -16.9200  -15.1190   51.7440 O.2   336  PHE336     -0.2718
    234  CB       -19.4870  -16.1480   52.9100 C.3   336  PHE336      0.0547
    235  CG       -19.3890  -17.6030   52.5350 C.ar  336  PHE336     -0.0202
    236  CD1      -19.0870  -17.9860   51.2410 C.ar  336  PHE336     -0.0042
    237  CD2      -19.6070  -18.5870   53.4740 C.ar  336  PHE336     -0.0042
    238  CE1      -19.0110  -19.3260   50.9020 C.ar  336  PHE336     -0.0003
    239  CE2      -19.5410  -19.9150   53.1320 C.ar  336  PHE336     -0.0003
    240  CZ       -19.2420  -20.2860   51.8460 C.ar  336  PHE336     -0.0000
    241  N        -16.0520  -16.5410   53.2490 N.am  337  ASP337     -0.1974
    242  CA       -14.8540  -16.8330   52.4570 C.3   337  ASP337      0.1709
    243  C        -14.4080  -18.2650   52.6800 C.2   337  ASP337      0.2293
    244  O        -13.8770  -18.5990   53.7260 O.2   337  ASP337     -0.2864
    245  CB       -13.6960  -15.8700   52.7740 C.3   337  ASP337      0.1436
    246  CG       -12.4080  -16.2900   52.0980 C.2   337  ASP337      0.3671
    247  OD1      -11.3320  -16.1340   52.6930 O.co2 337  ASP337     -0.2456
    248  OD2      -12.4780  -16.7740   50.9590 O.co2 337  ASP337     -0.2456
    249  N        -11.9680  -19.9270   51.6870 N.3   339  ARG339     -0.1245
    250  CA       -10.5380  -20.0650   51.8750 C.3   339  ARG339      0.1563
    251  C        -10.0810  -19.7580   53.2970 C.2   339  ARG339      0.2260
    252  O         -8.9850  -20.1500   53.6990 O.2   339  ARG339     -0.2867
    253  CB        -9.7910  -19.2100   50.8450 C.3   339  ARG339      0.0307
    254  CG        -9.8770  -19.7920   49.4490 C.3   339  ARG339      0.0489
    255  CD        -9.5880  -18.7980   48.3350 C.3   339  ARG339      0.2205
    256  NE        -9.8210  -19.4210   47.0440 N.pl3 339  ARG339     -0.0865
    257  CZ        -9.3980  -18.9380   45.8810 C.cat 339  ARG339      0.5346
    258  NH1       -8.6910  -17.8220   45.8300 N.pl3 339  ARG339      0.1354
    259  NH2       -9.6620  -19.5830   44.7590 N.pl3 339  ARG339      0.1354
@<TRIPOS>BOND
     1    36    37    1
     2    15    14    2
     3    37    38    1
     4    37    40    1
     5    14    13    1
     6    24    25    1
     7    38    39    2
     8    40    41    1
     9     4     3    2
    10    13    12    1
    11    13    16    1
    12    25    26    1
    13     3    12   am
    14     3     2    1
    15    41    42   ar
    16    41    43   ar
    17    16    17    1
    18     1     2    1
    19    42    44   ar
    20     2     5    1
    21    27    26    2
    22    26    28   am
    23    43    45   ar
    24    63    64    1
    25    63    60    1
    26    17    19   ar
    27    17    18   ar
    28    59    60    1
    29    19    21   ar
    30    44    46   ar
    31    28    29    1
    32     5     6    1
    33    64    65    1
    34    45    46   ar
    35    60    61    1
    36     6     7    1
    37    18    20   ar
    38    46    47    1
    39    21    22   ar
    40    66    65    2
    41    29    30    1
    42    29    32    1
    43    65    67   am
    44    61    62    2
    45    30    31    2
    46    20    22   ar
    47     7     8    1
    48    22    23    1
    49    10     9    1
    50     8     9    2
    51    32    33    1
    52     9    11    1
    53    34    33    2
    54    57    56    1
    55    33    35   am
    56    56    58    1
    57    56    55    2
    58    55    54    1
    59    54    53    1
    60    87    86    2
    61    84    85    1
    62    84    81    1
    63    85    86    1
    64    77    75   ar
    65    77    78   ar
    66    75    73   ar
    67    48    49    1
    68    52    53    1
    69    52    49    1
    70    86    88   am
    71   150   149    2
    72   157   155    1
    73   198   199    1
    74   198   197    1
    75    49    50    1
    76   199   200    2
    77   201   200    1
    78   200   202    1
    79    80    81    1
    80    80    70   am
    81    68    69    1
    82    79    78    1
    83    81    82    1
    84    78    76   ar
    85   149   148    1
    86   179   178    1
    87    50    51    2
    88    73    72    1
    89    73    74   ar
    90   110   111   ar
    91   110   108   ar
    92    72    69    1
    93   154   155    2
    94   154   153    1
    95   155   156    1
    96   111   109   ar
    97   148   151    1
    98   148   147    1
    99    69    70    1
   100    70    71    2
   101    82    83    2
   102   196   197    1
   103   196   193    1
   104   176   178   ar
   105   176   174   ar
   106   108   105   ar
   107    76    74   ar
   108   178   177   ar
   109   153   152    1
   110   151   152    1
   111   259   257    1
   112   216   215    1
   113   109   107   ar
   114   193   192    1
   115   193   194    1
   116   174   173   ar
   117   177   175   ar
   118   105   107   ar
   119   105   103   ar
   120   258   257    1
   121   257   256    2
   122   217   215    1
   123   107   106   ar
   124   215   214    2
   125   167   165   ar
   126   167   166   ar
   127   165   163   ar
   128   166   164   ar
   129   163   164   ar
   130   163   162    1
   131   194   195    2
   132   173   175   ar
   133   173   172    1
   134   162   159    1
   135   256   255    1
   136   103   102    1
   137   103   104   ar
   138   119   117   am
   139    89    90    1
   140   102    99    1
   141   214   213    1
   142   191   190    1
   143   106   104   ar
   144    97    95   ar
   145   213   212    1
   146   132   129    1
   147    96    95   ar
   148    95    94    1
   149    98    99    1
   150    98    91   am
   151   190   188   ar
   152   190   189   ar
   153   172   169    1
   154   188   186   ar
   155   117   118    2
   156   117   116    1
   157    94    93    1
   158    99   100    1
   159   126   125    2
   160   255   254    1
   161   100   101    2
   162   159   158    1
   163   159   160    1
   164    90    93    1
   165    90    91    1
   166   168   160   am
   167   168   169    1
   168   189   187   ar
   169   186   185   ar
   170    91    92    2
   171   127   125   am
   172   228   227   ar
   173   229   227   ar
   174   160   161    2
   175   212   211    1
   176   169   170    1
   177   129   128    1
   178   129   130    1
   179   125   124    1
   180   116   113    1
   181   187   185   ar
   182   185   184    1
   183   254   253    1
   184   227   226    1
   185   128   122   am
   186   184   181    1
   187   130   131    2
   188   211   208    1
   189   139   141   ar
   190   139   138   ar
   191   170   171    2
   192   141   142   ar
   193   113   112    1
   194   113   114    1
   195   208   207    1
   196   208   209    1
   197   124   121    1
   198   120   114   am
   199   120   121    1
   200   122   121    1
   201   122   123    2
   202   253   250    1
   203   218   209   am
   204   218   219    1
   205   238   236   ar
   206   238   240   ar
   207   138   137    1
   208   138   140   ar
   209   226   223    1
   210   248   246   ar
   211   206   205    2
   212   137   134    1
   213   142   144   ar
   214   142   140   ar
   215   114   115    2
   216   236   235   ar
   217   144   146   ar
   218   140   143   ar
   219   207   205   am
   220   205   204    1
   221   209   210    2
   222   222   223    1
   223   222   220   am
   224   219   220    1
   225   181   180    1
   226   181   182    1
   227   249   250    1
   228   233   232    2
   229   146   145   ar
   230   143   145   ar
   231   240   239   ar
   232   250   251    1
   233   223   224    1
   234   246   247   ar
   235   246   245    1
   236   220   221    2
   237   204   203    1
   238   134   135    1
   239   134   133    1
   240   242   243    1
   241   242   245    1
   242   242   241    1
   243   182   183    2
   244   235   234    1
   245   235   237   ar
   246   135   136    2
   247   243   244    2
   248   232   241   am
   249   232   231    1
   250   234   231    1
   251   239   237   ar
   252   251   252    2
   253   224   225    2
   254   231   230    1
