@<TRIPOS>MOLECULE
tmp/4f1mA00.pdb
 187 178 0 0 0
SMALL
GASTEIGER

@<TRIPOS>ATOM
      1  N         22.8390   -2.6760  -14.8280 N.3    18  ILE18      -0.1231
      2  CA        22.4210   -2.8540  -16.2230 C.3    18  ILE18       0.1696
      3  C         21.6060   -1.6850  -16.7800 C.2    18  ILE18       0.2632
      4  O         21.4840   -1.5360  -17.9990 O.2    18  ILE18      -0.2714
      5  CB        21.6420   -4.1790  -16.4400 C.3    18  ILE18       0.0266
      6  CG1       20.5810   -4.3780  -15.3480 C.3    18  ILE18       0.0019
      7  CG2       22.6100   -5.3570  -16.5080 C.3    18  ILE18       0.0020
      8  CD1       19.4500   -5.3060  -15.7420 C.3    18  ILE18       0.0001
      9  N         21.0500   -0.8640  -15.8920 N.am   19  GLY19      -0.1718
     10  CA        20.2320    0.2680  -16.3150 C.2    19  GLY19       0.1480
     11  C         19.8950    1.2680  -15.2290 C.2    19  GLY19       0.2820
     12  O         20.3460    1.1490  -14.0870 O.2    19  GLY19      -0.2669
     13  N         19.0910    2.2600  -15.6030 N.am   20  LYS20      -0.1929
     14  CA        18.6610    3.3150  -14.6960 C.3    20  LYS20       0.1731
     15  C         17.1630    3.5570  -14.8760 C.2    20  LYS20       0.2617
     16  O         16.7140    3.9640  -15.9510 O.2    20  LYS20      -0.2715
     17  CB        19.4570    4.5940  -14.9620 C.3    20  LYS20       0.0312
     18  CG        19.4720    5.5790  -13.8070 C.3    20  LYS20       0.0038
     19  CD        20.4070    6.7430  -14.1000 C.3    20  LYS20       0.0206
     20  CE        20.5510    7.6630  -12.8970 C.3    20  LYS20       0.1093
     21  NZ        21.3290    7.0330  -11.7940 N.3    20  LYS20      -0.1314
     22  N         16.3990    3.2930  -13.8180 N.am   21  GLY21      -0.1940
     23  CA        14.9420    3.4060  -13.8570 C.3    21  GLY21       0.2014
     24  C         14.4170    4.7630  -13.4310 C.2    21  GLY21       0.2639
     25  O         15.1900    5.6700  -13.1160 O.2    21  GLY21      -0.2714
     26  N         13.0920    4.8920  -13.4220 N.am   22  GLY22      -0.1939
     27  CA        12.4250    6.1370  -13.0470 C.3    22  GLY22       0.2014
     28  C         12.5600    6.4960  -11.5770 C.2    22  GLY22       0.2638
     29  O         12.6160    7.6770  -11.2260 O.2    22  GLY22      -0.2714
     30  N         12.6160    5.4790  -10.7190 N.am   23  PHE23      -0.1973
     31  CA        12.7100    5.6920   -9.2720 C.3    23  PHE23       0.1639
     32  C         14.0490    5.2710   -8.6510 C.2    23  PHE23       0.2290
     33  O         14.2530    5.4340   -7.4450 O.2    23  PHE23      -0.2864
     34  CB        11.5340    5.0260   -8.5360 C.3    23  PHE23       0.0560
     35  CG        11.2530    3.6110   -8.9720 C.ar   23  PHE23      -0.0200
     36  CD1       10.1530    3.3270   -9.7750 C.ar   23  PHE23      -0.0042
     37  CD2       12.0780    2.5620   -8.5730 C.ar   23  PHE23      -0.0042
     38  CE1        9.8810    2.0220  -10.1800 C.ar   23  PHE23      -0.0003
     39  CE2       11.8160    1.2550   -8.9750 C.ar   23  PHE23      -0.0003
     40  CZ        10.7150    0.9850   -9.7800 C.ar   23  PHE23      -0.0000
     41  N         18.9540   -0.0870  -11.6270 N.3    26  VAL26      -0.1245
     42  CA        18.6550   -1.4670  -12.0070 C.3    26  VAL26       0.1561
     43  C         19.9540   -2.2700  -12.1020 C.2    26  VAL26       0.2260
     44  O         20.8770   -1.8930  -12.8300 O.2    26  VAL26      -0.2867
     45  CB        17.8630   -1.5510  -13.3410 C.3    26  VAL26       0.0252
     46  CG1       17.4280   -2.9840  -13.6170 C.3    26  VAL26       0.0019
     47  CG2       16.6430   -0.6380  -13.3090 C.3    26  VAL26       0.0019
     48  N         16.9530   -9.3760  -12.0290 N.3    39  ALA39      -0.1245
     49  CA        17.0550   -7.9270  -12.1640 C.3    39  ALA39       0.1562
     50  C         16.5780   -7.2650  -10.8750 C.2    39  ALA39       0.2260
     51  O         15.4430   -7.4800  -10.4390 O.2    39  ALA39      -0.2867
     52  CB        16.2440   -7.4400  -13.3560 C.3    39  ALA39       0.0290
     53  N         15.6300   -3.9340   -8.8910 N.3    41  LYS41      -0.1245
     54  CA        15.2010   -2.5460   -9.0430 C.3    41  LYS41       0.1561
     55  C         15.0990   -1.8610   -7.6840 C.2    41  LYS41       0.2260
     56  O         14.2450   -2.2070   -6.8670 O.2    41  LYS41      -0.2867
     57  CB        13.8590   -2.4680   -9.7790 C.3    41  LYS41       0.0271
     58  CG        13.9170   -2.8870  -11.2440 C.3    41  LYS41       0.0035
     59  CD        12.5360   -2.8790  -11.8920 C.3    41  LYS41       0.0206
     60  CE        12.0840   -1.4710  -12.2610 C.3    41  LYS41       0.1093
     61  NZ        10.7490   -1.4730  -12.9230 N.3    41  LYS41      -0.1314
     62  N          4.7530    4.8790   -7.2050 N.3    60  GLU60      -0.1245
     63  CA         5.0650    4.1550   -8.4370 C.3    60  GLU60       0.1567
     64  C          5.6820    2.7890   -8.1280 C.2    60  GLU60       0.2260
     65  O          5.2720    1.7700   -8.6890 O.2    60  GLU60      -0.2867
     66  CB         6.0220    4.9810   -9.2990 C.3    60  GLU60       0.0388
     67  CG         6.1730    4.4990  -10.7310 C.3    60  GLU60       0.1160
     68  CD         7.2980    5.1970  -11.4850 C.2    60  GLU60       0.3649
     69  OE1        7.6970    6.3150  -11.0870 O.co2  60  GLU60      -0.2457
     70  OE2        7.7810    4.6240  -12.4850 O.co2  60  GLU60      -0.2457
     71  N          6.5550  -10.4720  -16.6840 N.3    77  VAL77      -0.1245
     72  CA         7.7880  -10.4630  -15.8910 C.3    77  VAL77       0.1561
     73  C          7.4650  -10.7670  -14.4260 C.2    77  VAL77       0.2260
     74  O          6.6160  -10.1130  -13.8160 O.2    77  VAL77      -0.2867
     75  CB         8.5580   -9.1220  -16.0330 C.3    77  VAL77       0.0252
     76  CG1        9.7870   -9.0930  -15.1320 C.3    77  VAL77       0.0019
     77  CG2        8.9690   -8.8950  -17.4830 C.3    77  VAL77       0.0019
     78  N         13.3490   -9.1750   -9.6590 N.3    91  MET91      -0.1230
     79  CA        12.6060   -9.5820  -10.8510 C.3    91  MET91       0.1702
     80  C         13.3730  -10.6630  -11.5990 C.2    91  MET91       0.2592
     81  O         14.5710  -10.8350  -11.3820 O.2    91  MET91      -0.2718
     82  CB        12.4070   -8.3740  -11.7760 C.3    91  MET91       0.0401
     83  CG        12.1030   -7.0580  -11.0550 C.3    91  MET91       0.0596
     84  SD        10.4070   -6.4530  -11.1930 S.3    91  MET91      -0.1393
     85  CE         9.4440   -7.9220  -10.8560 C.3    91  MET91       0.0692
     86  N         12.6860  -11.3920  -12.4760 N.am   92  GLU92      -0.1966
     87  CA        13.3630  -12.3240  -13.3770 C.3    92  GLU92       0.1733
     88  C         14.0960  -11.5450  -14.4680 C.2    92  GLU92       0.2616
     89  O         13.5360  -10.6190  -15.0620 O.2    92  GLU92      -0.2715
     90  CB        12.3870  -13.3510  -13.9810 C.3    92  GLU92       0.0429
     91  CG        11.2420  -12.7710  -14.8160 C.3    92  GLU92       0.1163
     92  CD        10.4910  -13.8230  -15.6240 C.2    92  GLU92       0.3649
     93  OE1       11.1330  -14.7490  -16.1640 O.co2  92  GLU92      -0.2457
     94  OE2        9.2520  -13.7170  -15.7310 O.co2  92  GLU92      -0.2457
     95  N         15.3540  -11.9060  -14.7090 N.am   93  PHE93      -0.1960
     96  CA        16.1400  -11.2570  -15.7540 C.3    93  PHE93       0.1771
     97  C         15.7340  -11.7830  -17.1260 C.2    93  PHE93       0.2619
     98  O         15.7650  -12.9900  -17.3780 O.2    93  PHE93      -0.2715
     99  CB        17.6430  -11.4440  -15.5190 C.3    93  PHE93       0.0574
    100  CG        18.5080  -10.6720  -16.4790 C.ar   93  PHE93      -0.0200
    101  CD1       18.7960   -9.3290  -16.2520 C.ar   93  PHE93      -0.0042
    102  CD2       19.0370  -11.2870  -17.6110 C.ar   93  PHE93      -0.0042
    103  CE1       19.5930   -8.6100  -17.1400 C.ar   93  PHE93      -0.0003
    104  CE2       19.8360  -10.5750  -18.5040 C.ar   93  PHE93      -0.0003
    105  CZ        20.1120   -9.2340  -18.2690 C.ar   93  PHE93      -0.0000
    106  N         15.3500  -10.8600  -18.0010 N.am   94  VAL94      -0.1977
    107  CA        14.9060  -11.1840  -19.3520 C.3    94  VAL94       0.1596
    108  C         16.0390  -10.8320  -20.3270 C.2    94  VAL94       0.2287
    109  O         16.2910   -9.6550  -20.5910 O.2    94  VAL94      -0.2864
    110  CB        13.5920  -10.4440  -19.7010 C.3    94  VAL94       0.0276
    111  CG1       12.9380  -11.0670  -20.9090 C.3    94  VAL94       0.0022
    112  CG2       12.6270  -10.4810  -18.5160 C.3    94  VAL94       0.0022
    113  N         16.8670   -8.0260  -24.0670 N.3    97  GLY97      -0.1210
    114  CA        16.4730   -6.6180  -24.1520 C.3    97  GLY97       0.1956
    115  C         14.9820   -6.4240  -24.3530 C.2    97  GLY97       0.2611
    116  O         14.1830   -7.2970  -24.0030 O.2    97  GLY97      -0.2717
    117  N         14.6090   -5.2780  -24.9210 N.am   98  ASP98      -0.1973
    118  CA        13.2000   -4.9580  -25.1590 C.3    98  ASP98       0.1709
    119  C         12.8290   -4.9230  -26.6420 C.2    98  ASP98       0.2293
    120  O         13.7000   -4.8340  -27.5110 O.2    98  ASP98      -0.2864
    121  CB        12.7950   -3.6500  -24.4580 C.3    98  ASP98       0.1436
    122  CG        13.6130   -2.4490  -24.9100 C.2    98  ASP98       0.3671
    123  OD1       14.2400   -1.8090  -24.0410 O.co2  98  ASP98      -0.2456
    124  OD2       13.6260   -2.1330  -26.1190 O.co2  98  ASP98      -0.2456
    125  N         14.0060   -1.5920  -28.8550 N.3   101  HIS101     -0.1241
    126  CA        15.3810   -1.5390  -29.3460 C.3   101  HIS101      0.1621
    127  C         15.6700   -2.5860  -30.4200 C.2   101  HIS101      0.2264
    128  O         16.4940   -2.3540  -31.3060 O.2   101  HIS101     -0.2867
    129  CB        16.3770   -1.6450  -28.1890 C.3   101  HIS101      0.0745
    130  CG        16.4590   -0.4050  -27.3530 C.ar  101  HIS101      0.0817
    131  ND1       16.9840    0.7780  -27.8270 N.ar  101  HIS101     -0.2268
    132  CD2       16.0880   -0.1650  -26.0730 C.ar  101  HIS101      0.1154
    133  CE1       16.9280    1.6950  -26.8780 C.ar  101  HIS101      0.1986
    134  NE2       16.3910    1.1480  -25.8020 N.ar  101  HIS101     -0.2212
    135  N          0.4910    1.6860  -19.5970 N.3   140  ASP140     -0.1239
    136  CA         1.8150    1.9950  -20.1460 C.3   140  ASP140      0.1674
    137  C          2.3200    0.9190  -21.1200 C.2   140  ASP140      0.2266
    138  O          3.5250    0.6610  -21.2130 O.2   140  ASP140     -0.2867
    139  CB         2.8450    2.2640  -19.0350 C.3   140  ASP140      0.1410
    140  CG         4.0250    3.1000  -19.5130 C.2   140  ASP140      0.3668
    141  OD1        3.8810    3.8420  -20.5090 O.co2 140  ASP140     -0.2456
    142  OD2        5.1030    3.0170  -18.8890 O.co2 140  ASP140     -0.2456
    143  N          3.6650   -0.3400  -24.2560 N.3   142  ARG142     -0.1245
    144  CA         4.4310    0.1590  -25.3980 C.3   142  ARG142      0.1563
    145  C          5.6720   -0.7100  -25.5900 C.2   142  ARG142      0.2260
    146  O          6.0850   -1.4110  -24.6650 O.2   142  ARG142     -0.2867
    147  CB         4.8140    1.6340  -25.2010 C.3   142  ARG142      0.0307
    148  CG         5.3770    1.9750  -23.8270 C.3   142  ARG142      0.0489
    149  CD         5.3970    3.4790  -23.5900 C.3   142  ARG142      0.2205
    150  NE         5.9520    3.8060  -22.2780 N.pl3 142  ARG142     -0.0865
    151  CZ         7.2350    4.0790  -22.0480 C.cat 142  ARG142      0.5346
    152  NH1        8.1150    4.0760  -23.0420 N.pl3 142  ARG142      0.1354
    153  NH2        7.6390    4.3570  -20.8170 N.pl3 142  ARG142      0.1354
    154  N          8.9190   -0.3520  -25.5470 N.3   144  PRO144     -0.2102
    155  CA         9.9730   -0.4040  -24.5200 C.3   144  PRO144      0.1504
    156  C          9.5980   -1.2310  -23.2840 C.2   144  PRO144      0.2575
    157  O         10.4870   -1.6910  -22.5630 O.2   144  PRO144     -0.2718
    158  CB        10.1610    1.0680  -24.1300 C.3   144  PRO144      0.0282
    159  CG         9.6760    1.8370  -25.2980 C.3   144  PRO144      0.0208
    160  CD         8.5330    1.0410  -25.8460 C.3   144  PRO144      0.0893
    161  N          8.3000   -1.4190  -23.0510 N.am  145  ASN145     -0.1975
    162  CA         7.8150   -2.1750  -21.8920 C.3   145  ASN145      0.1688
    163  C          7.4730   -3.6360  -22.1880 C.2   145  ASN145      0.2292
    164  O          6.8590   -4.3230  -21.3660 O.2   145  ASN145     -0.2864
    165  CB         6.6340   -1.4470  -21.2400 C.3   145  ASN145      0.1181
    166  CG         7.0710   -0.2280  -20.4420 C.2   145  ASN145      0.2629
    167  OD1        8.2390   -0.1030  -20.0630 O.2   145  ASN145     -0.2716
    168  ND2        6.1350    0.6750  -20.1800 N.am  145  ASN145     -0.0877
    169  N          9.5150   -6.9630  -22.8570 N.3   147  PHE147     -0.1241
    170  CA        10.8490   -7.5570  -22.7810 C.3   147  PHE147      0.1605
    171  C         10.9080   -8.8750  -23.5470 C.2   147  PHE147      0.2264
    172  O          9.9310   -9.6280  -23.5840 O.2   147  PHE147     -0.2867
    173  CB        11.2900   -7.7680  -21.3240 C.3   147  PHE147      0.0534
    174  CG        11.4830   -6.4890  -20.5350 C.ar  147  PHE147     -0.0203
    175  CD1       11.4540   -5.2400  -21.1550 C.ar  147  PHE147     -0.0042
    176  CD2       11.7330   -6.5450  -19.1650 C.ar  147  PHE147     -0.0042
    177  CE1       11.6390   -4.0700  -20.4180 C.ar  147  PHE147     -0.0003
    178  CE2       11.9260   -5.3810  -18.4210 C.ar  147  PHE147     -0.0003
    179  CZ        11.8800   -4.1430  -19.0470 C.ar  147  PHE147     -0.0000
    180  N          6.9510   -3.6310  -16.6290 N.3   163  ASP163     -0.1239
    181  CA         6.6710   -2.2800  -16.1550 C.3   163  ASP163      0.1674
    182  C          5.2680   -1.9010  -15.8240 C.2   163  ASP163      0.2266
    183  O          4.6190   -1.1800  -16.4810 O.2   163  ASP163     -0.2867
    184  CB         7.3390   -1.2140  -16.9570 C.3   163  ASP163      0.1410
    185  CG         7.9700   -0.2070  -16.0820 C.2   163  ASP163      0.3668
    186  OD1        7.2470    0.3060  -15.2470 O.co2 163  ASP163     -0.2456
    187  OD2        9.1760    0.0150  -16.1760 O.co2 163  ASP163     -0.2456
@<TRIPOS>BOND
     1   128   127    2
     2   127   126    1
     3   126   125    1
     4   126   129    1
     5   129   130    1
     6   131   130   ar
     7   131   133   ar
     8   120   119    2
     9   130   132   ar
    10   133   134   ar
    11   119   118    1
    12   124   122   ar
    13   132   134   ar
    14   160   154    1
    15   160   159    1
    16   145   144    1
    17   145   146    2
    18   154   155    1
    19   144   147    1
    20   144   143    1
    21   159   158    1
    22   147   148    1
    23   118   117    1
    24   118   121    1
    25   117   115   am
    26   122   121    1
    27   122   123   ar
    28   155   158    1
    29   155   156    1
    30   115   114    1
    31   115   116    2
    32   114   113    1
    33   148   149    1
    34   149   150    1
    35   172   171    2
    36   171   170    1
    37   156   161   am
    38   156   157    2
    39   161   162    1
    40   152   151    1
    41   169   170    1
    42   170   173    1
    43   150   151    2
    44   163   162    1
    45   163   164    2
    46   151   153    1
    47   162   165    1
    48   173   174    1
    49   165   166    1
    50   138   137    2
    51   175   174   ar
    52   175   177   ar
    53   137   136    1
    54   111   110    1
    55   109   108    2
    56   174   176   ar
    57   141   140   ar
    58   166   168   am
    59   166   167    2
    60   177   179   ar
    61   108   107    1
    62   136   135    1
    63   136   139    1
    64   110   107    1
    65   110   112    1
    66   140   139    1
    67   140   142   ar
    68   107   106    1
    69   176   178   ar
    70   179   178   ar
    71   104   105   ar
    72   104   102   ar
    73   105   103   ar
    74   106    97   am
    75     4     3    2
    76   102   100   ar
    77    77    75    1
    78    98    97    2
    79   103   101   ar
    80    97    96    1
    81   184   181    1
    82   184   185    1
    83     3     2    1
    84     3     9    1
    85    71    72    1
    86   180   181    1
    87     7     5    1
    88   183   182    2
    89   100   101   ar
    90   100    99    1
    91     5     2    1
    92     5     6    1
    93    10     9    2
    94    10    11    1
    95     2     1    1
    96   187   185   ar
    97    93    92   ar
    98   181   182    1
    99   185   186   ar
   100    75    72    1
   101    75    76    1
   102    16    15    2
   103    72    73    1
   104    96    99    1
   105    96    95    1
   106     8     6    1
   107    94    92   ar
   108    92    91    1
   109    13    11   am
   110    13    14    1
   111    11    12    2
   112    89    88    2
   113    17    14    1
   114    17    18    1
   115    15    14    1
   116    15    22   am
   117    91    90    1
   118    95    88   am
   119    88    87    1
   120    73    74    2
   121    19    18    1
   122    19    20    1
   123    90    87    1
   124    23    22    1
   125    23    24    1
   126    46    45    1
   127    24    26   am
   128    24    25    2
   129    26    27    1
   130    87    86    1
   131    52    49    1
   132    45    47    1
   133    45    42    1
   134    27    28    1
   135    61    60    1
   136    20    21    1
   137    44    43    2
   138    70    68   ar
   139    86    80   am
   140    60    59    1
   141    49    48    1
   142    49    50    1
   143    43    42    1
   144    42    41    1
   145    59    58    1
   146    82    83    1
   147    82    79    1
   148    80    81    2
   149    80    79    1
   150    28    29    2
   151    28    30   am
   152    68    69   ar
   153    68    67    1
   154    58    57    1
   155    84    83    1
   156    84    85    1
   157    50    51    2
   158    79    78    1
   159    67    66    1
   160    30    31    1
   161    38    40   ar
   162    38    36   ar
   163    40    39   ar
   164    57    54    1
   165    36    35   ar
   166    66    63    1
   167    31    32    1
   168    31    34    1
   169    54    53    1
   170    54    55    1
   171    39    37   ar
   172    35    37   ar
   173    35    34    1
   174    65    64    2
   175    32    33    2
   176    63    64    1
   177    63    62    1
   178    55    56    2
