@<TRIPOS>MOLECULE
tmp/4f1qA00.pdb
 93 90 0 0 0
SMALL
GASTEIGER

@<TRIPOS>ATOM
      1  N         30.0560   22.9560  -16.4650 N.3    70  HIS70      -0.1226
      2  CA        30.9080   23.4670  -17.5310 C.3    70  HIS70       0.1752
      3  C         31.3240   24.8890  -17.2170 C.2    70  HIS70       0.2596
      4  O         30.4830   25.7690  -17.0270 O.2    70  HIS70      -0.2718
      5  CB        30.1830   23.4170  -18.8770 C.3    70  HIS70       0.0759
      6  CG        31.0260   23.8600  -20.0260 C.ar   70  HIS70       0.0818
      7  ND1       31.6420   22.9740  -20.8800 N.ar   70  HIS70      -0.2268
      8  CD2       31.3790   25.0970  -20.4440 C.ar   70  HIS70       0.1154
      9  CE1       32.3330   23.6470  -21.7800 C.ar   70  HIS70       0.1986
     10  NE2       32.1930   24.9370  -21.5360 N.ar   70  HIS70      -0.2212
     11  N         32.6380   25.0780  -17.1450 N.am   71  GLY71      -0.1957
     12  CA        33.2570   26.3580  -16.8740 C.3    71  GLY71       0.1869
     13  C         33.6470   27.0740  -18.1500 C.2    71  GLY71       0.2309
     14  O         34.0610   26.4550  -19.1350 O.2    71  GLY71      -0.2863
     15  N         35.1700   28.5410  -26.5570 N.3    91  GLY91      -0.1225
     16  CA        35.4510   28.0650  -25.1990 C.3    91  GLY91       0.1811
     17  C         35.2580   26.5640  -25.0520 C.2    91  GLY91       0.2280
     18  O         35.3770   26.0190  -23.9550 O.2    91  GLY91      -0.2866
     19  N         41.9650   14.8270  -25.1260 N.3    92  ALA92      -0.1245
     20  CA        41.9760   13.7660  -26.1240 C.3    92  ALA92       0.1562
     21  C         40.8100   12.8300  -25.8570 C.2    92  ALA92       0.2260
     22  O         40.9720   11.7810  -25.2230 O.2    92  ALA92      -0.2867
     23  CB        43.2860   13.0100  -26.0830 C.3    92  ALA92       0.0290
     24  N         37.3790   14.1470  -27.6930 N.3    94  GLY94      -0.1225
     25  CA        36.5200   14.5820  -28.7970 C.3    94  GLY94       0.1811
     26  C         36.6330   16.0400  -29.2380 C.2    94  GLY94       0.2280
     27  O         37.3340   16.8560  -28.6300 O.2    94  GLY94      -0.2866
     28  N         32.8920   19.3840  -23.6210 N.3    98  TYR98      -0.1227
     29  CA        33.1740   18.6340  -22.4160 C.3    98  TYR98       0.1736
     30  C         32.2890   19.1170  -21.2750 C.2    98  TYR98       0.2595
     31  O         31.9870   20.3030  -21.1660 O.2    98  TYR98      -0.2718
     32  CB        34.6430   18.7860  -22.0320 C.3    98  TYR98       0.0548
     33  CG        35.5750   18.0220  -22.9400 C.ar   98  TYR98      -0.0200
     34  CD1       36.3090   16.9150  -22.4670 C.ar   98  TYR98      -0.0009
     35  CD2       35.7150   18.3740  -24.2710 C.ar   98  TYR98      -0.0009
     36  CE1       37.1510   16.2010  -23.3040 C.ar   98  TYR98       0.0417
     37  CE2       36.5570   17.6670  -25.1090 C.ar   98  TYR98       0.0417
     38  CZ        37.2640   16.5880  -24.6280 C.ar   98  TYR98       0.1957
     39  OH        38.0900   15.9130  -25.4920 O.3    98  TYR98      -0.2866
     40  N         31.8680   18.1720  -20.4420 N.am   99  PHE99      -0.1962
     41  CA        31.1110   18.4640  -19.2410 C.3    99  PHE99       0.1771
     42  C         31.5980   17.5970  -18.0990 C.2    99  PHE99       0.2619
     43  O         31.8750   16.4260  -18.2920 O.2    99  PHE99      -0.2715
     44  CB        29.6310   18.2060  -19.4750 C.3    99  PHE99       0.0574
     45  CG        29.0500   19.0520  -20.5520 C.ar   99  PHE99      -0.0200
     46  CD1       28.5790   20.3310  -20.2720 C.ar   99  PHE99      -0.0042
     47  CD2       28.9890   18.5900  -21.8590 C.ar   99  PHE99      -0.0042
     48  CE1       28.0380   21.1190  -21.2950 C.ar   99  PHE99      -0.0003
     49  CE2       28.4600   19.3820  -22.8640 C.ar   99  PHE99      -0.0003
     50  CZ        27.9880   20.6310  -22.5840 C.ar   99  PHE99      -0.0000
     51  N         31.6710   18.1810  -16.9100 N.am  100  ALA100     -0.1977
     52  CA        32.2740   17.5450  -15.7530 C.3   100  ALA100      0.1597
     53  C         31.2020   17.0940  -14.7830 C.2   100  ALA100      0.2287
     54  O         30.2270   17.8110  -14.5330 O.2   100  ALA100     -0.2864
     55  CB        33.2170   18.5060  -15.0670 C.3   100  ALA100      0.0319
     56  N         36.4590   20.2740  -11.2860 N.3   105  TYR105     -0.1227
     57  CA        37.1180   20.1610  -12.5380 C.3   105  TYR105      0.1736
     58  C         36.9350   21.4810  -13.2980 C.2   105  TYR105      0.2596
     59  O         37.8900   22.1390  -13.6840 O.2   105  TYR105     -0.2718
     60  CB        36.4820   18.9890  -13.2680 C.3   105  TYR105      0.0548
     61  CG        37.2870   18.5110  -14.4140 C.ar  105  TYR105     -0.0200
     62  CD1       37.8330   17.2520  -14.4170 C.ar  105  TYR105     -0.0009
     63  CD2       37.5210   19.3400  -15.5050 C.ar  105  TYR105     -0.0009
     64  CE1       38.5910   16.8210  -15.4830 C.ar  105  TYR105      0.0417
     65  CE2       38.2800   18.9270  -16.5720 C.ar  105  TYR105      0.0417
     66  CZ        38.8150   17.6690  -16.5670 C.ar  105  TYR105      0.1957
     67  OH        39.5640   17.2720  -17.6580 O.3   105  TYR105     -0.2866
     68  N         35.6770   21.8530  -13.4760 N.am  106  SER106     -0.1952
     69  CA        35.2750   23.0780  -14.1420 C.3   106  SER106      0.1924
     70  C         35.7760   24.3650  -13.4900 C.2   106  SER106      0.2314
     71  O         35.8910   25.4030  -14.1480 O.2   106  SER106     -0.2863
     72  CB        33.7560   23.1100  -14.2100 C.3   106  SER106      0.2116
     73  OG        33.3180   22.0560  -15.0230 O.3   106  SER106     -0.2180
     74  N         39.2640   26.9670  -17.3970 N.3   111  TYR111     -0.1241
     75  CA        37.9190   26.9270  -17.9500 C.3   111  TYR111      0.1605
     76  C         37.1060   28.0720  -17.3580 C.2   111  TYR111      0.2264
     77  O         36.5900   28.9120  -18.1020 O.2   111  TYR111     -0.2867
     78  CB        37.2600   25.5570  -17.7080 C.3   111  TYR111      0.0534
     79  CG        38.1700   24.4230  -18.1220 C.ar  111  TYR111     -0.0201
     80  CD1       38.6920   24.3650  -19.4030 C.ar  111  TYR111     -0.0009
     81  CD2       38.5410   23.4330  -17.2280 C.ar  111  TYR111     -0.0009
     82  CE1       39.5390   23.3440  -19.7870 C.ar  111  TYR111      0.0417
     83  CE2       39.4000   22.4060  -17.6130 C.ar  111  TYR111      0.0417
     84  CZ        39.8880   22.3700  -18.8890 C.ar  111  TYR111      0.1957
     85  OH        40.7370   21.3560  -19.2750 O.3   111  TYR111     -0.2866
     86  N         33.8490   12.7660  -16.7460 N.3   164  LEU164     -0.1245
     87  CA        33.4620   13.7420  -17.7740 C.3   164  LEU164      0.1561
     88  C         32.7120   13.0990  -18.9390 C.2   164  LEU164      0.2260
     89  O         32.8380   11.9050  -19.1740 O.2   164  LEU164     -0.2867
     90  CB        34.6810   14.5290  -18.2870 C.3   164  LEU164      0.0270
     91  CG        35.8350   13.7000  -18.8430 C.3   164  LEU164      0.0019
     92  CD1       35.4420   13.1400  -20.2010 C.3   164  LEU164      0.0001
     93  CD2       37.1310   14.5240  -18.9130 C.3   164  LEU164      0.0001
@<TRIPOS>BOND
     1    26    25    1
     2    26    27    2
     3    25    24    1
     4    15    16    1
     5    20    23    1
     6    20    21    1
     7    20    19    1
     8    21    22    2
     9    39    38    1
    10    16    17    1
    11    37    38   ar
    12    37    35   ar
    13    17    18    2
    14    38    36   ar
    15    35    33   ar
    16    28    29    1
    17    36    34   ar
    18    33    34   ar
    19    33    32    1
    20    49    50   ar
    21    49    47   ar
    22    50    48   ar
    23    29    32    1
    24    29    30    1
    25    47    45   ar
    26     9    10   ar
    27     9     7   ar
    28    10     8   ar
    29    48    46   ar
    30    30    31    2
    31    30    40   am
    32     7     6   ar
    33    45    46   ar
    34    45    44    1
    35     8     6   ar
    36    40    41    1
    37    92    91    1
    38     6     5    1
    39    82    80   ar
    40    82    84   ar
    41    44    41    1
    42    80    79   ar
    43    85    84    1
    44    41    42    1
    45    89    88    2
    46    14    13    2
    47    88    87    1
    48    93    91    1
    49    84    83   ar
    50     5     2    1
    51    91    90    1
    52    43    42    2
    53    90    87    1
    54    13    12    1
    55    79    78    1
    56    79    81   ar
    57    77    76    2
    58    42    51   am
    59    75    78    1
    60    75    74    1
    61    75    76    1
    62    87    86    1
    63    67    66    1
    64    83    81   ar
    65     2     3    1
    66     2     1    1
    67     3    11   am
    68     3     4    2
    69    11    12    1
    70    51    52    1
    71    65    66   ar
    72    65    63   ar
    73    66    64   ar
    74    52    55    1
    75    52    53    1
    76    63    61   ar
    77    64    62   ar
    78    73    72    1
    79    53    54    2
    80    62    61   ar
    81    61    60    1
    82    72    69    1
    83    71    70    2
    84    69    70    1
    85    69    68    1
    86    59    58    2
    87    68    58   am
    88    58    57    1
    89    60    57    1
    90    57    56    1
