@<TRIPOS>MOLECULE
tmp/4f1sA00.pdb
 198 186 0 0 0
SMALL
GASTEIGER

@<TRIPOS>ATOM
      1  N         20.3270   16.2610   12.1220 N.3   562  MET562     -0.1230
      2  CA        20.5940   17.1870   13.2250 C.3   562  MET562      0.1702
      3  C         21.4170   18.3730   12.7640 C.2   562  MET562      0.2592
      4  O         22.2320   18.2470   11.8530 O.2   562  MET562     -0.2718
      5  CB        21.3230   16.4640   14.3650 C.3   562  MET562      0.0401
      6  CG        20.4840   15.3850   15.0370 C.3   562  MET562      0.0596
      7  SD        21.3830   14.3870   16.2410 S.3   562  MET562     -0.1393
      8  CE        21.9360   15.6310   17.4080 C.3   562  MET562      0.0692
      9  N         21.2110   19.5160   13.4180 N.am  563  ALA563     -0.1966
     10  CA        21.8840   20.7720   13.0590 C.3   563  ALA563      0.1728
     11  C         23.3130   20.7770   13.5810 C.2   563  ALA563      0.2616
     12  O         23.6710   21.5810   14.4420 O.2   563  ALA563     -0.2715
     13  CB        21.1140   21.9710   13.6040 C.3   563  ALA563      0.0334
     14  N         24.1280   19.8820   13.0380 N.am  564  SER564     -0.1950
     15  CA        25.4560   19.6570   13.5560 C.3   564  SER564      0.1924
     16  C         26.4620   19.4100   12.4380 C.2   564  SER564      0.2314
     17  O         26.1270   18.9020   11.3610 O.2   564  SER564     -0.2863
     18  CB        25.4280   18.4680   14.5120 C.3   564  SER564      0.2116
     19  OG        26.7070   18.2260   15.0700 O.3   564  SER564     -0.2180
     20  N         28.5720   17.2040   11.7320 N.3   566  LYS566     -0.1245
     21  CA        28.7420   15.8500   11.1670 C.3   566  LYS566      0.1561
     22  C         27.4550   15.2680   10.5600 C.2   566  LYS566      0.2260
     23  O         27.4650   14.1440   10.0480 O.2   566  LYS566     -0.2867
     24  CB        29.2490   14.8860   12.2490 C.3   566  LYS566      0.0271
     25  CG        30.5060   15.3280   12.9890 C.3   566  LYS566      0.0035
     26  CD        31.7560   15.2040   12.1260 C.3   566  LYS566      0.0206
     27  CE        33.0040   15.6210   12.8970 C.3   566  LYS566      0.1093
     28  NZ        34.2560   15.4710   12.1010 N.3   566  LYS566     -0.1314
     29  N         24.4700   14.0110   11.9350 N.3   568  PRO568     -0.2116
     30  CA        23.9200   12.7570   12.4460 C.3   568  PRO568      0.1372
     31  C         22.4180   12.6480   12.2090 C.2   568  PRO568      0.2244
     32  O         21.7360   13.6610   12.1270 O.2   568  PRO568     -0.2868
     33  CB        24.2080   12.8200   13.9500 C.3   568  PRO568      0.0268
     34  CG        25.0860   14.0030   14.1670 C.3   568  PRO568      0.0207
     35  CD        24.8740   14.9210   13.0180 C.3   568  PRO568      0.0892
     36  N         18.7450   11.8390   13.5360 N.3   570  TRP570     -0.1241
     37  CA        17.9450   11.7280   14.7480 C.3   570  TRP570      0.1605
     38  C         16.7670   10.8570   14.4150 C.2   570  TRP570      0.2264
     39  O         15.7700   11.3400   13.8990 O.2   570  TRP570     -0.2867
     40  CB        17.5050   13.1180   15.1850 C.3   570  TRP570      0.0550
     41  CG        16.6410   13.2190   16.4250 C.ar  570  TRP570      0.0003
     42  CD1       15.2930   12.8920   16.5610 C.ar  570  TRP570      0.0946
     43  CD2       17.0290   13.7730   17.7350 C.ar  570  TRP570      0.0152
     44  NE1       14.8490   13.1660   17.8280 N.ar  570  TRP570     -0.2442
     45  CE2       15.8380   13.6940   18.5820 C.ar  570  TRP570      0.0810
     46  CE3       18.2070   14.2910   18.2740 C.ar  570  TRP570      0.0012
     47  CZ2       15.8490   14.1160   19.9010 C.ar  570  TRP570      0.0191
     48  CZ3       18.2020   14.7190   19.6050 C.ar  570  TRP570      0.0001
     49  CH2       17.0500   14.6300   20.3970 C.ar  570  TRP570      0.0015
     50  N         20.2930    8.2070   18.0010 N.3   589  ILE589     -0.1245
     51  CA        21.1020    9.0900   17.1670 C.3   589  ILE589      0.1561
     52  C         22.0880    8.2280   16.4010 C.2   589  ILE589      0.2260
     53  O         22.9610    7.6210   17.0090 O.2   589  ILE589     -0.2867
     54  CB        21.9020   10.0970   18.0170 C.3   589  ILE589      0.0252
     55  CG1       20.9620   11.1290   18.6550 C.3   589  ILE589      0.0019
     56  CG2       22.9730   10.7780   17.1760 C.3   589  ILE589      0.0019
     57  CD1       21.6100   11.9560   19.7440 C.3   589  ILE589      0.0001
     58  N         25.2310    8.0740   13.9980 N.3   591  LYS591     -0.1245
     59  CA        26.3370    8.9690   13.6520 C.3   591  LYS591      0.1561
     60  C         27.3780    8.2720   12.7760 C.2   591  LYS591      0.2260
     61  O         27.9110    7.2350   13.1560 O.2   591  LYS591     -0.2867
     62  CB        27.0060    9.4640   14.9350 C.3   591  LYS591      0.0271
     63  CG        28.0760   10.5220   14.7270 C.3   591  LYS591      0.0035
     64  CD        28.8820   10.7680   15.9980 C.3   591  LYS591      0.0206
     65  CE        29.8160   11.9610   15.8320 C.3   591  LYS591      0.1093
     66  NZ        30.6140   12.2640   17.0490 N.3   591  LYS591     -0.1314
     67  N         33.6210    6.2350   17.7510 N.3   596  LEU596     -0.1245
     68  CA        32.9710    6.2870   19.0770 C.3   596  LEU596      0.1561
     69  C         33.6610    5.4880   20.1740 C.2   596  LEU596      0.2260
     70  O         33.2270    5.5210   21.3200 O.2   596  LEU596     -0.2867
     71  CB        31.5180    5.8180   18.9870 C.3   596  LEU596      0.0270
     72  CG        30.5820    6.7800   18.2660 C.3   596  LEU596      0.0019
     73  CD1       29.2130    6.1470   18.0530 C.3   596  LEU596      0.0001
     74  CD2       30.4850    8.0810   19.0490 C.3   596  LEU596      0.0001
     75  N         34.3230    7.3220   23.3150 N.3   599  ASP599     -0.1239
     76  CA        33.0820    7.6420   24.0250 C.3   599  ASP599      0.1674
     77  C         32.6110    6.4800   24.8820 C.2   599  ASP599      0.2266
     78  O         32.0820    6.6930   25.9720 O.2   599  ASP599     -0.2867
     79  CB        31.9590    8.0290   23.0560 C.3   599  ASP599      0.1410
     80  CG        31.9810    9.5110   22.6780 C.2   599  ASP599      0.3668
     81  OD1       32.7750    9.8830   21.7730 O.co2 599  ASP599     -0.2456
     82  OD2       31.1760   10.2880   23.2690 O.co2 599  ASP599     -0.2456
     83  N         24.4320    7.2240   29.1230 N.3   625  TYR625     -0.1241
     84  CA        23.5150    6.7530   28.0780 C.3   625  TYR625      0.1605
     85  C         24.1630    5.6690   27.1970 C.2   625  TYR625      0.2264
     86  O         25.3830    5.5600   27.1190 O.2   625  TYR625     -0.2867
     87  CB        23.0320    7.9530   27.2240 C.3   625  TYR625      0.0534
     88  CG        24.1570    8.8660   26.8060 C.ar  625  TYR625     -0.0201
     89  CD1       24.9020    8.5920   25.6750 C.ar  625  TYR625     -0.0009
     90  CD2       24.5120    9.9690   27.5720 C.ar  625  TYR625     -0.0009
     91  CE1       25.9560    9.4010   25.3030 C.ar  625  TYR625      0.0417
     92  CE2       25.5690   10.7830   27.2080 C.ar  625  TYR625      0.0417
     93  CZ        26.2870   10.4960   26.0700 C.ar  625  TYR625      0.1957
     94  OH        27.3410   11.2830   25.6740 O.3   625  TYR625     -0.2866
     95  N         23.7830    6.0800   19.4390 N.3   637  ILE637     -0.1231
     96  CA        23.6690    6.6700   20.7750 C.3   637  ILE637      0.1692
     97  C         22.1990    6.6860   21.2160 C.2   637  ILE637      0.2592
     98  O         21.2960    6.8070   20.3910 O.2   637  ILE637     -0.2718
     99  CB        24.2230    8.1010   20.7780 C.3   637  ILE637      0.0266
    100  CG1       25.7240    8.0830   20.4520 C.3   637  ILE637      0.0019
    101  CG2       23.9470    8.7810   22.1130 C.3   637  ILE637      0.0020
    102  CD1       26.2360    9.3710   19.8340 C.3   637  ILE637      0.0001
    103  N         21.9700    6.5510   22.5170 N.am  638  GLU638     -0.1966
    104  CA        20.6340    6.6070   23.0800 C.3   638  GLU638      0.1733
    105  C         20.1910    8.0490   23.2070 C.2   638  GLU638      0.2616
    106  O         20.9650    8.8900   23.6580 O.2   638  GLU638     -0.2715
    107  CB        20.6510    5.9840   24.4660 C.3   638  GLU638      0.0429
    108  CG        19.3140    5.9470   25.1840 C.3   638  GLU638      0.1163
    109  CD        19.4700    5.6330   26.6590 C.2   638  GLU638      0.3649
    110  OE1       18.6530    6.1410   27.4580 O.co2 638  GLU638     -0.2457
    111  OE2       20.4070    4.8910   27.0260 O.co2 638  GLU638     -0.2457
    112  N         18.9500    8.3360   22.8220 N.am  639  ILE639     -0.1963
    113  CA        18.3450    9.6410   23.0880 C.3   639  ILE639      0.1727
    114  C         17.6760    9.6370   24.4590 C.2   639  ILE639      0.2616
    115  O         16.7510    8.8580   24.6960 O.2   639  ILE639     -0.2715
    116  CB        17.2630    9.9970   22.0520 C.3   639  ILE639      0.0290
    117  CG1       17.8660   10.1520   20.6520 C.3   639  ILE639      0.0022
    118  CG2       16.5480   11.2800   22.4610 C.3   639  ILE639      0.0023
    119  CD1       16.8390   10.4840   19.5910 C.3   639  ILE639      0.0001
    120  N         18.1330   10.5050   25.3570 N.am  640  VAL640     -0.1977
    121  CA        17.4980   10.6410   26.6680 C.3   640  VAL640      0.1596
    122  C         16.2270   11.4590   26.5040 C.2   640  VAL640      0.2287
    123  O         16.2660   12.5490   25.9560 O.2   640  VAL640     -0.2864
    124  CB        18.4240   11.3200   27.7040 C.3   640  VAL640      0.0276
    125  CG1       17.6910   11.5330   29.0220 C.3   640  VAL640      0.0022
    126  CG2       19.6780   10.4850   27.9290 C.3   640  VAL640      0.0022
    127  N         14.8060   15.9360   27.4160 N.3   643  ALA643     -0.1245
    128  CA        16.1120   16.5450   27.6960 C.3   643  ALA643      0.1562
    129  C         16.4330   17.7060   26.7480 C.2   643  ALA643      0.2260
    130  O         15.9530   17.7340   25.6160 O.2   643  ALA643     -0.2867
    131  CB        17.2030   15.4870   27.6130 C.3   643  ALA643      0.0290
    132  N         19.8530   20.9800   26.0570 N.3   645  THR645     -0.1218
    133  CA        21.2050   21.4380   26.4190 C.3   645  THR645      0.1862
    134  C         21.1300   22.7030   27.2540 C.2   645  THR645      0.2287
    135  O         20.1770   23.4580   27.1310 O.2   645  THR645     -0.2866
    136  CB        22.1100   21.7160   25.1910 C.3   645  THR645      0.1770
    137  OG1       21.7780   22.9830   24.6180 O.3   645  THR645     -0.2211
    138  CG2       21.9810   20.6260   24.1320 C.3   645  THR645      0.0375
    139  N         20.9410   25.8970   25.0080 N.3   648  LYS648     -0.1245
    140  CA        19.6580   26.1680   24.3510 C.3   648  LYS648      0.1561
    141  C         18.6690   26.8230   25.3160 C.2   648  LYS648      0.2260
    142  O         17.7460   27.5180   24.8930 O.2   648  LYS648     -0.2867
    143  CB        19.0620   24.8810   23.7640 C.3   648  LYS648      0.0271
    144  CG        18.0080   25.1050   22.6850 C.3   648  LYS648      0.0035
    145  CD        17.9150   23.9160   21.7310 C.3   648  LYS648      0.0206
    146  CE        16.8070   24.0830   20.6930 C.3   648  LYS648      0.1093
    147  NZ        16.6400   22.8670   19.8400 N.3   648  LYS648     -0.1314
    148  N         27.3120   23.8330   25.4260 N.3   706  ASP706     -0.1225
    149  CA        26.4360   23.1610   24.4560 C.3   706  ASP706      0.1805
    150  C         26.6620   21.6350   24.4640 C.2   706  ASP706      0.2597
    151  O         25.9960   20.9070   23.7280 O.2   706  ASP706     -0.2718
    152  CB        26.5560   23.7560   23.0320 C.3   706  ASP706      0.1424
    153  CG        27.9550   23.6130   22.4240 C.2   706  ASP706      0.3668
    154  OD1       28.9550   23.8920   23.1250 O.co2 706  ASP706     -0.2456
    155  OD2       28.0510   23.2430   21.2280 O.co2 706  ASP706     -0.2456
    156  N         27.6000   21.1680   25.2950 N.am  707  ASN707     -0.1974
    157  CA        27.7960   19.7420   25.5710 C.3   707  ASN707      0.1688
    158  C         27.3790   19.3120   26.9910 C.2   707  ASN707      0.2292
    159  O         27.7780   18.2440   27.4490 O.2   707  ASN707     -0.2864
    160  CB        29.2640   19.3700   25.3630 C.3   707  ASN707      0.1181
    161  CG        29.6920   19.4100   23.9090 C.2   707  ASN707      0.2629
    162  OD1       30.7700   19.9130   23.5990 O.2   707  ASN707     -0.2716
    163  ND2       28.8740   18.8520   23.0170 N.am  707  ASN707     -0.0877
    164  N         23.7810   18.6780   29.1670 N.3   709  MET709     -0.1245
    165  CA        22.3430   18.5610   28.9910 C.3   709  MET709      0.1570
    166  C         21.6550   18.4540   30.3500 C.2   709  MET709      0.2261
    167  O         22.3190   18.3000   31.3790 O.2   709  MET709     -0.2867
    168  CB        22.0170   17.3460   28.1160 C.3   709  MET709      0.0387
    169  CG        22.4540   17.4840   26.6590 C.3   709  MET709      0.0595
    170  SD        21.5130   16.4690   25.4870 S.3   709  MET709     -0.1393
    171  CE        19.9650   17.3620   25.4680 C.3   709  MET709      0.0692
    172  N         23.5140   16.0220   32.8430 N.3   717  PHE717     -0.1241
    173  CA        24.4750   15.0670   32.2750 C.3   717  PHE717      0.1605
    174  C         25.2910   15.6130   31.1000 C.2   717  PHE717      0.2264
    175  O         24.7380   16.2240   30.1850 O.2   717  PHE717     -0.2867
    176  CB        23.7750   13.7610   31.8620 C.3   717  PHE717      0.0534
    177  CG        22.8100   13.9090   30.7210 C.ar  717  PHE717     -0.0203
    178  CD1       23.1590   13.5090   29.4450 C.ar  717  PHE717     -0.0042
    179  CD2       21.5460   14.4300   30.9250 C.ar  717  PHE717     -0.0042
    180  CE1       22.2710   13.6330   28.3860 C.ar  717  PHE717     -0.0003
    181  CE2       20.6520   14.5580   29.8680 C.ar  717  PHE717     -0.0003
    182  CZ        21.0160   14.1550   28.5960 C.ar  717  PHE717     -0.0000
    183  N         27.6640   15.2930   27.6660 N.3   719  ILE719     -0.1231
    184  CA        27.6690   14.4850   26.4530 C.3   719  ILE719      0.1692
    185  C         28.9440   14.6950   25.6520 C.2   719  ILE719      0.2592
    186  O         29.7610   15.5430   25.9820 O.2   719  ILE719     -0.2718
    187  CB        26.4490   14.7720   25.5560 C.3   719  ILE719      0.0266
    188  CG1       26.3680   16.2660   25.1650 C.3   719  ILE719      0.0019
    189  CG2       25.1800   14.3190   26.2590 C.3   719  ILE719      0.0020
    190  CD1       25.3490   16.5880   24.0800 C.3   719  ILE719      0.0001
    191  N         29.1080   13.8750   24.6210 N.am  720  ASP720     -0.1974
    192  CA        30.1440   14.0370   23.6000 C.3   720  ASP720      0.1709
    193  C         31.5700   14.1910   24.1400 C.2   720  ASP720      0.2293
    194  O         32.1160   15.2900   24.1660 O.2   720  ASP720     -0.2864
    195  CB        29.7790   15.2210   22.7120 C.3   720  ASP720      0.1436
    196  CG        30.5630   15.2490   21.4250 C.2   720  ASP720      0.3671
    197  OD1       31.6450   14.6110   21.3710 O.co2 720  ASP720     -0.2456
    198  OD2       30.0890   15.9230   20.4750 O.co2 720  ASP720     -0.2456
@<TRIPOS>BOND
     1    23    22    2
     2    22    21    1
     3    21    20    1
     4    21    24    1
     5    17    16    2
     6     4     3    2
     7    29    30    1
     8    29    35    1
     9    28    27    1
    10     1     2    1
    11    26    27    1
    12    26    25    1
    13    32    31    2
    14    31    30    1
    15    24    25    1
    16    16    15    1
    17    30    33    1
    18     3     2    1
    19     3     9   am
    20    60    61    2
    21    60    59    1
    22    35    34    1
    23    14    15    1
    24    14    11   am
    25    10     9    1
    26    10    11    1
    27    10    13    1
    28     2     5    1
    29    36    37    1
    30    15    18    1
    31    11    12    2
    32    59    58    1
    33    59    62    1
    34    39    38    2
    35    33    34    1
    36     5     6    1
    37    38    37    1
    38    18    19    1
    39    63    62    1
    40    63    64    1
    41    37    40    1
    42     6     7    1
    43    40    41    1
    44    65    64    1
    45    65    66    1
    46     7     8    1
    47    52    53    2
    48    52    51    1
    49    41    42   ar
    50    41    43   ar
    51    42    44   ar
    52    51    50    1
    53    51    54    1
    54    56    54    1
    55    43    46   ar
    56    43    45   ar
    57    67    68    1
    58    44    45   ar
    59    54    55    1
    60    73    72    1
    61    72    71    1
    62    72    74    1
    63    46    48   ar
    64    45    47   ar
    65    55    57    1
    66    71    68    1
    67    68    69    1
    68    95    96    1
    69   119   117    1
    70    48    49   ar
    71   102   100    1
    72   147   146    1
    73    47    49   ar
    74    69    70    2
    75    98    97    2
    76   100    99    1
    77   198   196   ar
    78   117   116    1
    79   146   145    1
    80    96    99    1
    81    96    97    1
    82    99   101    1
    83    97   103   am
    84   155   153   ar
    85   197   196   ar
    86   196   195    1
    87   145   144    1
    88    81    80   ar
    89   116   118    1
    90   116   113    1
    91   153   152    1
    92   153   154   ar
    93   103   104    1
    94    80    79    1
    95    80    82   ar
    96   144   143    1
    97   195   192    1
    98   112   113    1
    99   112   105   am
   100   163   161   am
   101   152   149    1
   102    79    76    1
   103   104   105    1
   104   104   107    1
   105   113   114    1
   106   105   106    2
   107    75    76    1
   108   162   161    2
   109   192   193    1
   110   192   191    1
   111   151   150    2
   112   143   140    1
   113   161   160    1
   114    76    77    1
   115   190   188    1
   116   138   136    1
   117   193   194    2
   118   140   139    1
   119   140   141    1
   120   149   150    1
   121   149   148    1
   122   114   115    2
   123   114   120   am
   124   150   156   am
   125   107   108    1
   126   137   136    1
   127   191   185   am
   128    77    78    2
   129   142   141    2
   130   188   187    1
   131   108   109    1
   132   136   133    1
   133   156   157    1
   134    91    89   ar
   135    91    93   ar
   136   120   121    1
   137   160   157    1
   138   171   170    1
   139   170   169    1
   140   187   189    1
   141   187   184    1
   142   157   158    1
   143   130   129    2
   144   185   186    2
   145   185   184    1
   146    94    93    1
   147    89    88   ar
   148   123   122    2
   149   132   133    1
   150    93    92   ar
   151   133   134    1
   152   184   183    1
   153   122   121    1
   154   109   111   ar
   155   109   110   ar
   156   169   168    1
   157   121   124    1
   158   129   128    1
   159    88    87    1
   160    88    90   ar
   161   158   159    2
   162    86    85    2
   163   135   134    2
   164    85    84    1
   165    92    90   ar
   166    87    84    1
   167   127   128    1
   168   131   128    1
   169   124   126    1
   170   124   125    1
   171    84    83    1
   172   168   165    1
   173   180   182   ar
   174   180   178   ar
   175   182   181   ar
   176   165   164    1
   177   165   166    1
   178   178   177   ar
   179   181   179   ar
   180   175   174    2
   181   166   167    2
   182   177   179   ar
   183   177   176    1
   184   174   173    1
   185   176   173    1
   186   173   172    1
