@<TRIPOS>MOLECULE
tmp/4f1tA00.pdb
 131 124 0 0 0
SMALL
GASTEIGER

@<TRIPOS>ATOM
      1  N          1.4640   19.8910  -16.5750 N.3    16  ILE16      -0.1231
      2  CA         0.8370   19.8800  -17.8680 C.3    16  ILE16       0.1692
      3  C         -0.1160   21.0180  -18.0820 C.2    16  ILE16       0.2593
      4  O         -0.9380   20.9530  -18.9660 O.2    16  ILE16      -0.2718
      5  CB         0.0830   18.5730  -18.1070 C.3    16  ILE16       0.0266
      6  CG1       -0.9140   18.3200  -17.0240 C.3    16  ILE16       0.0019
      7  CG2        1.0100   17.3960  -18.0190 C.3    16  ILE16       0.0020
      8  CD1       -1.3550   16.8940  -17.0080 C.3    16  ILE16       0.0001
      9  N         -0.0660   22.0570  -17.2630 N.am   17  GLY17      -0.1942
     10  CA        -0.9860   23.1620  -17.4680 C.3    17  GLY17       0.2014
     11  C         -1.4270   24.0170  -16.2940 C.2    17  GLY17       0.2639
     12  O         -1.0360   23.7770  -15.1730 O.2    17  GLY17      -0.2714
     13  N         -2.1940   25.0670  -16.5770 N.am   18  LYS18      -0.1963
     14  CA        -2.5470   26.0750  -15.5680 C.3    18  LYS18       0.1728
     15  C         -3.9690   26.1020  -15.0320 C.2    18  LYS18       0.2616
     16  O         -4.1840   26.0250  -13.8260 O.2    18  LYS18      -0.2715
     17  CB        -2.1950   27.4660  -16.0780 C.3    18  LYS18       0.0311
     18  CG        -3.3850   28.3830  -16.2710 C.3    18  LYS18       0.0038
     19  CD        -2.9940   29.8240  -15.9980 C.3    18  LYS18       0.0206
     20  CE        -3.6090   30.7880  -16.9960 C.3    18  LYS18       0.1093
     21  NZ        -2.8260   30.9150  -18.2630 N.3    18  LYS18      -0.1314
     22  N         -4.9230   26.0450  -15.9410 N.am   19  GLY19      -0.1955
     23  CA        -5.8290   27.0480  -16.4110 C.3    19  GLY19       0.1869
     24  C         -6.8870   27.7820  -15.5830 C.2    19  GLY19       0.2309
     25  O         -7.1460   28.9410  -15.8930 O.2    19  GLY19      -0.2863
     26  N         -2.4840   22.2880  -12.9140 N.3    24  VAL24      -0.1245
     27  CA        -2.7080   20.8940  -13.2520 C.3    24  VAL24       0.1561
     28  C         -1.4240   20.1090  -13.3890 C.2    24  VAL24       0.2260
     29  O         -0.4900   20.5550  -13.9980 O.2    24  VAL24      -0.2867
     30  CB        -3.4760   20.7280  -14.5480 C.3    24  VAL24       0.0252
     31  CG1       -3.8890   19.2940  -14.7120 C.3    24  VAL24       0.0019
     32  CG2       -4.6760   21.6420  -14.5770 C.3    24  VAL24       0.0019
     33  N         -4.3670   12.7710  -13.5120 N.3    37  ALA37      -0.1245
     34  CA        -4.1870   14.1920  -13.6130 C.3    37  ALA37       0.1562
     35  C         -4.6820   14.8330  -12.3450 C.2    37  ALA37       0.2260
     36  O         -5.6950   14.4600  -11.8020 O.2    37  ALA37      -0.2867
     37  CB        -4.9010   14.7530  -14.8210 C.3    37  ALA37       0.0290
     38  N         -5.6840   18.1600  -10.1800 N.3    39  LYS39      -0.1245
     39  CA        -6.1170   19.5140  -10.2880 C.3    39  LYS39       0.1561
     40  C         -6.1810   20.1470   -8.9380 C.2    39  LYS39       0.2260
     41  O         -6.8120   19.6570   -8.0530 O.2    39  LYS39      -0.2867
     42  CB        -7.4630   19.5650  -10.9670 C.3    39  LYS39       0.0271
     43  CG        -7.3640   19.5140  -12.4690 C.3    39  LYS39       0.0035
     44  CD        -8.6960   19.3520  -13.1570 C.3    39  LYS39       0.0206
     45  CE        -9.3960   20.6800  -13.2810 C.3    39  LYS39       0.1093
     46  NZ       -10.6230   20.5760  -14.1000 N.3    39  LYS39      -0.1314
     47  N        -14.9830   11.3960  -18.3080 N.3    68  VAL68      -0.1245
     48  CA       -13.7700   11.3450  -17.5290 C.3    68  VAL68       0.1561
     49  C        -14.0420   11.0840  -16.0570 C.2    68  VAL68       0.2260
     50  O        -14.8570   11.7170  -15.4750 O.2    68  VAL68      -0.2867
     51  CB       -12.9730   12.6250  -17.7050 C.3    68  VAL68       0.0252
     52  CG1      -11.8460   12.6690  -16.7300 C.3    68  VAL68       0.0019
     53  CG2      -12.4050   12.7080  -19.0980 C.3    68  VAL68       0.0019
     54  N         -8.1510   12.7820  -11.1700 N.3    82  MET82      -0.1230
     55  CA        -8.8690   12.1810  -12.2890 C.3    82  MET82       0.1702
     56  C         -8.0280   11.4030  -13.2500 C.2    82  MET82       0.2592
     57  O         -6.8500   11.5520  -13.2880 O.2    82  MET82      -0.2718
     58  CB        -9.6610   13.1990  -13.0720 C.3    82  MET82       0.0401
     59  CG        -8.9970   14.5090  -13.3020 C.3    82  MET82       0.0596
     60  SD       -10.1980   15.8110  -13.2030 S.3    82  MET82      -0.1393
     61  CE       -11.4630   14.9420  -12.3370 C.3    82  MET82       0.0692
     62  N         -8.6710   10.5720  -14.0430 N.am   83  GLU83      -0.1966
     63  CA        -7.9530    9.8010  -15.0160 C.3    83  GLU83       0.1733
     64  C         -7.3040   10.7030  -16.0330 C.2    83  GLU83       0.2616
     65  O         -7.8110   11.7440  -16.3400 O.2    83  GLU83      -0.2715
     66  CB        -8.8270    8.7450  -15.6920 C.3    83  GLU83       0.0429
     67  CG       -10.1750    9.2150  -16.1490 C.3    83  GLU83       0.1163
     68  CD       -10.8210    8.2800  -17.1310 C.2    83  GLU83       0.3649
     69  OE1      -10.1070    7.6560  -17.8920 O.co2  83  GLU83      -0.2457
     70  OE2      -12.0400    8.1750  -17.1530 O.co2  83  GLU83      -0.2457
     71  N         -6.1480   10.2790  -16.4950 N.am   84  PHE84      -0.1960
     72  CA        -5.3840   11.0050  -17.4510 C.3    84  PHE84       0.1771
     73  C         -5.6430   10.3930  -18.8040 C.2    84  PHE84       0.2619
     74  O         -5.5830    9.2110  -18.9380 O.2    84  PHE84      -0.2715
     75  CB        -3.9100   10.9500  -17.0950 C.3    84  PHE84       0.0574
     76  CG        -3.0340   11.6270  -18.0940 C.ar   84  PHE84      -0.0200
     77  CD1       -2.8190   12.9720  -18.0260 C.ar   84  PHE84      -0.0042
     78  CD2       -2.4940   10.9280  -19.1290 C.ar   84  PHE84      -0.0042
     79  CE1       -2.0550   13.6070  -18.9520 C.ar   84  PHE84      -0.0003
     80  CE2       -1.7330   11.5540  -20.0600 C.ar   84  PHE84      -0.0003
     81  CZ        -1.5060   12.8970  -19.9730 C.ar   84  PHE84      -0.0000
     82  N         -5.9720   11.2140  -19.7800 N.am   85  VAL85      -0.1977
     83  CA        -6.3420   10.7960  -21.1150 C.3    85  VAL85       0.1596
     84  C         -5.1950   11.1780  -22.0210 C.2    85  VAL85       0.2287
     85  O         -4.9040   12.2970  -22.1330 O.2    85  VAL85      -0.2864
     86  CB        -7.6180   11.5430  -21.5610 C.3    85  VAL85       0.0276
     87  CG1       -8.2040   10.9810  -22.8290 C.3    85  VAL85       0.0022
     88  CG2       -8.6510   11.5260  -20.4920 C.3    85  VAL85       0.0022
     89  N         -4.3870   13.9390  -26.1710 N.3    88  GLY88      -0.1225
     90  CA        -4.7940   15.3140  -26.3860 C.3    88  GLY88       0.1811
     91  C         -6.2690   15.6280  -26.5300 C.2    88  GLY88       0.2280
     92  O         -7.1060   14.9100  -26.1220 O.2    88  GLY88      -0.2866
     93  N        -12.4860   21.6920  -27.6270 N.3   135  PRO135     -0.2102
     94  CA       -11.4380   21.6540  -26.6090 C.3   135  PRO135      0.1504
     95  C        -11.8330   20.8720  -25.3750 C.2   135  PRO135      0.2575
     96  O        -10.9750   20.4130  -24.7260 O.2   135  PRO135     -0.2718
     97  CB       -11.1980   23.1170  -26.2730 C.3   135  PRO135      0.0282
     98  CG       -11.7410   23.8520  -27.3960 C.3   135  PRO135      0.0208
     99  CD       -12.8590   23.0640  -27.9510 C.3   135  PRO135      0.0893
    100  N        -13.1110   20.7030  -25.1070 N.am  136  ASN136     -0.1975
    101  CA       -13.5910   19.8930  -23.9940 C.3   136  ASN136      0.1688
    102  C        -13.8360   18.3770  -24.2770 C.2   136  ASN136      0.2292
    103  O        -14.2910   17.6700  -23.4370 O.2   136  ASN136     -0.2864
    104  CB       -14.7610   20.5700  -23.3020 C.3   136  ASN136      0.1181
    105  CG       -14.3580   21.8510  -22.6130 C.2   136  ASN136      0.2629
    106  OD1      -13.2660   21.9670  -22.1270 O.2   136  ASN136     -0.2716
    107  ND2      -15.2270   22.8120  -22.5950 N.am  136  ASN136     -0.0877
    108  N        -11.8080   15.0310  -24.9550 N.3   138  PHE138     -0.1241
    109  CA       -10.4830   14.4560  -24.8850 C.3   138  PHE138      0.1605
    110  C        -10.3780   13.1120  -25.6260 C.2   138  PHE138      0.2264
    111  O        -11.2880   12.3450  -25.6270 O.2   138  PHE138     -0.2867
    112  CB       -10.0370   14.3090  -23.4350 C.3   138  PHE138      0.0534
    113  CG        -9.9330   15.5940  -22.6670 C.ar  138  PHE138     -0.0203
    114  CD1      -10.1690   16.7970  -23.2480 C.ar  138  PHE138     -0.0042
    115  CD2       -9.5790   15.5790  -21.3310 C.ar  138  PHE138     -0.0042
    116  CE1      -10.0580   17.9460  -22.5340 C.ar  138  PHE138     -0.0003
    117  CE2       -9.4710   16.7340  -20.6030 C.ar  138  PHE138     -0.0003
    118  CZ        -9.7120   17.9240  -21.2080 C.ar  138  PHE138     -0.0000
    119  N        -15.2020   15.9280  -21.1040 N.3   153  ALA153     -0.1231
    120  CA       -14.4100   16.4460  -20.0060 C.3   153  ALA153      0.1694
    121  C        -14.8010   17.8410  -19.5910 C.2   153  ALA153      0.2592
    122  O        -15.4750   18.5140  -20.2960 O.2   153  ALA153     -0.2718
    123  CB       -12.9550   16.4410  -20.3740 C.3   153  ALA153      0.0304
    124  N        -14.2330   18.2970  -18.4920 N.am  154  ASP154     -0.1974
    125  CA       -14.3860   19.6580  -18.0160 C.3   154  ASP154      0.1709
    126  C        -15.7520   20.1930  -17.6890 C.2   154  ASP154      0.2293
    127  O        -16.1860   21.1260  -18.2970 O.2   154  ASP154     -0.2864
    128  CB       -13.7350   20.6410  -18.9710 C.3   154  ASP154      0.1436
    129  CG       -12.4220   21.1430  -18.4670 C.2   154  ASP154      0.3671
    130  OD1      -11.5370   20.3170  -18.2230 O.co2 154  ASP154     -0.2456
    131  OD2      -12.2730   22.3610  -18.3010 O.co2 154  ASP154     -0.2456
@<TRIPOS>BOND
     1    99    93    1
     2    99    98    1
     3    93    94    1
     4    98    97    1
     5    94    97    1
     6    94    95    1
     7    91    90    1
     8    91    92    2
     9    90    89    1
    10   111   110    2
    11   110   109    1
    12    95   100   am
    13    95    96    2
    14   100   101    1
    15   108   109    1
    16   109   112    1
    17   102   101    1
    18   102   103    2
    19   101   104    1
    20   112   113    1
    21   104   105    1
    22   114   113   ar
    23   114   116   ar
    24    87    86    1
    25   113   115   ar
    26   105   107   am
    27   105   106    2
    28   116   118   ar
    29    85    84    2
    30    84    83    1
    31    86    83    1
    32    86    88    1
    33   115   117   ar
    34   118   117   ar
    35    83    82    1
    36   119   120    1
    37   123   120    1
    38   122   121    2
    39    80    81   ar
    40    80    78   ar
    41   120   121    1
    42    81    79   ar
    43    82    73   am
    44   121   124   am
    45    78    76   ar
    46    53    51    1
    47   128   129    1
    48   128   125    1
    49     4     3    2
    50    79    77   ar
    51    74    73    2
    52    73    72    1
    53   124   125    1
    54   129   131   ar
    55   129   130   ar
    56    47    48    1
    57   127   126    2
    58    21    20    1
    59     5     7    1
    60     5     2    1
    61     5     6    1
    62    76    77   ar
    63    76    75    1
    64     3     2    1
    65     3     9   am
    66   125   126    1
    67    69    68   ar
    68     2     1    1
    69    51    48    1
    70    51    52    1
    71    48    49    1
    72    10     9    1
    73    10    11    1
    74    72    75    1
    75    72    71    1
    76    70    68   ar
    77    68    67    1
    78     6     8    1
    79    20    19    1
    80    13    11   am
    81    13    14    1
    82    71    64   am
    83    23    22    1
    84    23    24    1
    85    65    64    2
    86    11    12    2
    87    18    17    1
    88    18    19    1
    89    67    66    1
    90    17    14    1
    91    49    50    2
    92    64    63    1
    93    22    15   am
    94    25    24    2
    95    66    63    1
    96    14    15    1
    97    15    16    2
    98    63    62    1
    99    37    34    1
   100    31    30    1
   101    32    30    1
   102    30    27    1
   103    46    45    1
   104    62    56   am
   105    29    28    2
   106    34    33    1
   107    34    35    1
   108    28    27    1
   109    59    60    1
   110    59    58    1
   111    57    56    2
   112    45    44    1
   113    27    26    1
   114    56    55    1
   115    60    61    1
   116    44    43    1
   117    58    55    1
   118    43    42    1
   119    35    36    2
   120    55    54    1
   121    42    39    1
   122    39    38    1
   123    39    40    1
   124    40    41    2
