@<TRIPOS>MOLECULE
tmp/4f1tA01.pdb
 96 94 0 0 0
SMALL
GASTEIGER

@<TRIPOS>ATOM
      1  N        -16.9650    9.6990   -2.2490 N.3     2  LEU2       -0.1245
      2  CA       -15.7920   10.2400   -2.8800 C.3     2  LEU2        0.1561
      3  C        -14.6480   10.0270   -1.8930 C.2     2  LEU2        0.2260
      4  O        -14.6340   10.5680   -0.8030 O.2     2  LEU2       -0.2867
      5  CB       -15.9750   11.7000   -3.2290 C.3     2  LEU2        0.0270
      6  CG       -15.1180   12.3430   -4.2990 C.3     2  LEU2        0.0019
      7  CD1      -15.3470   11.7170   -5.6680 C.3     2  LEU2        0.0001
      8  CD2      -15.4190   13.8440   -4.3510 C.3     2  LEU2        0.0001
      9  N        -14.1000   29.0690   -5.3240 N.3    49  PHE49      -0.1241
     10  CA       -14.1620   27.9180   -4.4750 C.3    49  PHE49       0.1605
     11  C        -15.4570   27.2050   -4.7750 C.2    49  PHE49       0.2264
     12  O        -15.5520   26.0140   -4.7550 O.2    49  PHE49      -0.2867
     13  CB       -14.1330   28.3360   -3.0350 C.3    49  PHE49       0.0534
     14  CG       -13.9760   27.2060   -2.1040 C.ar   49  PHE49      -0.0203
     15  CD1      -13.0630   26.2290   -2.3470 C.ar   49  PHE49      -0.0042
     16  CD2      -14.7590   27.1110   -1.0050 C.ar   49  PHE49      -0.0042
     17  CE1      -12.9180   25.1750   -1.4840 C.ar   49  PHE49      -0.0003
     18  CE2      -14.6260   26.0600   -0.1320 C.ar   49  PHE49      -0.0003
     19  CZ       -13.6930   25.0920   -0.3670 C.ar   49  PHE49      -0.0000
     20  N        -14.9830   24.9110   -7.7120 N.3    52  PHE52      -0.1227
     21  CA       -14.3130   23.6820   -7.4190 C.3    52  PHE52       0.1736
     22  C        -15.2990   22.6970   -6.8160 C.2    52  PHE52       0.2595
     23  O        -15.3240   21.5550   -7.2150 O.2    52  PHE52      -0.2718
     24  CB       -13.1610   23.9700   -6.4550 C.3    52  PHE52       0.0547
     25  CG       -12.4410   22.7540   -5.9510 C.ar   52  PHE52      -0.0202
     26  CD1      -11.2720   22.3440   -6.5280 C.ar   52  PHE52      -0.0042
     27  CD2      -12.9260   22.0440   -4.8830 C.ar   52  PHE52      -0.0042
     28  CE1      -10.6180   21.2360   -6.0640 C.ar   52  PHE52      -0.0003
     29  CE2      -12.2780   20.9320   -4.4090 C.ar   52  PHE52      -0.0003
     30  CZ       -11.1260   20.5240   -5.0020 C.ar   52  PHE52      -0.0000
     31  N        -16.1280   23.1510   -5.8840 N.am   53  GLN53      -0.1979
     32  CA       -17.1190   22.3120   -5.2320 C.3    53  GLN53       0.1601
     33  C        -18.1670   21.7860   -6.1530 C.2    53  GLN53       0.2287
     34  O        -18.5710   20.6740   -6.0310 O.2    53  GLN53      -0.2864
     35  CB       -17.8190   23.0750   -4.1260 C.3    53  GLN53       0.0394
     36  CG       -16.9590   23.3340   -2.9300 C.3    53  GLN53       0.0908
     37  CD       -17.7300   23.8530   -1.7570 C.2    53  GLN53       0.2608
     38  OE1      -17.7550   23.2470   -0.7210 O.2    53  GLN53      -0.2717
     39  NE2      -18.3550   24.9640   -1.9290 N.am   53  GLN53      -0.0878
     40  N        -16.9820   18.9960   -8.3000 N.3    56  VAL56      -0.1231
     41  CA       -16.8960   17.7720   -7.5350 C.3    56  VAL56       0.1692
     42  C        -18.2140   17.0390   -7.4420 C.2    56  VAL56       0.2592
     43  O        -18.2710   15.8490   -7.5720 O.2    56  VAL56      -0.2718
     44  CB       -16.4330   18.0300   -6.0990 C.3    56  VAL56       0.0266
     45  CG1      -16.5960   16.7920   -5.2710 C.3    56  VAL56       0.0020
     46  CG2      -15.0040   18.4740   -6.0620 C.3    56  VAL56       0.0020
     47  N        -19.2680   17.7860   -7.1930 N.am   57  PHE57      -0.1976
     48  CA       -20.5660   17.2310   -6.9610 C.3    57  PHE57       0.1639
     49  C        -21.0860   16.5020   -8.1630 C.2    57  PHE57       0.2290
     50  O        -21.6090   15.4220   -8.0640 O.2    57  PHE57      -0.2864
     51  CB       -21.5030   18.3670   -6.6170 C.3    57  PHE57       0.0560
     52  CG       -22.9350   17.9690   -6.5180 C.ar   57  PHE57      -0.0200
     53  CD1      -23.3620   17.1520   -5.5280 C.ar   57  PHE57      -0.0042
     54  CD2      -23.8500   18.4320   -7.4090 C.ar   57  PHE57      -0.0042
     55  CE1      -24.6670   16.7860   -5.4230 C.ar   57  PHE57      -0.0003
     56  CE2      -25.1610   18.0660   -7.3210 C.ar   57  PHE57      -0.0003
     57  CZ       -25.5710   17.2460   -6.3170 C.ar   57  PHE57      -0.0000
     58  N        -18.9870   13.1630   -8.9870 N.3    60  SER60      -0.1217
     59  CA       -19.1260   12.1050   -8.0340 C.3    60  SER60       0.1889
     60  C        -20.3040   11.2630   -8.3910 C.2    60  SER60       0.2288
     61  O        -20.3740   10.1130   -8.0460 O.2    60  SER60      -0.2866
     62  CB       -19.2460   12.6560   -6.6280 C.3    60  SER60       0.2089
     63  OG       -20.5630   13.0150   -6.3160 O.3    60  SER60      -0.2183
     64  N        -10.2590   12.7170   -3.7710 N.3    73  LEU73      -0.1231
     65  CA        -9.9390   14.0660   -3.4130 C.3    73  LEU73       0.1693
     66  C         -8.7180   14.0890   -2.5410 C.2    73  LEU73       0.2592
     67  O         -8.4020   13.1250   -1.9050 O.2    73  LEU73      -0.2718
     68  CB       -11.0660   14.6770   -2.6400 C.3    73  LEU73       0.0284
     69  CG       -12.3280   15.1180   -3.3260 C.3    73  LEU73       0.0019
     70  CD1      -13.1810   15.8410   -2.3160 C.3    73  LEU73       0.0001
     71  CD2      -11.9740   16.0380   -4.4520 C.3    73  LEU73       0.0001
     72  N         -8.0330   15.2110   -2.5080 N.am   74  MET74      -0.1965
     73  CA        -6.8670   15.3560   -1.6850 C.3    74  MET74       0.1736
     74  C         -6.9760   16.6490   -0.9240 C.2    74  MET74       0.2616
     75  O         -7.6140   17.5760   -1.3670 O.2    74  MET74      -0.2715
     76  CB        -5.6200   15.3930   -2.5330 C.3    74  MET74       0.0427
     77  CG        -5.0400   14.0510   -2.8590 C.3    74  MET74       0.0599
     78  SD        -3.5480   14.3820   -3.7590 S.3    74  MET74      -0.1393
     79  CE        -2.5740   12.9690   -3.3250 C.3    74  MET74       0.0692
     80  N         -6.3280   16.7040    0.2230 N.am   75  HIS75      -0.1973
     81  CA        -6.4520   17.8340    1.0830 C.3    75  HIS75       0.1656
     82  C         -5.1640   18.5390    1.2730 C.2    75  HIS75       0.2291
     83  O         -4.0950   17.9220    1.2670 O.2    75  HIS75      -0.2864
     84  CB        -7.0640   17.4310    2.4120 C.3    75  HIS75       0.0771
     85  CG        -8.5410   17.1640    2.3360 C.ar   75  HIS75       0.0820
     86  ND1       -9.4270   18.1180    2.0490 N.ar   75  HIS75      -0.2267
     87  CD2       -9.2630   16.0020    2.4940 C.ar   75  HIS75       0.1154
     88  CE1      -10.6530   17.5920    2.0120 C.ar   75  HIS75       0.1986
     89  NE2      -10.5540   16.3020    2.2920 N.ar   75  HIS75      -0.2212
     90  N         -6.6860   21.6530   -1.5550 N.3    78  PRO78      -0.2116
     91  CA        -7.7620   20.9080   -2.1970 C.3    78  PRO78       0.1372
     92  C         -7.3960   20.5460   -3.6180 C.2    78  PRO78       0.2244
     93  O         -6.9930   21.3990   -4.3860 O.2    78  PRO78      -0.2868
     94  CB        -8.8910   21.9090   -2.2250 C.3    78  PRO78       0.0268
     95  CG        -8.4440   23.0550   -1.3850 C.3    78  PRO78       0.0207
     96  CD        -6.9800   23.0750   -1.4750 C.3    78  PRO78       0.0892
@<TRIPOS>BOND
     1    58    59    1
     2    60    61    2
     3    60    59    1
     4    40    41    1
     5    49    50    2
     6    49    48    1
     7    59    62    1
     8    20    21    1
     9    43    42    2
    10    41    42    1
    11    41    44    1
    12    42    47   am
    13    21    22    1
    14    21    24    1
    15    54    56   ar
    16    54    52   ar
    17    56    57   ar
    18    23    22    2
    19    47    48    1
    20    48    51    1
    21    22    31   am
    22    62    63    1
    23    51    52    1
    24    26    28   ar
    25    26    25   ar
    26    52    53   ar
    27    24    25    1
    28    57    55   ar
    29    33    34    2
    30    33    32    1
    31    44    46    1
    32    44    45    1
    33    28    30   ar
    34    25    27   ar
    35    31    32    1
    36     7     6    1
    37    53    55   ar
    38     9    10    1
    39    32    35    1
    40    30    29   ar
    41    27    29   ar
    42    11    12    2
    43    11    10    1
    44    10    13    1
    45    71    69    1
    46    93    92    2
    47     8     6    1
    48     6     5    1
    49    35    36    1
    50    64    65    1
    51    78    79    1
    52    78    77    1
    53    92    91    1
    54    65    68    1
    55    65    66    1
    56    69    68    1
    57    69    70    1
    58     5     2    1
    59    13    14    1
    60    36    37    1
    61     2     1    1
    62     2     3    1
    63    77    76    1
    64    66    72   am
    65    66    67    2
    66    76    73    1
    67    72    73    1
    68    15    14   ar
    69    15    17   ar
    70    94    91    1
    71    94    95    1
    72    91    90    1
    73    14    16   ar
    74    39    37   am
    75     3     4    2
    76    37    38    2
    77    73    74    1
    78    90    96    1
    79    17    19   ar
    80    96    95    1
    81    75    74    2
    82    16    18   ar
    83    74    80   am
    84    19    18   ar
    85    80    81    1
    86    81    82    1
    87    81    84    1
    88    83    82    2
    89    88    86   ar
    90    88    89   ar
    91    86    85   ar
    92    89    87   ar
    93    85    84    1
    94    85    87   ar
