@<TRIPOS>MOLECULE
tmp/4f1wA02.pdb
 82 76 0 0 0
SMALL
GASTEIGER

@<TRIPOS>ATOM
      1  N         56.8890    8.4570   -8.6480 N.3    86  VAL86      -0.1231
      2  CA        56.5940    7.3460   -7.7740 C.3    86  VAL86       0.1692
      3  C         56.9400    7.7330   -6.3470 C.2    86  VAL86       0.2592
      4  O         58.0320    8.2540   -6.0530 O.2    86  VAL86      -0.2718
      5  CB        57.3740    6.0820   -8.2060 C.3    86  VAL86       0.0266
      6  CG1       57.2700    4.9720   -7.1590 C.3    86  VAL86       0.0020
      7  CG2       56.8890    5.5840   -9.5660 C.3    86  VAL86       0.0020
      8  N         55.9900    7.5000   -5.4620 N.am   87  GLY87      -0.1957
      9  CA        56.1360    7.8500   -4.0740 C.3    87  GLY87       0.1869
     10  C         55.5370    9.1850   -3.6820 C.2    87  GLY87       0.2309
     11  O         55.4180    9.4350   -2.4980 O.2    87  GLY87      -0.2863
     12  N         52.4510   11.6120   -2.8840 N.3    89  ILE89      -0.1245
     13  CA        51.1820   11.3110   -2.2250 C.3    89  ILE89       0.1561
     14  C         50.1350   12.3080   -2.7040 C.2    89  ILE89       0.2260
     15  O         50.2440   13.5030   -2.4660 O.2    89  ILE89      -0.2867
     16  CB        51.2710   11.3650   -0.6830 C.3    89  ILE89       0.0252
     17  CG1       52.5100   10.6580   -0.1210 C.3    89  ILE89       0.0019
     18  CG2       49.9570   10.9360   -0.0690 C.3    89  ILE89       0.0019
     19  CD1       52.5790    9.2070   -0.3770 C.3    89  ILE89       0.0001
     20  N         57.6470   13.9800    2.7270 N.3   138  LEU138     -0.1245
     21  CA        57.0320   13.4540    1.5230 C.3   138  LEU138      0.1561
     22  C         56.4360   14.6110    0.7290 C.2   138  LEU138      0.2260
     23  O         56.2820   15.7080    1.2330 O.2   138  LEU138     -0.2867
     24  CB        55.9660   12.4250    1.8890 C.3   138  LEU138      0.0270
     25  CG        56.4700   11.2390    2.7010 C.3   138  LEU138      0.0019
     26  CD1       55.3020   10.4750    3.3000 C.3   138  LEU138      0.0001
     27  CD2       57.3350   10.3570    1.8160 C.3   138  LEU138      0.0001
     28  N         49.2130    7.0050   -2.3260 N.3   194  ALA194     -0.1245
     29  CA        50.6110    6.9660   -2.7110 C.3   194  ALA194      0.1562
     30  C         50.7170    6.4860   -4.1720 C.2   194  ALA194      0.2260
     31  O         50.0980    5.5030   -4.5490 O.2   194  ALA194     -0.2867
     32  CB        51.3700    6.0270   -1.8010 C.3   194  ALA194      0.0290
     33  N         61.0490    2.1190  -11.1570 N.3   204  HIS204     -0.1226
     34  CA        62.2380    1.4070  -10.6990 C.3   204  HIS204      0.1752
     35  C         61.9330    0.2840   -9.6920 C.2   204  HIS204      0.2595
     36  O         62.8150   -0.5220   -9.4060 O.2   204  HIS204     -0.2718
     37  CB        63.2840    2.3930  -10.1150 C.3   204  HIS204      0.0759
     38  CG        62.8680    3.0710   -8.8400 C.ar  204  HIS204      0.0818
     39  ND1       61.8700    4.0280   -8.7770 N.ar  204  HIS204     -0.2268
     40  CD2       63.3550    2.9590   -7.5830 C.ar  204  HIS204      0.1154
     41  CE1       61.7470    4.4500   -7.5300 C.ar  204  HIS204      0.1986
     42  NE2       62.6370    3.8180   -6.7860 N.ar  204  HIS204     -0.2212
     43  N         60.7030    0.2430   -9.1700 N.am  205  LEU205     -0.1980
     44  CA        60.2900   -0.7310   -8.1690 C.3   205  LEU205      0.1596
     45  C         59.1900   -1.6110   -8.7310 C.2   205  LEU205      0.2287
     46  O         58.3070   -1.1410   -9.4720 O.2   205  LEU205     -0.2864
     47  CB        59.7220   -0.0140   -6.9360 C.3   205  LEU205      0.0297
     48  CG        60.6600    0.9420   -6.2000 C.3   205  LEU205      0.0022
     49  CD1       59.9520    1.6490   -5.0580 C.3   205  LEU205      0.0001
     50  CD2       61.8930    0.2100   -5.7030 C.3   205  LEU205      0.0001
     51  N         57.2870   -1.5330   -3.9260 N.3   210  PHE210     -0.1241
     52  CA        56.6410   -0.2620   -3.6360 C.3   210  PHE210      0.1605
     53  C         55.7840   -0.3640   -2.3870 C.2   210  PHE210      0.2264
     54  O         55.8320    0.5000   -1.5200 O.2   210  PHE210     -0.2867
     55  CB        55.8220    0.2360   -4.8320 C.3   210  PHE210      0.0534
     56  CG        55.0130    1.4340   -4.5290 C.ar  210  PHE210     -0.0203
     57  CD1       55.6000    2.6800   -4.5660 C.ar  210  PHE210     -0.0042
     58  CD2       53.7040    1.3100   -4.1560 C.ar  210  PHE210     -0.0042
     59  CE1       54.8930    3.7970   -4.2450 C.ar  210  PHE210     -0.0003
     60  CE2       52.9660    2.4370   -3.8280 C.ar  210  PHE210     -0.0003
     61  CZ        53.5620    3.6780   -3.8890 C.ar  210  PHE210     -0.0000
     62  N         57.5760   -0.2940    1.1040 N.3   213  VAL213     -0.1231
     63  CA        57.9410    1.0120    1.6290 C.3   213  VAL213      0.1692
     64  C         56.7040    1.9010    1.8230 C.2   213  VAL213      0.2591
     65  O         56.5760    2.5520    2.8520 O.2   213  VAL213     -0.2718
     66  CB        59.0450    1.6820    0.7750 C.3   213  VAL213      0.0266
     67  CG1       58.6320    1.7910   -0.6860 C.3   213  VAL213      0.0020
     68  CG2       59.4340    3.0340    1.3540 C.3   213  VAL213      0.0020
     69  N         55.7900    1.8900    0.8670 N.am  214  ALA214     -0.1980
     70  CA        54.6270    2.7810    0.9220 C.3   214  ALA214      0.1597
     71  C         53.7200    2.4820    2.0930 C.2   214  ALA214      0.2287
     72  O         53.1630    3.4000    2.6890 O.2   214  ALA214     -0.2864
     73  CB        53.8160    2.7030   -0.3700 C.3   214  ALA214      0.0319
     74  N         55.2660    3.9810    5.1800 N.3   217  GLN217     -0.1245
     75  CA        55.1510    5.4390    5.1450 C.3   217  GLN217      0.1566
     76  C         53.7200    5.8470    5.4430 C.2   217  GLN217      0.2260
     77  O         53.4670    6.8110    6.1590 O.2   217  GLN217     -0.2867
     78  CB        55.5710    6.0080    3.7760 C.3   217  GLN217      0.0367
     79  CG        57.0590    5.9390    3.4870 C.3   217  GLN217      0.0905
     80  CD        57.8370    7.0510    4.1640 C.2   217  GLN217      0.2608
     81  OE1       57.3960    7.6390    5.1510 O.2   217  GLN217     -0.2717
     82  NE2       59.0000    7.3490    3.6250 N.am  217  GLN217     -0.0878
@<TRIPOS>BOND
     1    33    34    1
     2    34    37    1
     3    34    35    1
     4    37    38    1
     5    35    36    2
     6    35    43   am
     7     7     5    1
     8    46    45    2
     9    43    44    1
    10    38    39   ar
    11    38    40   ar
    12    39    41   ar
    13    45    44    1
    14     1     2    1
    15     5     2    1
    16     5     6    1
    17    44    47    1
    18     2     3    1
    19    40    42   ar
    20    41    42   ar
    21    47    48    1
    22     3     4    2
    23     3     8   am
    24    48    50    1
    25    48    49    1
    26     8     9    1
    27    55    56    1
    28    55    52    1
    29    57    56   ar
    30    57    59   ar
    31    31    30    2
    32    56    58   ar
    33    59    61   ar
    34    30    29    1
    35    58    60   ar
    36     9    10    1
    37    51    52    1
    38    61    60   ar
    39    10    11    2
    40    52    53    1
    41    12    13    1
    42    29    28    1
    43    29    32    1
    44    14    15    2
    45    14    13    1
    46    53    54    2
    47    13    16    1
    48    67    66    1
    49    16    17    1
    50    16    18    1
    51    19    17    1
    52    73    70    1
    53    22    23    2
    54    22    21    1
    55    66    68    1
    56    66    63    1
    57    69    70    1
    58    69    64   am
    59    70    71    1
    60    62    63    1
    61    21    24    1
    62    21    20    1
    63    63    64    1
    64    27    25    1
    65    64    65    2
    66    24    25    1
    67    71    72    2
    68    25    26    1
    69    79    78    1
    70    79    80    1
    71    82    80   am
    72    78    75    1
    73    80    81    2
    74    75    74    1
    75    75    76    1
    76    76    77    2
