@<TRIPOS>MOLECULE
tmp/4f1wB02.pdb
 100 94 0 0 0
SMALL
GASTEIGER

@<TRIPOS>ATOM
      1  N         15.3580    1.3420   -7.1910 N.3    10  ALA10      -0.1231
      2  CA        16.2930    2.4870   -7.2330 C.3    10  ALA10       0.1694
      3  C         15.5990    3.8280   -7.1880 C.2    10  ALA10       0.2591
      4  O         16.0650    4.7540   -6.5430 O.2    10  ALA10      -0.2718
      5  CB        17.1530    2.3650   -8.4660 C.3    10  ALA10       0.0304
      6  N         14.5310    3.9380   -7.9650 N.am   11  MET11      -0.1979
      7  CA        13.8920    5.2070   -8.2740 C.3    11  MET11       0.1605
      8  C         12.5460    5.3770   -7.6030 C.2    11  MET11       0.2287
      9  O         11.8630    4.3960   -7.3190 O.2    11  MET11      -0.2864
     10  CB        13.6610    5.3030   -9.7940 C.3    11  MET11       0.0413
     11  CG        14.9500    5.3140  -10.5850 C.3    11  MET11       0.0598
     12  SD        14.6880    5.2680  -12.3510 S.3    11  MET11      -0.1393
     13  CE        14.2480    6.9650  -12.6580 C.3    11  MET11       0.0692
     14  N          9.8550    6.2590   -9.0510 N.3    13  GLU13      -0.1231
     15  CA         8.8750    5.6240   -9.9290 C.3    13  GLU13       0.1699
     16  C          8.7610    4.1260   -9.7510 C.2    13  GLU13       0.2592
     17  O          7.7080    3.5420   -9.9770 O.2    13  GLU13      -0.2718
     18  CB         9.2450    5.9130  -11.3810 C.3    13  GLU13       0.0402
     19  CG         9.1630    7.3810  -11.7900 C.3    13  GLU13       0.1161
     20  CD        10.4200    8.2140  -11.5530 C.2    13  GLU13       0.3649
     21  OE1       11.3230    7.8400  -10.7480 O.co2  13  GLU13      -0.2457
     22  OE2       10.4780    9.3030  -12.1900 O.co2  13  GLU13      -0.2457
     23  N          9.8620    3.5020   -9.3400 N.am   14  GLU14      -0.1979
     24  CA         9.8990    2.0750   -9.1610 C.3    14  GLU14       0.1602
     25  C          9.3310    1.5930   -7.8270 C.2    14  GLU14       0.2287
     26  O          8.9350    0.4310   -7.7310 O.2    14  GLU14      -0.2864
     27  CB        11.3310    1.5690   -9.3490 C.3    14  GLU14       0.0415
     28  CG        11.8450    1.7180  -10.7770 C.3    14  GLU14       0.1163
     29  CD        13.3500    1.5120  -10.9130 C.2    14  GLU14       0.3649
     30  OE1       14.0830    1.8760   -9.9800 O.co2  14  GLU14      -0.2457
     31  OE2       13.7830    0.9750  -11.9680 O.co2  14  GLU14      -0.2457
     32  N         20.2530    5.4520   -7.6650 N.3    52  ILE52      -0.1245
     33  CA        20.7360    4.8240   -8.8820 C.3    52  ILE52       0.1561
     34  C         22.2280    4.4810   -8.8170 C.2    52  ILE52       0.2260
     35  O         23.0530    5.2940   -8.3800 O.2    52  ILE52      -0.2867
     36  CB        20.4110    5.7350  -10.0900 C.3    52  ILE52       0.0252
     37  CG1       18.8800    5.7720  -10.3150 C.3    52  ILE52       0.0019
     38  CG2       21.1560    5.2760  -11.3480 C.3    52  ILE52       0.0019
     39  CD1       18.3810    6.8860  -11.2140 C.3    52  ILE52       0.0001
     40  N         12.9200   -1.3950  -13.2980 N.3    78  SER78      -0.1217
     41  CA        13.0620   -1.4470  -14.7270 C.3    78  SER78       0.1889
     42  C         14.3530   -2.1270  -15.1520 C.2    78  SER78       0.2288
     43  O         15.2550   -2.3340  -14.3550 O.2    78  SER78      -0.2866
     44  CB        13.0330   -0.0150  -15.2840 C.3    78  SER78       0.2089
     45  OG        14.1410    0.7520  -14.8210 O.3    78  SER78      -0.2183
     46  N         24.0760    3.7880  -18.3490 N.3   153  PHE153     -0.1241
     47  CA        22.8090    3.5830  -19.0300 C.3   153  PHE153      0.1605
     48  C         23.1100    3.2310  -20.4870 C.2   153  PHE153      0.2264
     49  O         23.7080    4.0040  -21.2210 O.2   153  PHE153     -0.2867
     50  CB        21.9050    4.7970  -18.9240 C.3   153  PHE153      0.0534
     51  CG        20.5240    4.5440  -19.4620 C.ar  153  PHE153     -0.0203
     52  CD1       20.2410    4.8290  -20.7980 C.ar  153  PHE153     -0.0042
     53  CD2       19.5430    3.9900  -18.6650 C.ar  153  PHE153     -0.0042
     54  CE1       18.9770    4.5730  -21.2950 C.ar  153  PHE153     -0.0003
     55  CE2       18.2760    3.7550  -19.1530 C.ar  153  PHE153     -0.0003
     56  CZ        18.0090    4.0360  -20.4700 C.ar  153  PHE153     -0.0000
     57  N         21.4050   -1.2240  -13.4780 N.3   175  MET175     -0.1230
     58  CA        22.4420   -0.4470  -12.7860 C.3   175  MET175      0.1702
     59  C         22.6060   -0.7430  -11.2900 C.2   175  MET175      0.2592
     60  O         23.3310   -0.0060  -10.6140 O.2   175  MET175     -0.2718
     61  CB        22.2220    1.0520  -13.0180 C.3   175  MET175      0.0401
     62  CG        22.3260    1.4120  -14.5220 C.3   175  MET175      0.0596
     63  SD        21.9900    3.1430  -14.8510 S.3   175  MET175     -0.1393
     64  CE        23.3950    3.9320  -14.0590 C.3   175  MET175      0.0692
     65  N         21.9560   -1.7860  -10.7640 N.am  176  GLU176     -0.1979
     66  CA        22.0090   -2.0710   -9.3300 C.3   176  GLU176      0.1602
     67  C         22.1070   -3.5340   -8.9480 C.2   176  GLU176      0.2287
     68  O         22.5880   -3.8310   -7.8410 O.2   176  GLU176     -0.2864
     69  CB        20.8130   -1.4780   -8.5750 C.3   176  GLU176      0.0415
     70  CG        20.6420    0.0120   -8.6810 C.3   176  GLU176      0.1163
     71  CD        19.9480    0.4970   -9.9100 C.2   176  GLU176      0.3649
     72  OE1       20.1660    1.6930  -10.2680 O.co2 176  GLU176     -0.2457
     73  OE2       19.1610   -0.2580  -10.4990 O.co2 176  GLU176     -0.2457
     74  N         12.7620    4.4760  -22.2640 N.3   209  PHE209     -0.1227
     75  CA        12.7460    4.5220  -20.8040 C.3   209  PHE209      0.1736
     76  C         11.8320    5.6260  -20.2830 C.2   209  PHE209      0.2595
     77  O         11.0310    5.4280  -19.3680 O.2   209  PHE209     -0.2718
     78  CB        14.1630    4.7020  -20.3080 C.3   209  PHE209      0.0547
     79  CG        14.3060    4.7510  -18.8200 C.ar  209  PHE209     -0.0202
     80  CD1       14.3120    5.9650  -18.1430 C.ar  209  PHE209     -0.0042
     81  CD2       14.4420    3.5780  -18.1090 C.ar  209  PHE209     -0.0042
     82  CE1       14.4560    5.9980  -16.7760 C.ar  209  PHE209     -0.0003
     83  CE2       14.5910    3.6140  -16.7380 C.ar  209  PHE209     -0.0003
     84  CZ        14.5920    4.8190  -16.0830 C.ar  209  PHE209     -0.0000
     85  N         11.9820    6.8130  -20.8420 N.am  210  ASP210     -0.1974
     86  CA        11.1170    7.9190  -20.4440 C.3   210  ASP210      0.1709
     87  C          9.6430    7.5880  -20.6050 C.2   210  ASP210      0.2293
     88  O          8.8160    7.8860  -19.7220 O.2   210  ASP210     -0.2864
     89  CB        11.4610    9.1850  -21.2350 C.3   210  ASP210      0.1436
     90  CG        12.6040    9.9830  -20.6160 C.2   210  ASP210      0.3671
     91  OD1       12.8140   11.1330  -21.0440 O.co2 210  ASP210     -0.2456
     92  OD2       13.2810    9.4970  -19.6910 O.co2 210  ASP210     -0.2456
     93  N          8.8640    3.7250  -18.4080 N.3   213  LEU213     -0.1245
     94  CA         9.2090    3.4700  -17.0120 C.3   213  LEU213      0.1561
     95  C          7.9700    3.1290  -16.1900 C.2   213  LEU213      0.2260
     96  O          8.0090    2.1950  -15.3990 O.2   213  LEU213     -0.2867
     97  CB         9.9940    4.6210  -16.3980 C.3   213  LEU213      0.0270
     98  CG        10.3640    4.5150  -14.9150 C.3   213  LEU213      0.0019
     99  CD1       11.2410    3.3180  -14.6590 C.3   213  LEU213      0.0001
    100  CD2       11.0910    5.8010  -14.5440 C.3   213  LEU213      0.0001
@<TRIPOS>BOND
     1    74    75    1
     2    54    52   ar
     3    54    56   ar
     4    89    90    1
     5    89    86    1
     6    49    48    2
     7    91    90   ar
     8    85    86    1
     9    85    76   am
    10    75    78    1
    11    75    76    1
    12    52    51   ar
    13    90    92   ar
    14    87    86    1
    15    87    88    2
    16    48    47    1
    17    56    55   ar
    18    78    79    1
    19    76    77    2
    20    51    50    1
    21    51    53   ar
    22    55    53   ar
    23    47    50    1
    24    47    46    1
    25    79    80   ar
    26    79    81   ar
    27    93    94    1
    28    80    82   ar
    29    81    83   ar
    30    94    97    1
    31    94    95    1
    32    82    84   ar
    33    83    84   ar
    34    97    98    1
    35    95    96    2
    36    44    45    1
    37    44    41    1
    38    42    41    1
    39    42    43    2
    40    98    99    1
    41    98   100    1
    42    63    62    1
    43    63    64    1
    44    41    40    1
    45    62    61    1
    46    57    58    1
    47    61    58    1
    48    58    59    1
    49    13    12    1
    50    12    11    1
    51    22    20   ar
    52    31    29   ar
    53    19    20    1
    54    19    18    1
    55    20    21   ar
    56    18    15    1
    57    38    36    1
    58    59    65   am
    59    59    60    2
    60    39    37    1
    61    29    28    1
    62    29    30   ar
    63    28    27    1
    64    65    66    1
    65    11    10    1
    66    73    71   ar
    67    37    36    1
    68    72    71   ar
    69    36    33    1
    70    17    16    2
    71    15    16    1
    72    15    14    1
    73    71    70    1
    74    10     7    1
    75    16    23   am
    76    27    24    1
    77    23    24    1
    78    66    67    1
    79    66    69    1
    80    24    25    1
    81    67    68    2
    82    33    34    1
    83    33    32    1
    84    34    35    2
    85    70    69    1
    86     5     2    1
    87     7     6    1
    88     7     8    1
    89     6     3   am
    90    25    26    2
    91     8     9    2
    92     2     1    1
    93     2     3    1
    94     3     4    2
