@<TRIPOS>MOLECULE
tmp/4f1wA01.pdb
 93 88 0 0 0
SMALL
GASTEIGER

@<TRIPOS>ATOM
      1  N         47.1830   -3.8260    2.4770 N.3    10  GLU10      -0.1245
      2  CA        47.1140   -4.8700    3.4800 C.3    10  GLU10       0.1567
      3  C         48.1330   -4.6630    4.5910 C.2    10  GLU10       0.2260
      4  O         47.8130   -4.7650    5.7920 O.2    10  GLU10      -0.2867
      5  CB        47.3420   -6.2300    2.7900 C.3    10  GLU10       0.0388
      6  CG        46.1450   -6.6490    1.9510 C.3    10  GLU10       0.1160
      7  CD        46.3900   -7.8370    1.0410 C.2    10  GLU10       0.3649
      8  OE1       47.5000   -8.4140    1.0710 O.co2  10  GLU10      -0.2457
      9  OE2       45.4510   -8.1860    0.2910 O.co2  10  GLU10      -0.2457
     10  N         38.0250   -4.7190   -2.9330 N.3    50  ILE50      -0.1245
     11  CA        38.3430   -4.3050   -4.2620 C.3    50  ILE50       0.1561
     12  C         37.1160   -3.9700   -5.0620 C.2    50  ILE50       0.2260
     13  O         36.2060   -4.7820   -5.2210 O.2    50  ILE50      -0.2867
     14  CB        39.1790   -5.3660   -5.0000 C.3    50  ILE50       0.0252
     15  CG1       40.3940   -5.7600   -4.1780 C.3    50  ILE50       0.0019
     16  CG2       39.5280   -4.8920   -6.4080 C.3    50  ILE50       0.0019
     17  CD1       41.4350   -4.7070   -4.0990 C.3    50  ILE50       0.0001
     18  N         46.9970    3.1210   -2.5770 N.3    76  SER76      -0.1202
     19  CA        47.9170    3.4620   -3.6400 C.3    76  SER76       0.2020
     20  C         47.1080    3.7660   -4.8920 C.2    76  SER76       0.2619
     21  O         45.9340    3.3990   -5.0260 O.2    76  SER76      -0.2717
     22  CB        48.9230    2.3360   -3.8930 C.3    76  SER76       0.2103
     23  OG        48.3130    1.2220   -4.4990 O.3    76  SER76      -0.2182
     24  N         47.7410    4.4280   -5.8370 N.am   77  ALA77      -0.1965
     25  CA        47.0890    4.7430   -7.0950 C.3    77  ALA77       0.1728
     26  C         48.1110    4.8770   -8.2200 C.2    77  ALA77       0.2616
     27  O         49.3260    5.0640   -7.9910 O.2    77  ALA77      -0.2715
     28  CB        46.3000    6.0320   -6.9900 C.3    77  ALA77       0.0334
     29  N         47.5920    4.8300   -9.4340 N.am   78  GLY78      -0.1955
     30  CA        48.3620    5.1560  -10.6340 C.3    78  GLY78       0.1869
     31  C         48.3220    6.6620  -10.8890 C.2    78  GLY78       0.2309
     32  O         47.2730    7.2930  -10.7760 O.2    78  GLY78      -0.2863
     33  N         40.6110   -2.1750  -13.7370 N.3   151  PHE151     -0.1241
     34  CA        42.0140   -1.9080  -13.4460 C.3   151  PHE151      0.1605
     35  C         42.6880   -1.4260  -14.7280 C.2   151  PHE151      0.2264
     36  O         42.6920   -2.1330  -15.7190 O.2   151  PHE151     -0.2867
     37  CB        42.7310   -3.1490  -12.9680 C.3   151  PHE151      0.0534
     38  CG        44.1690   -2.9190  -12.7270 C.ar  151  PHE151     -0.0203
     39  CD1       45.0880   -3.3450  -13.6510 C.ar  151  PHE151     -0.0042
     40  CD2       44.6040   -2.2280  -11.6100 C.ar  151  PHE151     -0.0042
     41  CE1       46.4410   -3.1270  -13.4700 C.ar  151  PHE151     -0.0003
     42  CE2       45.9590   -2.0040  -11.4110 C.ar  151  PHE151     -0.0003
     43  CZ        46.8810   -2.4580  -12.3460 C.ar  151  PHE151     -0.0000
     44  N         44.4040    7.6400  -10.5880 N.3   171  VAL171     -0.1231
     45  CA        43.3560    6.6930  -10.8220 C.3   171  VAL171      0.1692
     46  C         43.5280    5.4550   -9.9500 C.2   171  VAL171      0.2592
     47  O         44.6500    4.9290   -9.8030 O.2   171  VAL171     -0.2718
     48  CB        43.2980    6.3090  -12.3260 C.3   171  VAL171      0.0266
     49  CG1       44.6130    5.7370  -12.8390 C.3   171  VAL171      0.0020
     50  CG2       42.1700    5.3210  -12.5890 C.3   171  VAL171      0.0020
     51  N         42.4190    4.9480   -9.4230 N.am  172  GLU172     -0.1966
     52  CA        42.4140    3.6800   -8.7170 C.3   172  GLU172      0.1733
     53  C         40.9850    3.1150   -8.7110 C.2   172  GLU172      0.2616
     54  O         40.2060    3.4680   -9.5980 O.2   172  GLU172     -0.2715
     55  CB        43.1430    3.8000   -7.3790 C.3   172  GLU172      0.0429
     56  CG        42.7240    4.9810   -6.5640 C.3   172  GLU172      0.1163
     57  CD        41.3690    4.7920   -5.9810 C.2   172  GLU172      0.3649
     58  OE1       41.2620    4.2230   -4.8560 O.co2 172  GLU172     -0.2457
     59  OE2       40.4270    5.1910   -6.6520 O.co2 172  GLU172     -0.2457
     60  N         40.6580    2.2430   -7.7670 N.am  173  MET173     -0.1963
     61  CA        39.4010    1.4880   -7.8700 C.3   173  MET173      0.1736
     62  C         38.4160    1.6430   -6.7030 C.2   173  MET173      0.2616
     63  O         37.3360    1.0730   -6.7550 O.2   173  MET173     -0.2715
     64  CB        39.6890   -0.0070   -8.0720 C.3   173  MET173      0.0427
     65  CG        40.4710   -0.2790   -9.3460 C.3   173  MET173      0.0599
     66  SD        40.8330   -2.0210   -9.6030 S.3   173  MET173     -0.1393
     67  CE        39.1970   -2.7260   -9.7290 C.3   173  MET173      0.0692
     68  N         38.7470    2.3820   -5.6500 N.am  174  GLU174     -0.1977
     69  CA        37.8410    2.4970   -4.5150 C.3   174  GLU174      0.1602
     70  C         37.5430    3.9120   -4.0430 C.2   174  GLU174      0.2287
     71  O         36.5830    4.0980   -3.3000 O.2   174  GLU174     -0.2864
     72  CB        38.3030    1.6670   -3.3000 C.3   174  GLU174      0.0415
     73  CG        38.3410    0.1720   -3.5410 C.3   174  GLU174      0.1163
     74  CD        39.5970   -0.3410   -4.1870 C.2   174  GLU174      0.3649
     75  OE1       40.6970    0.1290   -3.8360 O.co2 174  GLU174     -0.2457
     76  OE2       39.4810   -1.2460   -5.0180 O.co2 174  GLU174     -0.2457
     77  N         52.1180    4.6660   -7.1110 N.3   196  SER196     -0.1217
     78  CA        52.9490    3.4820   -7.3270 C.3   196  SER196      0.1889
     79  C         53.6310    3.4770   -8.6790 C.2   196  SER196      0.2288
     80  O         54.6820    2.8590   -8.8350 O.2   196  SER196     -0.2866
     81  CB        52.1010    2.2200   -7.2070 C.3   196  SER196      0.2089
     82  OG        51.0980    2.1750   -8.2070 O.3   196  SER196     -0.2183
     83  N         55.6770   -3.6320   -7.9170 N.3   207  PHE207     -0.1241
     84  CA        54.5800   -3.2270   -7.0310 C.3   207  PHE207      0.1605
     85  C         54.7740   -3.7250   -5.5830 C.2   207  PHE207      0.2264
     86  O         54.5290   -2.9970   -4.6300 O.2   207  PHE207     -0.2867
     87  CB        53.2260   -3.6660   -7.5770 C.3   207  PHE207      0.0534
     88  CG        52.0550   -3.0930   -6.8190 C.ar  207  PHE207     -0.0203
     89  CD1       51.8200   -1.7320   -6.8170 C.ar  207  PHE207     -0.0042
     90  CD2       51.1970   -3.9180   -6.1070 C.ar  207  PHE207     -0.0042
     91  CE1       50.7360   -1.1960   -6.1250 C.ar  207  PHE207     -0.0003
     92  CE2       50.1190   -3.3960   -5.4130 C.ar  207  PHE207     -0.0003
     93  CZ        49.8820   -2.0300   -5.4220 C.ar  207  PHE207     -0.0000
@<TRIPOS>BOND
     1    36    35    2
     2    35    34    1
     3    33    34    1
     4    39    41   ar
     5    39    38   ar
     6    41    43   ar
     7    34    37    1
     8    37    38    1
     9    49    48    1
    10    38    40   ar
    11    50    48    1
    12    43    42   ar
    13    48    45    1
    14    40    42   ar
    15    31    32    2
    16    31    30    1
    17    45    44    1
    18    45    46    1
    19    30    29    1
    20    46    47    2
    21    46    51   am
    22    67    66    1
    23    66    65    1
    24    54    53    2
    25    29    26   am
    26    51    52    1
    27    65    64    1
    28    80    79    2
    29    52    53    1
    30    52    55    1
    31    53    60   am
    32    79    78    1
    33    26    27    2
    34    26    25    1
    35    82    81    1
    36    64    61    1
    37    83    84    1
    38    61    60    1
    39    61    62    1
    40    87    84    1
    41    87    88    1
    42    55    56    1
    43    78    81    1
    44    78    77    1
    45    25    28    1
    46    25    24    1
    47    84    85    1
    48    88    89   ar
    49    88    90   ar
    50    89    91   ar
    51    63    62    2
    52    62    68   am
    53    59    57   ar
    54    56    57    1
    55    16    14    1
    56    91    93   ar
    57    90    92   ar
    58    57    58   ar
    59    24    20   am
    60    68    69    1
    61    85    86    2
    62    93    92   ar
    63    13    12    2
    64    12    11    1
    65    21    20    2
    66    76    74   ar
    67    14    11    1
    68    14    15    1
    69    20    19    1
    70    69    70    1
    71    69    72    1
    72    23    22    1
    73    11    10    1
    74    74    75   ar
    75    74    73    1
    76    15    17    1
    77    70    71    2
    78    22    19    1
    79    19    18    1
    80    73    72    1
    81     9     7   ar
    82     7     8   ar
    83     7     6    1
    84     6     5    1
    85     1     2    1
    86     5     2    1
    87     2     3    1
    88     3     4    2
