@<TRIPOS>MOLECULE
tmp/4f2aA05.pdb
 208 194 0 0 0
SMALL
GASTEIGER

@<TRIPOS>ATOM
      1  N         -5.4220    3.1990  -27.4850 N.3     7  ILE7       -0.1245
      2  CA        -6.5590    2.5510  -28.1340 C.3     7  ILE7        0.1561
      3  C         -6.0260    1.4190  -29.0320 C.2     7  ILE7        0.2260
      4  O         -5.0250    1.6190  -29.7200 O.2     7  ILE7       -0.2867
      5  CB        -7.4480    3.5670  -28.9070 C.3     7  ILE7        0.0252
      6  CG1       -7.9760    4.6740  -27.9690 C.3     7  ILE7        0.0019
      7  CG2       -8.6090    2.8470  -29.5440 C.3     7  ILE7        0.0019
      8  CD1       -8.5620    5.8780  -28.6180 C.3     7  ILE7        0.0001
      9  N         -7.5080   -1.6430  -31.9110 N.3     9  CYS9       -0.1235
     10  CA        -8.6410   -2.1560  -32.7280 C.3     9  CYS9        0.1677
     11  C         -8.3670   -3.5610  -33.1940 C.2     9  CYS9        0.2270
     12  O         -7.2900   -3.8230  -33.7410 O.2     9  CYS9       -0.2867
     13  CB        -8.9720   -1.2510  -33.9090 C.3     9  CYS9        0.0956
     14  SG        -9.3110    0.4530  -33.4370 S.3     9  CYS9       -0.0801
     15  N         -9.9880   -6.5550  -35.5600 N.3    11  ILE11      -0.1245
     16  CA       -10.9040   -6.9440  -36.6010 C.3    11  ILE11       0.1561
     17  C        -10.5800   -8.4320  -36.8840 C.2    11  ILE11       0.2260
     18  O         -9.4690   -8.7840  -37.3000 O.2    11  ILE11      -0.2867
     19  CB       -10.9180   -5.9420  -37.8190 C.3    11  ILE11       0.0252
     20  CG1      -11.1160   -6.6470  -39.1310 C.3    11  ILE11       0.0019
     21  CG2       -9.7200   -4.9930  -37.8890 C.3    11  ILE11       0.0019
     22  CD1      -12.4540   -7.1050  -39.3200 C.3    11  ILE11       0.0001
     23  N          0.2390   -5.1290  -44.3220 N.3   125  LEU125     -0.1245
     24  CA        -0.0320   -3.8830  -43.6060 C.3   125  LEU125      0.1561
     25  C          1.1580   -3.3920  -42.8050 C.2   125  LEU125      0.2260
     26  O          1.7860   -4.1600  -42.0610 O.2   125  LEU125     -0.2867
     27  CB        -1.2460   -4.0190  -42.6880 C.3   125  LEU125      0.0270
     28  CG        -2.5990   -4.0040  -43.3440 C.3   125  LEU125      0.0019
     29  CD1       -3.0410   -5.3950  -43.6780 C.3   125  LEU125      0.0001
     30  CD2       -3.5900   -3.4720  -42.4040 C.3   125  LEU125      0.0001
     31  N         -1.9270    3.9520  -41.5230 N.3   132  VAL132     -0.1245
     32  CA        -1.9130    2.5630  -41.9740 C.3   132  VAL132      0.1561
     33  C         -1.8080    2.4430  -43.4970 C.2   132  VAL132      0.2260
     34  O         -2.6510    2.9890  -44.2210 O.2   132  VAL132     -0.2867
     35  CB        -2.9420    1.6260  -41.2890 C.3   132  VAL132      0.0252
     36  CG1       -4.3830    2.0950  -41.4860 C.3   132  VAL132      0.0019
     37  CG2       -2.7460    0.1720  -41.7230 C.3   132  VAL132      0.0019
     38  N         -7.7280    2.4330  -46.7710 N.3   191  ALA191     -0.1245
     39  CA        -6.9320    2.6050  -45.5610 C.3   191  ALA191      0.1562
     40  C         -6.8170    4.0630  -45.1320 C.2   191  ALA191      0.2260
     41  O         -7.1360    4.3560  -43.9830 O.2   191  ALA191     -0.2867
     42  CB        -5.5530    2.0100  -45.7600 C.3   191  ALA191      0.0290
     43  N         -8.7040    6.6610  -46.1450 N.3   193  PHE193     -0.1227
     44  CA       -10.0590    7.1200  -45.8750 C.3   193  PHE193      0.1736
     45  C        -10.5910    6.5890  -44.5350 C.2   193  PHE193      0.2595
     46  O        -11.1300    7.3710  -43.7440 O.2   193  PHE193     -0.2718
     47  CB       -11.0100    6.7810  -47.0430 C.3   193  PHE193      0.0547
     48  CG       -12.4610    6.6830  -46.6360 C.ar  193  PHE193     -0.0202
     49  CD1      -13.2410    7.8280  -46.5100 C.ar  193  PHE193     -0.0042
     50  CD2      -13.0280    5.4520  -46.3090 C.ar  193  PHE193     -0.0042
     51  CE1      -14.5610    7.7440  -46.0830 C.ar  193  PHE193     -0.0003
     52  CE2      -14.3430    5.3690  -45.8660 C.ar  193  PHE193     -0.0003
     53  CZ       -15.1050    6.5150  -45.7650 C.ar  193  PHE193     -0.0000
     54  N        -10.4550    5.2660  -44.2980 N.am  194  VAL194     -0.1966
     55  CA       -10.9400    4.6030  -43.0880 C.3   194  VAL194      0.1727
     56  C        -10.3580    5.2740  -41.8760 C.2   194  VAL194      0.2616
     57  O        -11.1130    5.7020  -41.0010 O.2   194  VAL194     -0.2715
     58  CB       -10.7200    3.0760  -43.1060 C.3   194  VAL194      0.0290
     59  CG1      -10.9200    2.4650  -41.7240 C.3   194  VAL194      0.0023
     60  CG2      -11.6480    2.4250  -44.1220 C.3   194  VAL194      0.0023
     61  N         -9.0280    5.4540  -41.8750 N.am  195  GLN195     -0.1977
     62  CA        -8.3330    6.1390  -40.8030 C.3   195  GLN195      0.1601
     63  C         -8.8730    7.5780  -40.6490 C.2   195  GLN195      0.2287
     64  O         -9.3730    7.9000  -39.5740 O.2   195  GLN195     -0.2864
     65  CB        -6.8150    6.1080  -41.0190 C.3   195  GLN195      0.0394
     66  CG        -6.0700    6.6830  -39.8150 C.3   195  GLN195      0.0908
     67  CD        -4.5990    6.4130  -39.7970 C.2   195  GLN195      0.2608
     68  OE1       -3.8240    7.1580  -39.1840 O.2   195  GLN195     -0.2717
     69  NE2       -4.1920    5.3350  -40.4410 N.am  195  GLN195     -0.0878
     70  N        -11.7170    9.0380  -41.6270 N.3   197  ARG197     -0.1231
     71  CA       -13.1100    9.0020  -41.1490 C.3   197  ARG197      0.1694
     72  C        -13.1930    8.5520  -39.6590 C.2   197  ARG197      0.2591
     73  O        -14.0840    8.9730  -38.9280 O.2   197  ARG197     -0.2718
     74  CB       -13.9960    8.1560  -42.0800 C.3   197  ARG197      0.0321
     75  CG       -15.4960    8.4060  -41.9040 C.3   197  ARG197      0.0489
     76  CD       -16.1730    8.8850  -43.1810 C.3   197  ARG197      0.2205
     77  NE       -17.6180    8.6100  -43.1890 N.pl3 197  ARG197     -0.0865
     78  CZ       -18.4140    8.7510  -44.2510 C.cat 197  ARG197      0.5346
     79  NH1      -17.9170    9.1570  -45.4150 N.pl3 197  ARG197      0.1354
     80  NH2      -19.7110    8.4860  -44.1560 N.pl3 197  ARG197      0.1354
     81  N        -12.2240    7.7640  -39.2050 N.am  198  ALA198     -0.1980
     82  CA       -12.1570    7.3230  -37.8180 C.3   198  ALA198      0.1597
     83  C        -11.6970    8.4540  -36.9120 C.2   198  ALA198      0.2287
     84  O        -12.1590    8.5520  -35.7760 O.2   198  ALA198     -0.2864
     85  CB       -11.2100    6.1560  -37.6970 C.3   198  ALA198      0.0319
     86  N        -14.6130   10.7500  -36.5550 N.3   201  ILE201     -0.1231
     87  CA       -15.5500   10.2170  -35.5590 C.3   201  ILE201      0.1692
     88  C        -15.0990   10.7030  -34.1960 C.2   201  ILE201      0.2591
     89  O        -15.8160   11.4520  -33.5360 O.2   201  ILE201     -0.2718
     90  CB       -15.6580    8.6520  -35.6000 C.3   201  ILE201      0.0266
     91  CG1      -16.4910    8.1930  -36.8220 C.3   201  ILE201      0.0019
     92  CG2      -16.2240    8.0870  -34.2760 C.3   201  ILE201      0.0020
     93  CD1      -16.8050    6.6780  -36.9430 C.3   201  ILE201      0.0001
     94  N        -13.8770   10.3290  -33.8170 N.am  202  LEU202     -0.1980
     95  CA       -13.2880   10.6410  -32.5270 C.3   202  LEU202      0.1596
     96  C        -12.8970   12.1220  -32.2930 C.2   202  LEU202      0.2287
     97  O        -12.0640   12.3990  -31.4220 O.2   202  LEU202     -0.2864
     98  CB       -12.1000    9.6970  -32.3200 C.3   202  LEU202      0.0297
     99  CG       -12.4360    8.3120  -31.7920 C.3   202  LEU202      0.0022
    100  CD1      -11.4360    7.3000  -32.2640 C.3   202  LEU202      0.0001
    101  CD2      -12.4860    8.3110  -30.2960 C.3   202  LEU202      0.0001
    102  N         -4.8410    9.1570  -33.3370 N.3   211  ILE211     -0.1245
    103  CA        -4.9030    7.7270  -33.6950 C.3   211  ILE211      0.1561
    104  C         -3.6440    7.2070  -34.3770 C.2   211  ILE211      0.2260
    105  O         -3.6650    6.1160  -34.9540 O.2   211  ILE211     -0.2867
    106  CB        -6.2230    7.2390  -34.3700 C.3   211  ILE211      0.0252
    107  CG1       -6.5420    8.0440  -35.6630 C.3   211  ILE211      0.0019
    108  CG2       -7.3700    7.1860  -33.3660 C.3   211  ILE211      0.0019
    109  CD1       -7.7440    7.6200  -36.4780 C.3   211  ILE211      0.0001
    110  N         -0.5390    5.2520  -35.3290 N.3   213  LEU213     -0.1245
    111  CA        -0.1840    3.8790  -34.9860 C.3   213  LEU213      0.1561
    112  C          1.0960    3.8720  -34.1750 C.2   213  LEU213      0.2260
    113  O          2.0600    4.5620  -34.5130 O.2   213  LEU213     -0.2867
    114  CB        -0.0180    2.9600  -36.2030 C.3   213  LEU213      0.0270
    115  CG        -1.2070    2.7430  -37.1360 C.3   213  LEU213      0.0019
    116  CD1       -0.8890    1.6510  -38.1540 C.3   213  LEU213      0.0001
    117  CD2       -2.4650    2.4010  -36.3910 C.3   213  LEU213      0.0001
    118  N          0.4930   -2.9370  -37.9310 N.3   217  PRO217     -0.2116
    119  CA        -0.6030   -3.7670  -37.3970 C.3   217  PRO217      0.1372
    120  C         -0.2080   -5.2280  -37.2780 C.2   217  PRO217      0.2244
    121  O          0.7680   -5.6600  -37.9080 O.2   217  PRO217     -0.2868
    122  CB        -1.7620   -3.5380  -38.3730 C.3   217  PRO217      0.0268
    123  CG        -1.3590   -2.3750  -39.2210 C.3   217  PRO217      0.0207
    124  CD         0.1360   -2.3560  -39.2380 C.3   217  PRO217      0.0892
    125  N         -6.5910   -9.4130  -37.1870 N.3   224  LEU224     -0.1245
    126  CA        -5.7590   -8.3280  -37.6450 C.3   224  LEU224      0.1561
    127  C         -6.0090   -7.2450  -36.5820 C.2   224  LEU224      0.2260
    128  O         -7.1550   -7.0690  -36.1770 O.2   224  LEU224     -0.2867
    129  CB        -6.1950   -7.9780  -39.0750 C.3   224  LEU224      0.0270
    130  CG        -6.7120   -6.6050  -39.4480 C.3   224  LEU224      0.0019
    131  CD1       -5.5730   -5.7120  -39.9150 C.3   224  LEU224      0.0001
    132  CD2       -7.6900   -6.7210  -40.5990 C.3   224  LEU224      0.0001
    133  N         -4.6850   -3.2130  -34.8760 N.3   226  SER226     -0.1217
    134  CA        -3.8760   -1.9770  -34.8960 C.3   226  SER226      0.1889
    135  C         -3.8270   -1.3550  -33.5250 C.2   226  SER226      0.2288
    136  O         -4.8050   -1.4570  -32.7820 O.2   226  SER226     -0.2866
    137  CB        -4.3860   -0.9660  -35.9220 C.3   226  SER226      0.2089
    138  OG        -5.7420   -0.5970  -35.7280 O.3   226  SER226     -0.2183
    139  N         -2.9670    2.2330  -31.3750 N.3   228  HIS228     -0.1241
    140  CA        -2.9180    3.6980  -31.4740 C.3   228  HIS228      0.1621
    141  C         -2.6800    4.4180  -30.1260 C.2   228  HIS228      0.2264
    142  O         -2.9450    3.8560  -29.0640 O.2   228  HIS228     -0.2867
    143  CB        -4.1840    4.2300  -32.1850 C.3   228  HIS228      0.0745
    144  CG        -4.8290    3.2490  -33.1370 C.ar  228  HIS228      0.0817
    145  ND1       -4.9450    3.5230  -34.4830 N.ar  228  HIS228     -0.2268
    146  CD2       -5.4030    2.0410  -32.8910 C.ar  228  HIS228      0.1154
    147  CE1       -5.5540    2.4710  -35.0110 C.ar  228  HIS228      0.1986
    148  NE2       -5.8400    1.5530  -34.0930 N.ar  228  HIS228     -0.2212
    149  N        -15.5720   -7.1190  -34.1980 N.3   257  LEU257     -0.1245
    150  CA       -14.8410   -5.9260  -33.8250 C.3   257  LEU257      0.1561
    151  C        -14.6470   -5.8420  -32.3390 C.2   257  LEU257      0.2260
    152  O        -15.6000   -5.9990  -31.5710 O.2   257  LEU257     -0.2867
    153  CB       -15.6850   -4.7370  -34.2610 C.3   257  LEU257      0.0270
    154  CG       -15.1740   -3.8600  -35.3320 C.3   257  LEU257      0.0019
    155  CD1      -14.8520   -4.6270  -36.5610 C.3   257  LEU257      0.0001
    156  CD2      -16.2010   -2.8720  -35.6710 C.3   257  LEU257      0.0001
    157  N        -12.6830   -3.3080  -29.3280 N.3   259  PHE259     -0.1241
    158  CA       -12.0540   -2.0340  -29.0590 C.3   259  PHE259      0.1605
    159  C        -11.6220   -2.0070  -27.6390 C.2   259  PHE259      0.2264
    160  O        -12.3960   -2.3450  -26.7410 O.2   259  PHE259     -0.2867
    161  CB       -12.9670   -0.8650  -29.3960 C.3   259  PHE259      0.0534
    162  CG       -13.2980   -0.8100  -30.8630 C.ar  259  PHE259     -0.0203
    163  CD1      -14.5080   -1.3030  -31.3380 C.ar  259  PHE259     -0.0042
    164  CD2      -12.3930   -0.2840  -31.7780 C.ar  259  PHE259     -0.0042
    165  CE1      -14.8270   -1.2210  -32.6980 C.ar  259  PHE259     -0.0003
    166  CE2      -12.7160   -0.2070  -33.1370 C.ar  259  PHE259     -0.0003
    167  CZ       -13.9320   -0.6680  -33.5850 C.ar  259  PHE259     -0.0000
    168  N         -9.7850    0.4220  -24.7480 N.3   261  PHE261     -0.1241
    169  CA        -9.4360    1.8000  -24.4070 C.3   261  PHE261      0.1605
    170  C         -8.8910    1.8520  -22.9860 C.2   261  PHE261      0.2264
    171  O         -9.5450    1.3430  -22.0710 O.2   261  PHE261     -0.2867
    172  CB       -10.6510    2.7390  -24.4890 C.3   261  PHE261      0.0534
    173  CG       -11.4170    2.8630  -25.7770 C.ar  261  PHE261     -0.0203
    174  CD1      -12.4180    1.9560  -26.0960 C.ar  261  PHE261     -0.0042
    175  CD2      -11.2580    3.9750  -26.5880 C.ar  261  PHE261     -0.0042
    176  CE1      -13.1940    2.1170  -27.2500 C.ar  261  PHE261     -0.0003
    177  CE2      -12.0450    4.1460  -27.7320 C.ar  261  PHE261     -0.0003
    178  CZ       -13.0250    3.2260  -28.0450 C.ar  261  PHE261     -0.0000
    179  N        -24.2160    2.1080  -39.7420 N.3   437  PHE437     -0.1241
    180  CA       -23.8560    0.6900  -39.7650 C.3   437  PHE437      0.1605
    181  C        -24.7930   -0.0440  -38.8360 C.2   437  PHE437      0.2264
    182  O        -25.2260    0.5260  -37.8290 O.2   437  PHE437     -0.2867
    183  CB       -22.4140    0.4240  -39.2980 C.3   437  PHE437      0.0534
    184  CG       -21.3290    1.4240  -39.6250 C.ar  437  PHE437     -0.0203
    185  CD1      -21.1320    2.5510  -38.8220 C.ar  437  PHE437     -0.0042
    186  CD2      -20.4330    1.1870  -40.6630 C.ar  437  PHE437     -0.0042
    187  CE1      -20.0980    3.4590  -39.0930 C.ar  437  PHE437     -0.0003
    188  CE2      -19.3900    2.0870  -40.9240 C.ar  437  PHE437     -0.0003
    189  CZ       -19.2270    3.2150  -40.1320 C.ar  437  PHE437     -0.0000
    190  N        -15.3180   -2.5100  -26.1080 N.3   453  LEU453     -0.1245
    191  CA       -16.4420   -2.4160  -27.0510 C.3   453  LEU453      0.1561
    192  C        -16.3610   -3.6800  -27.8750 C.2   453  LEU453      0.2260
    193  O        -15.4380   -3.8290  -28.6850 O.2   453  LEU453     -0.2867
    194  CB       -16.3800   -1.2070  -28.0200 C.3   453  LEU453      0.0270
    195  CG       -16.4330    0.2030  -27.4840 C.3   453  LEU453      0.0019
    196  CD1      -16.5170    1.1550  -28.5960 C.3   453  LEU453      0.0001
    197  CD2      -17.5980    0.4210  -26.5430 C.3   453  LEU453      0.0001
    198  N        -22.8100   -5.0910  -42.5600 N.3   459  PHE459     -0.1241
    199  CA       -22.3250   -4.0400  -43.4210 C.3   459  PHE459      0.1605
    200  C        -23.3690   -3.5490  -44.4010 C.2   459  PHE459      0.2264
    201  O        -23.9150   -4.3790  -45.1280 O.2   459  PHE459     -0.2867
    202  CB       -20.9950   -4.3630  -44.1100 C.3   459  PHE459      0.0534
    203  CG       -20.4200   -3.0610  -44.5990 C.ar  459  PHE459     -0.0203
    204  CD1      -19.7740   -2.1990  -43.7210 C.ar  459  PHE459     -0.0042
    205  CD2      -20.6570   -2.6240  -45.9010 C.ar  459  PHE459     -0.0042
    206  CE1      -19.3430   -0.9470  -44.1420 C.ar  459  PHE459     -0.0003
    207  CE2      -20.2190   -1.3710  -46.3240 C.ar  459  PHE459     -0.0003
    208  CZ       -19.5610   -0.5430  -45.4430 C.ar  459  PHE459     -0.0000
@<TRIPOS>BOND
     1    47    48    1
     2    47    44    1
     3    38    39    1
     4    48    49   ar
     5    48    50   ar
     6    49    51   ar
     7   207   205   ar
     8   207   208   ar
     9    50    52   ar
    10    43    44    1
    11    51    53   ar
    12   205   203   ar
    13    44    45    1
    14    52    53   ar
    15    42    39    1
    16    39    40    1
    17   208   206   ar
    18    79    78    1
    19    40    41    2
    20   201   200    2
    21   203   202    1
    22   203   204   ar
    23    45    54   am
    24    45    46    2
    25   200   199    1
    26    23    24    1
    27    54    55    1
    28    78    80    1
    29    78    77    2
    30    34    33    2
    31   206   204   ar
    32    60    58    1
    33   202   199    1
    34    29    28    1
    35    24    25    1
    36    24    27    1
    37    33    32    1
    38   199   198    1
    39    28    27    1
    40    28    30    1
    41    77    76    1
    42    76    75    1
    43    58    55    1
    44    58    59    1
    45    55    56    1
    46    25    26    2
    47    74    75    1
    48    74    71    1
    49    32    31    1
    50    32    35    1
    51    56    61   am
    52    56    57    2
    53    61    62    1
    54    37    35    1
    55    70    71    1
    56    36    35    1
    57    71    72    1
    58    65    62    1
    59    65    66    1
    60   188   186   ar
    61   188   189   ar
    62    62    63    1
    63   186   184   ar
    64    63    64    2
    65   132   130    1
    66    69    67   am
    67   189   187   ar
    68   131   130    1
    69    66    67    1
    70    67    68    2
    71   180   179    1
    72   180   183    1
    73   180   181    1
    74    72    81   am
    75    72    73    2
    76   184   183    1
    77   184   185   ar
    78   130   129    1
    79    22    20    1
    80   124   123    1
    81   124   118    1
    82   123   122    1
    83    81    82    1
    84    20    19    1
    85   187   185   ar
    86   129   126    1
    87   181   182    2
    88   122   119    1
    89   116   115    1
    90   118   119    1
    91   121   120    2
    92    21    19    1
    93    19    16    1
    94    82    85    1
    95    82    83    1
    96   126   125    1
    97   126   127    1
    98   119   120    1
    99    18    17    2
   100   115   117    1
   101   115   114    1
   102    93    91    1
   103    83    84    2
   104    17    16    1
   105    91    90    1
   106    16    15    1
   107   127   128    2
   108   155   154    1
   109    86    87    1
   110   109   107    1
   111   114   111    1
   112   137   138    1
   113   137   134    1
   114   156   154    1
   115   107   106    1
   116    90    87    1
   117    90    92    1
   118    87    88    1
   119   154   153    1
   120   110   111    1
   121   147   145   ar
   122   147   148   ar
   123   111   112    1
   124   105   104    2
   125   134   133    1
   126   134   135    1
   127   113   112    2
   128   145   144   ar
   129   104   103    1
   130   106   103    1
   131   106   108    1
   132   153   150    1
   133   149   150    1
   134    88    94   am
   135    88    89    2
   136   148   146   ar
   137    13    14    1
   138    13    10    1
   139   150   151    1
   140    94    95    1
   141    12    11    2
   142   103   102    1
   143   167   166   ar
   144   167   165   ar
   145   135   136    2
   146    11    10    1
   147   144   146   ar
   148   144   143    1
   149   166   164   ar
   150    10     9    1
   151   165   163   ar
   152    95    98    1
   153    95    96    1
   154   151   152    2
   155    98    99    1
   156    96    97    2
   157   100    99    1
   158   143   140    1
   159    99   101    1
   160   164   162   ar
   161   140   139    1
   162   140   141    1
   163   163   162   ar
   164   162   161    1
   165   141   142    2
   166     4     3    2
   167     7     5    1
   168   161   158    1
   169   157   158    1
   170   158   159    1
   171     3     2    1
   172     5     2    1
   173     5     6    1
   174   193   192    2
   175     8     6    1
   176   196   195    1
   177     2     1    1
   178   178   177   ar
   179   178   176   ar
   180   194   195    1
   181   194   191    1
   182   192   191    1
   183   177   175   ar
   184   159   160    2
   185   195   197    1
   186   176   174   ar
   187   191   190    1
   188   175   173   ar
   189   174   173   ar
   190   173   172    1
   191   168   169    1
   192   172   169    1
   193   169   170    1
   194   170   171    2
