@<TRIPOS>MOLECULE
tmp/4f2aA04.pdb
 125 116 0 0 0
SMALL
GASTEIGER

@<TRIPOS>ATOM
      1  N        -13.9630  -10.1240  -41.5840 N.3    16  LEU16      -0.1245
      2  CA       -13.4000  -10.1740  -42.9330 C.3    16  LEU16       0.1561
      3  C        -14.2700  -10.9800  -43.8940 C.2    16  LEU16       0.2260
      4  O        -14.3820  -10.6150  -45.0610 O.2    16  LEU16      -0.2867
      5  CB       -11.9630  -10.7080  -42.9210 C.3    16  LEU16       0.0270
      6  CG       -10.8430   -9.7180  -42.5860 C.3    16  LEU16       0.0019
      7  CD1      -11.2760   -8.2450  -42.6890 C.3    16  LEU16       0.0001
      8  CD2      -10.2490  -10.0310  -41.2520 C.3    16  LEU16       0.0001
      9  N        -16.9600   -8.7160  -45.0310 N.3    19  LEU19      -0.1231
     10  CA       -16.3640   -7.7340  -45.9190 C.3    19  LEU19       0.1693
     11  C        -16.0420   -8.2960  -47.3300 C.2    19  LEU19       0.2592
     12  O        -16.1680   -7.5670  -48.3220 O.2    19  LEU19      -0.2718
     13  CB       -15.1650   -7.0590  -45.2480 C.3    19  LEU19       0.0284
     14  CG       -15.5480   -6.1360  -44.0910 C.3    19  LEU19       0.0019
     15  CD1      -14.5570   -6.2430  -42.9660 C.3    19  LEU19       0.0001
     16  CD2      -15.7740   -4.6730  -44.5600 C.3    19  LEU19       0.0001
     17  N        -15.7340   -9.6120  -47.4110 N.am   20  ASN20      -0.1974
     18  CA       -15.4490  -10.3550  -48.6440 C.3    20  ASN20       0.1688
     19  C        -16.6820  -10.4710  -49.5600 C.2    20  ASN20       0.2292
     20  O        -16.5330  -10.6800  -50.7630 O.2    20  ASN20      -0.2864
     21  CB       -14.8550  -11.7330  -48.3160 C.3    20  ASN20       0.1181
     22  CG       -14.6030  -12.6210  -49.5090 C.2    20  ASN20       0.2629
     23  OD1      -13.7900  -12.3110  -50.3880 O.2    20  ASN20      -0.2716
     24  ND2      -15.3310  -13.7310  -49.5760 N.am   20  ASN20      -0.0877
     25  N        -18.3080   -8.0620  -50.4270 N.3    22  GLU22      -0.1231
     26  CA       -18.1930   -6.8550  -51.2630 C.3    22  GLU22       0.1699
     27  C        -16.9470   -6.7610  -52.1550 C.2    22  GLU22       0.2592
     28  O        -16.8490   -5.8590  -52.9880 O.2    22  GLU22      -0.2718
     29  CB       -18.4330   -5.5800  -50.4340 C.3    22  GLU22       0.0402
     30  CG       -19.8580   -5.4430  -49.8990 C.3    22  GLU22       0.1161
     31  CD       -20.9790   -6.1540  -50.6500 C.2    22  GLU22       0.3649
     32  OE1      -21.6350   -7.0330  -50.0410 O.co2  22  GLU22      -0.2457
     33  OE2      -21.1860   -5.8510  -51.8490 O.co2  22  GLU22      -0.2457
     34  N        -16.0410   -7.7370  -52.0090 N.am   23  THR23      -0.1953
     35  CA       -14.7790   -7.8830  -52.7160 C.3    23  THR23       0.1897
     36  C        -14.9380   -7.7640  -54.2250 C.2    23  THR23       0.2313
     37  O        -14.1700   -7.0350  -54.8580 O.2    23  THR23      -0.2863
     38  CB       -14.0890   -9.1640  -52.2350 C.3    23  THR23       0.1794
     39  OG1      -13.6420   -8.9570  -50.8930 O.3    23  THR23      -0.2208
     40  CG2      -12.9110   -9.5650  -53.0950 C.3    23  THR23       0.0378
     41  N        -15.2830   -4.1630  -55.4830 N.3    26  VAL26      -0.1245
     42  CA       -14.0020   -3.4730  -55.3350 C.3    26  VAL26       0.1561
     43  C        -13.0280   -3.8860  -56.4490 C.2    26  VAL26       0.2260
     44  O        -12.3760   -3.0270  -57.0400 O.2    26  VAL26      -0.2867
     45  CB       -13.4220   -3.6990  -53.9230 C.3    26  VAL26       0.0252
     46  CG1      -12.1630   -2.8630  -53.6870 C.3    26  VAL26       0.0019
     47  CG2      -14.4740   -3.4040  -52.8630 C.3    26  VAL26       0.0019
     48  N        -10.9970  -14.5550  -48.5890 N.3    70  VAL70      -0.1245
     49  CA        -9.9910  -13.9380  -47.7230 C.3    70  VAL70       0.1561
     50  C         -9.3680  -15.0010  -46.8040 C.2    70  VAL70       0.2260
     51  O         -9.9850  -16.0380  -46.5480 O.2    70  VAL70      -0.2867
     52  CB       -10.5610  -12.6810  -46.9960 C.3    70  VAL70       0.0252
     53  CG1      -11.4410  -13.0410  -45.8040 C.3    70  VAL70       0.0019
     54  CG2       -9.4630  -11.6970  -46.6110 C.3    70  VAL70       0.0019
     55  N         -2.8500  -10.4530  -45.8320 N.3    78  ILE78      -0.1245
     56  CA        -4.2190  -10.8170  -46.1310 C.3    78  ILE78       0.1561
     57  C         -4.2580  -11.3130  -47.5740 C.2    78  ILE78       0.2260
     58  O         -4.0860  -10.5550  -48.5370 O.2    78  ILE78      -0.2867
     59  CB        -5.3280   -9.8040  -45.7650 C.3    78  ILE78       0.0252
     60  CG1       -4.7800   -8.5510  -45.0600 C.3    78  ILE78       0.0019
     61  CG2       -6.4170  -10.5120  -44.9340 C.3    78  ILE78       0.0019
     62  CD1       -5.8470   -7.6100  -44.6160 C.3    78  ILE78       0.0001
     63  N         -6.1590  -12.4710  -50.3400 N.3    80  VAL80      -0.1245
     64  CA        -7.4200  -12.3160  -51.0570 C.3    80  VAL80       0.1561
     65  C         -7.3020  -13.0980  -52.3620 C.2    80  VAL80       0.2260
     66  O         -6.4240  -12.7880  -53.1680 O.2    80  VAL80      -0.2867
     67  CB        -7.6850  -10.8130  -51.3080 C.3    80  VAL80       0.0252
     68  CG1       -9.1690  -10.5590  -51.5470 C.3    80  VAL80       0.0019
     69  CG2       -7.1470   -9.9560  -50.1500 C.3    80  VAL80       0.0019
     70  N         -8.7050    3.2290  -49.4150 N.3   190  MET190     -0.1245
     71  CA        -9.5660    2.7080  -48.3530 C.3   190  MET190      0.1570
     72  C         -8.9290    2.9920  -47.0020 C.2   190  MET190      0.2261
     73  O         -9.4820    3.7590  -46.2190 O.2   190  MET190     -0.2867
     74  CB        -9.7920    1.1960  -48.5080 C.3   190  MET190      0.0387
     75  CG       -10.7720    0.8450  -49.5960 C.3   190  MET190      0.0595
     76  SD       -11.2760   -0.8910  -49.5210 S.3   190  MET190     -0.1393
     77  CE       -12.8260   -0.7670  -50.2320 C.3   190  MET190      0.0692
     78  N         -8.7040    6.6610  -46.1450 N.3   193  PHE193     -0.1227
     79  CA       -10.0590    7.1200  -45.8750 C.3   193  PHE193      0.1736
     80  C        -10.5910    6.5890  -44.5350 C.2   193  PHE193      0.2595
     81  O        -11.1300    7.3710  -43.7440 O.2   193  PHE193     -0.2718
     82  CB       -11.0100    6.7810  -47.0430 C.3   193  PHE193      0.0547
     83  CG       -12.4610    6.6830  -46.6360 C.ar  193  PHE193     -0.0202
     84  CD1      -13.2410    7.8280  -46.5100 C.ar  193  PHE193     -0.0042
     85  CD2      -13.0280    5.4520  -46.3090 C.ar  193  PHE193     -0.0042
     86  CE1      -14.5610    7.7440  -46.0830 C.ar  193  PHE193     -0.0003
     87  CE2      -14.3430    5.3690  -45.8660 C.ar  193  PHE193     -0.0003
     88  CZ       -15.1050    6.5150  -45.7650 C.ar  193  PHE193     -0.0000
     89  N        -10.4550    5.2660  -44.2980 N.am  194  VAL194     -0.1980
     90  CA       -10.9400    4.6030  -43.0880 C.3   194  VAL194      0.1595
     91  C        -10.3580    5.2740  -41.8760 C.2   194  VAL194      0.2287
     92  O        -11.1130    5.7020  -41.0010 O.2   194  VAL194     -0.2864
     93  CB       -10.7200    3.0760  -43.1060 C.3   194  VAL194      0.0276
     94  CG1      -10.9200    2.4650  -41.7240 C.3   194  VAL194      0.0022
     95  CG2      -11.6480    2.4250  -44.1220 C.3   194  VAL194      0.0022
     96  N        -22.8100   -5.0910  -42.5600 N.3   459  PHE459     -0.1241
     97  CA       -22.3250   -4.0400  -43.4210 C.3   459  PHE459      0.1605
     98  C        -23.3690   -3.5490  -44.4010 C.2   459  PHE459      0.2264
     99  O        -23.9150   -4.3790  -45.1280 O.2   459  PHE459     -0.2867
    100  CB       -20.9950   -4.3630  -44.1100 C.3   459  PHE459      0.0534
    101  CG       -20.4200   -3.0610  -44.5990 C.ar  459  PHE459     -0.0203
    102  CD1      -19.7740   -2.1990  -43.7210 C.ar  459  PHE459     -0.0042
    103  CD2      -20.6570   -2.6240  -45.9010 C.ar  459  PHE459     -0.0042
    104  CE1      -19.3430   -0.9470  -44.1420 C.ar  459  PHE459     -0.0003
    105  CE2      -20.2190   -1.3710  -46.3240 C.ar  459  PHE459     -0.0003
    106  CZ       -19.5610   -0.5430  -45.4430 C.ar  459  PHE459     -0.0000
    107  N        -20.4660    1.2750  -49.3570 N.3   464  LEU464     -0.1245
    108  CA       -19.2430    1.0810  -50.1200 C.3   464  LEU464      0.1561
    109  C        -19.3980    1.7800  -51.4510 C.2   464  LEU464      0.2260
    110  O        -18.6290    2.7040  -51.7180 O.2   464  LEU464     -0.2867
    111  CB       -18.9180   -0.4080  -50.2950 C.3   464  LEU464      0.0270
    112  CG       -17.4870   -0.7590  -50.7060 C.3   464  LEU464      0.0019
    113  CD1      -16.4560    0.0360  -49.9190 C.3   464  LEU464      0.0001
    114  CD2      -17.2210   -2.2240  -50.5000 C.3   464  LEU464      0.0001
    115  N        -18.7860    5.5330  -51.2240 N.3   467  PHE467     -0.1241
    116  CA       -17.3710    5.9100  -51.2580 C.3   467  PHE467      0.1605
    117  C        -16.7430    5.5560  -52.6310 C.2   467  PHE467      0.2264
    118  O        -15.9410    6.3300  -53.1580 O.2   467  PHE467     -0.2867
    119  CB       -16.6060    5.2560  -50.0880 C.3   467  PHE467      0.0534
    120  CG       -15.2370    4.6990  -50.4230 C.ar  467  PHE467     -0.0203
    121  CD1      -15.0610    3.3420  -50.6800 C.ar  467  PHE467     -0.0042
    122  CD2      -14.1250    5.5310  -50.4950 C.ar  467  PHE467     -0.0042
    123  CE1      -13.7970    2.8270  -51.0070 C.ar  467  PHE467     -0.0003
    124  CE2      -12.8630    5.0140  -50.8230 C.ar  467  PHE467     -0.0003
    125  CZ       -12.7070    3.6650  -51.0730 C.ar  467  PHE467     -0.0000
@<TRIPOS>BOND
     1    44    43    2
     2    43    42    1
     3    41    42    1
     4    42    45    1
     5    37    36    2
     6    36    35    1
     7    45    46    1
     8    45    47    1
     9    66    65    2
    10   118   117    2
    11    40    38    1
    12    28    27    2
    13    35    38    1
    14    35    34    1
    15   117   116    1
    16    65    64    1
    17    38    39    1
    18    27    34   am
    19    27    26    1
    20    33    31   ar
    21   110   109    2
    22    68    67    1
    23   109   108    1
    24    67    64    1
    25    67    69    1
    26    26    29    1
    27    26    25    1
    28   116   115    1
    29   116   119    1
    30   125   123   ar
    31   125   124   ar
    32    64    63    1
    33   123   121   ar
    34   124   122   ar
    35    20    19    2
    36   112   114    1
    37   112   111    1
    38   112   113    1
    39   121   120   ar
    40    31    32   ar
    41    31    30    1
    42   122   120   ar
    43    29    30    1
    44   120   119    1
    45    23    22    2
    46   111   108    1
    47    77    76    1
    48   108   107    1
    49    75    76    1
    50    75    74    1
    51    24    22   am
    52    19    18    1
    53    22    21    1
    54    70    71    1
    55    18    21    1
    56    18    17    1
    57    48    49    1
    58    58    57    2
    59    74    71    1
    60    71    72    1
    61    12    11    2
    62    49    52    1
    63    49    50    1
    64    57    56    1
    65    17    11   am
    66    11    10    1
    67    82    83    1
    68    82    79    1
    69    72    73    2
    70    52    54    1
    71    52    53    1
    72    50    51    2
    73    83    84   ar
    74    83    85   ar
    75    84    86   ar
    76   105   103   ar
    77   105   106   ar
    78    85    87   ar
    79    78    79    1
    80    56    55    1
    81    56    59    1
    82    86    88   ar
    83    10    13    1
    84    10     9    1
    85   103   101   ar
    86    79    80    1
    87    87    88   ar
    88    59    60    1
    89    59    61    1
    90   106   104   ar
    91    13    14    1
    92    99    98    2
    93     4     3    2
    94    60    62    1
    95   101   100    1
    96   101   102   ar
    97    16    14    1
    98    80    89   am
    99    80    81    2
   100    98    97    1
   101    89    90    1
   102   104   102   ar
   103    95    93    1
   104   100    97    1
   105    14    15    1
   106     3     2    1
   107    97    96    1
   108    93    90    1
   109    93    94    1
   110    90    91    1
   111     2     5    1
   112     2     1    1
   113     5     6    1
   114     7     6    1
   115     6     8    1
   116    91    92    2
