@<TRIPOS>MOLECULE
tmp/4f2mF01.pdb
 78 75 0 0 0
SMALL
GASTEIGER

@<TRIPOS>ATOM
      1  N        -38.7890    0.1630   53.5030 N.3    14  ASP14      -0.1225
      2  CA       -37.3750    0.1660   53.8700 C.3    14  ASP14       0.1805
      3  C        -36.4820    0.5140   52.6720 C.2    14  ASP14       0.2598
      4  O        -36.2190   -0.3260   51.8070 O.2    14  ASP14      -0.2718
      5  CB       -36.9740   -1.1840   54.4730 C.3    14  ASP14       0.1424
      6  CG       -37.7740   -1.5340   55.7150 C.2    14  ASP14       0.3668
      7  OD1      -37.8690   -0.6810   56.6270 O.co2  14  ASP14      -0.2456
      8  OD2      -38.3050   -2.6650   55.7740 O.co2  14  ASP14      -0.2456
      9  N        -36.0230    1.7610   52.6190 N.am   15  LEU15      -0.1966
     10  CA       -35.1920    2.2130   51.5110 C.3    15  LEU15       0.1728
     11  C        -33.7470    1.7780   51.6670 C.2    15  LEU15       0.2616
     12  O        -33.1930    1.7980   52.7660 O.2    15  LEU15      -0.2715
     13  CB       -35.2490    3.7340   51.3660 C.3    15  LEU15       0.0311
     14  CG       -36.6000    4.3140   50.9510 C.3    15  LEU15       0.0022
     15  CD1      -36.4740    5.7940   50.6130 C.3    15  LEU15       0.0001
     16  CD2      -37.1630    3.5380   49.7710 C.3    15  LEU15       0.0001
     17  N        -33.1400    1.3940   50.5520 N.am   16  GLY16      -0.1955
     18  CA       -31.7290    1.0730   50.5270 C.3    16  GLY16       0.1869
     19  C        -31.0020    1.9740   49.5550 C.2    16  GLY16       0.2309
     20  O        -31.1950    1.8840   48.3440 O.2    16  GLY16      -0.2863
     21  N        -33.6630   -3.6180   45.6460 N.3    30  LEU30      -0.1231
     22  CA       -34.0560   -4.4490   46.7720 C.3    30  LEU30       0.1693
     23  C        -34.3510   -3.6000   48.0100 C.2    30  LEU30       0.2593
     24  O        -34.0800   -4.0010   49.1440 O.2    30  LEU30      -0.2718
     25  CB       -33.0430   -5.5700   47.0440 C.3    30  LEU30       0.0284
     26  CG       -31.5290   -5.3680   46.9390 C.3    30  LEU30       0.0019
     27  CD1      -31.0820   -4.9880   45.5300 C.3    30  LEU30       0.0001
     28  CD2      -31.0540   -4.3510   47.9510 C.3    30  LEU30       0.0001
     29  N        -34.9000   -2.4110   47.7690 N.am   31  SER31      -0.1938
     30  CA       -35.5240   -1.6270   48.8320 C.3    31  SER31       0.2055
     31  C        -36.8640   -2.2720   49.1500 C.2    31  SER31       0.2643
     32  O        -37.7130   -2.4050   48.2720 O.2    31  SER31      -0.2714
     33  CB       -35.7280   -0.1670   48.4070 C.3    31  SER31       0.2130
     34  OG       -34.5120    0.4210   47.9770 O.3    31  SER31      -0.2179
     35  N        -37.0510   -2.6810   50.3980 N.am   32  ASN32      -0.1971
     36  CA       -38.2310   -3.4590   50.7670 C.3    32  ASN32       0.1688
     37  C        -39.4760   -2.6400   51.1120 C.2    32  ASN32       0.2292
     38  O        -39.3990   -1.4590   51.4580 O.2    32  ASN32      -0.2864
     39  CB       -37.8850   -4.4160   51.9070 C.3    32  ASN32       0.1181
     40  CG       -36.6420   -5.2360   51.6110 C.2    32  ASN32       0.2629
     41  OD1      -36.6970   -6.2070   50.8570 O.2    32  ASN32      -0.2716
     42  ND2      -35.5070   -4.8300   52.1860 N.am   32  ASN32      -0.0877
     43  N        -31.3750    2.7950   55.0300 N.3    61  LYS61      -0.1245
     44  CA       -30.0350    2.3170   55.3250 C.3    61  LYS61       0.1561
     45  C        -29.1540    2.5130   54.0990 C.2    61  LYS61       0.2260
     46  O        -29.6120    2.3710   52.9690 O.2    61  LYS61      -0.2867
     47  CB       -30.0600    0.8480   55.7550 C.3    61  LYS61       0.0271
     48  CG       -30.5040    0.6430   57.1960 C.3    61  LYS61       0.0035
     49  CD       -29.6040    1.4330   58.1410 C.3    61  LYS61       0.0206
     50  CE       -30.0030    1.2830   59.6000 C.3    61  LYS61       0.1093
     51  NZ       -29.0720    2.0260   60.4970 N.3    61  LYS61      -0.1314
     52  N        -23.9910   -5.2650   48.8030 N.3    67  ASN67      -0.1225
     53  CA       -25.3600   -4.8490   49.0730 C.3    67  ASN67       0.1785
     54  C        -25.7430   -4.7450   50.5490 C.2    67  ASN67       0.2597
     55  O        -26.9150   -4.5530   50.8700 O.2    67  ASN67      -0.2718
     56  CB       -26.3440   -5.7540   48.3370 C.3    67  ASN67       0.1169
     57  CG       -26.2680   -5.5900   46.8310 C.2    67  ASN67       0.2627
     58  OD1      -25.9200   -4.5210   46.3270 O.2    67  ASN67      -0.2716
     59  ND2      -26.5940   -6.6520   46.1030 N.am   67  ASN67      -0.0877
     60  N        -24.7660   -4.8630   51.4430 N.am   68  ILE68      -0.1966
     61  CA       -25.0430   -4.7540   52.8710 C.3    68  ILE68       0.1727
     62  C        -25.5140   -3.3500   53.2520 C.2    68  ILE68       0.2616
     63  O        -24.7390   -2.3910   53.2350 O.2    68  ILE68      -0.2715
     64  CB       -23.8200   -5.1470   53.7220 C.3    68  ILE68       0.0290
     65  CG1      -24.1340   -4.9880   55.2110 C.3    68  ILE68       0.0022
     66  CG2      -22.6060   -4.3130   53.3470 C.3    68  ILE68       0.0023
     67  CD1      -22.9720   -5.3360   56.1280 C.3    68  ILE68       0.0001
     68  N        -26.7950   -3.2340   53.5880 N.am   69  PHE69      -0.1974
     69  CA       -27.3530   -1.9570   54.0070 C.3    69  PHE69       0.1639
     70  C        -27.3350   -1.8360   55.5200 C.2    69  PHE69       0.2290
     71  O        -28.3500   -2.0340   56.1840 O.2    69  PHE69      -0.2864
     72  CB       -28.7770   -1.7860   53.4890 C.3    69  PHE69       0.0560
     73  CG       -28.8600   -1.5730   52.0080 C.ar   69  PHE69      -0.0200
     74  CD1      -28.5870   -0.3310   51.4560 C.ar   69  PHE69      -0.0042
     75  CD2      -29.2210   -2.6090   51.1670 C.ar   69  PHE69      -0.0042
     76  CE1      -28.6660   -0.1270   50.0910 C.ar   69  PHE69      -0.0003
     77  CE2      -29.3040   -2.4120   49.8060 C.ar   69  PHE69      -0.0003
     78  CZ       -29.0260   -1.1680   49.2650 C.ar   69  PHE69      -0.0000
@<TRIPOS>BOND
     1    27    26    1
     2    21    22    1
     3    59    57   am
     4    58    57    2
     5    22    25    1
     6    22    23    1
     7    57    56    1
     8    26    25    1
     9    26    28    1
    10    29    23   am
    11    29    30    1
    12    34    33    1
    13    23    24    2
    14    32    31    2
    15    56    53    1
    16    20    19    2
    17    33    30    1
    18    52    53    1
    19    30    31    1
    20    53    54    1
    21    31    35   am
    22    78    77   ar
    23    78    76   ar
    24    19    18    1
    25    16    14    1
    26    77    75   ar
    27    76    74   ar
    28    35    36    1
    29    18    17    1
    30    54    55    2
    31    54    60   am
    32    17    11   am
    33    15    14    1
    34    36    37    1
    35    36    39    1
    36    41    40    2
    37    14    13    1
    38    37    38    2
    39    75    73   ar
    40    13    10    1
    41    60    61    1
    42    74    73   ar
    43    10    11    1
    44    10     9    1
    45    40    39    1
    46    40    42   am
    47    11    12    2
    48     4     3    2
    49    73    72    1
    50     9     3   am
    51     3     2    1
    52    61    62    1
    53    61    64    1
    54    46    45    2
    55    63    62    2
    56    62    68   am
    57    66    64    1
    58    72    69    1
    59     1     2    1
    60    68    69    1
    61    64    65    1
    62     2     5    1
    63    69    70    1
    64    45    44    1
    65     5     6    1
    66    43    44    1
    67    65    67    1
    68    44    47    1
    69    70    71    2
    70     6     8   ar
    71     6     7   ar
    72    47    48    1
    73    48    49    1
    74    49    50    1
    75    50    51    1
