@<TRIPOS>MOLECULE
tmp/4f2pB00.pdb
 168 159 0 0 0
SMALL
GASTEIGER

@<TRIPOS>ATOM
      1  N        -29.8620    4.1970    5.0040 N.3    15  ALA15      -0.1231
      2  CA       -29.4910    5.1440    6.0640 C.3    15  ALA15       0.1694
      3  C        -30.5250    6.2300    6.2950 C.2    15  ALA15       0.2591
      4  O        -30.9090    6.5110    7.4330 O.2    15  ALA15      -0.2718
      5  CB       -28.1380    5.7890    5.7430 C.3    15  ALA15       0.0304
      6  N        -30.9430    6.8620    5.2050 N.am   16  MET16      -0.1979
      7  CA       -31.7290    8.1020    5.2520 C.3    16  MET16       0.1605
      8  C        -33.1930    7.8680    4.9430 C.2    16  MET16       0.2287
      9  O        -33.5460    6.9560    4.2210 O.2    16  MET16      -0.2864
     10  CB       -31.1710    9.1290    4.2530 C.3    16  MET16       0.0413
     11  CG       -29.7450    9.5280    4.5240 C.3    16  MET16       0.0598
     12  SD       -29.1600   10.6400    3.2410 S.3    16  MET16      -0.1393
     13  CE       -29.8820   12.1880    3.7570 C.3    16  MET16       0.0692
     14  N        -34.9710    9.5340    2.9220 N.3    18  GLU18      -0.1231
     15  CA       -35.1070    9.6380    1.4730 C.3    18  GLU18       0.1699
     16  C        -34.7720    8.3330    0.7490 C.2    18  GLU18       0.2592
     17  O        -35.3300    8.0410   -0.2770 O.2    18  GLU18      -0.2718
     18  CB       -34.2290   10.7500    0.9000 C.3    18  GLU18       0.0402
     19  CG       -34.6470   12.1460    1.3520 C.3    18  GLU18       0.1161
     20  CD       -33.9770   12.6580    2.6290 C.2    18  GLU18       0.3649
     21  OE1      -33.5410   11.8520    3.5150 O.co2  18  GLU18      -0.2457
     22  OE2      -33.8790   13.9150    2.7700 O.co2  18  GLU18      -0.2457
     23  N        -33.8770    7.5730    1.3300 N.am   19  GLU19      -0.1979
     24  CA       -33.4350    6.2800    0.7630 C.3    19  GLU19       0.1602
     25  C        -34.3750    5.1080    1.0440 C.2    19  GLU19       0.2287
     26  O        -34.3880    4.1740    0.2720 O.2    19  GLU19      -0.2864
     27  CB       -32.0280    5.9810    1.2770 C.3    19  GLU19       0.0415
     28  CG       -30.9570    6.9290    0.6920 C.3    19  GLU19       0.1163
     29  CD       -29.6190    6.8590    1.4090 C.2    19  GLU19       0.3649
     30  OE1      -29.6030    6.5080    2.6090 O.co2  19  GLU19      -0.2457
     31  OE2      -28.5640    7.1320    0.7320 O.co2  19  GLU19      -0.2457
     32  N        -27.0490    7.4750    9.7080 N.3    57  ILE57      -0.1245
     33  CA       -25.8430    7.6390    8.8950 C.3    57  ILE57       0.1561
     34  C        -24.5550    7.2290    9.5890 C.2    57  ILE57       0.2260
     35  O        -24.3110    7.5840   10.7390 O.2    57  ILE57      -0.2867
     36  CB       -25.7710    9.1070    8.4260 C.3    57  ILE57       0.0252
     37  CG1      -26.9060    9.3480    7.4350 C.3    57  ILE57       0.0019
     38  CG2      -24.4260    9.4800    7.8130 C.3    57  ILE57       0.0019
     39  CD1      -27.1760   10.8250    7.1430 C.3    57  ILE57       0.0001
     40  N        -28.0020    5.9380   -1.8480 N.3    83  SER83      -0.1202
     41  CA       -27.1580    6.7220   -2.6980 C.3    83  SER83       0.2020
     42  C        -25.6480    6.3630   -2.5360 C.2    83  SER83       0.2619
     43  O        -25.2440    5.6400   -1.6210 O.2    83  SER83      -0.2717
     44  CB       -27.4520    8.1970   -2.3500 C.3    83  SER83       0.2103
     45  OG       -27.0400    8.4930   -1.0260 O.3    83  SER83      -0.2182
     46  N        -24.8050    6.8850   -3.4290 N.am   84  ALA84      -0.1965
     47  CA       -23.3690    6.7440   -3.3150 C.3    84  ALA84       0.1728
     48  C        -22.6510    7.8290   -4.1260 C.2    84  ALA84       0.2616
     49  O        -23.1950    8.3700   -5.0910 O.2    84  ALA84      -0.2715
     50  CB       -22.9650    5.3790   -3.8060 C.3    84  ALA84       0.0334
     51  N        -21.4180    8.0970   -3.7540 N.am   85  GLY85      -0.1955
     52  CA       -20.5620    8.9340   -4.5740 C.3    85  GLY85       0.1869
     53  C        -19.8320    8.0640   -5.5920 C.2    85  GLY85       0.2309
     54  O        -19.0950    7.1570   -5.2170 O.2    85  GLY85      -0.2863
     55  N        -16.9980    9.8270    6.5450 N.3   157  ALA157     -0.1231
     56  CA       -16.8160   11.1700    5.9380 C.3   157  ALA157      0.1694
     57  C        -17.6050   11.2880    4.6600 C.2   157  ALA157      0.2592
     58  O        -17.7290   10.3360    3.8820 O.2   157  ALA157     -0.2718
     59  CB       -15.3570   11.4470    5.6800 C.3   157  ALA157      0.0304
     60  N        -18.1310   12.4760    4.4240 N.am  158  PHE158     -0.1962
     61  CA       -18.7680   12.8000    3.1550 C.3   158  PHE158      0.1771
     62  C        -17.6650   13.3550    2.2560 C.2   158  PHE158      0.2619
     63  O        -17.0160   14.3660    2.6050 O.2   158  PHE158     -0.2715
     64  CB       -19.8660   13.8270    3.3340 C.3   158  PHE158      0.0574
     65  CG       -20.5700   14.1570    2.0680 C.ar  158  PHE158     -0.0200
     66  CD1      -20.1690   15.2460    1.3150 C.ar  158  PHE158     -0.0042
     67  CD2      -21.5240   13.3130    1.5620 C.ar  158  PHE158     -0.0042
     68  CE1      -20.7950   15.5270    0.1110 C.ar  158  PHE158     -0.0003
     69  CE2      -22.1610   13.6140    0.3600 C.ar  158  PHE158     -0.0003
     70  CZ       -21.7780   14.7040   -0.3700 C.ar  158  PHE158     -0.0000
     71  N        -17.4170   12.6790    1.1400 N.am  159  ILE159     -0.1977
     72  CA       -16.3060   13.0250    0.2740 C.3   159  ILE159      0.1596
     73  C        -16.6850   14.1550   -0.6910 C.2   159  ILE159      0.2287
     74  O        -17.7010   14.0730   -1.3710 O.2   159  ILE159     -0.2864
     75  CB       -15.8130   11.7860   -0.4550 C.3   159  ILE159      0.0276
     76  CG1      -15.5690   10.6290    0.5520 C.3   159  ILE159      0.0022
     77  CG2      -14.5680   12.0800   -1.2750 C.3   159  ILE159      0.0022
     78  CD1      -14.6240   10.9560    1.6940 C.3   159  ILE159      0.0001
     79  N        -17.9220    5.3820   -3.2580 N.3   178  VAL178     -0.1231
     80  CA       -17.6570    5.6490   -1.8580 C.3   178  VAL178      0.1692
     81  C        -18.9810    6.0040   -1.1680 C.2   178  VAL178      0.2592
     82  O        -19.8420    6.6760   -1.7500 O.2   178  VAL178     -0.2718
     83  CB       -16.6390    6.7980   -1.6190 C.3   178  VAL178      0.0266
     84  CG1      -17.0680    8.0900   -2.3180 C.3   178  VAL178      0.0020
     85  CG2      -16.4340    7.0020   -0.1320 C.3   178  VAL178      0.0020
     86  N        -19.1270    5.5100    0.0490 N.am  179  GLU179     -0.1966
     87  CA       -20.2580    5.8480    0.8890 C.3   179  GLU179      0.1733
     88  C        -19.8950    5.7200    2.3850 C.2   179  GLU179      0.2616
     89  O        -18.6980    5.8080    2.7120 O.2   179  GLU179     -0.2715
     90  CB       -21.5210    5.1530    0.3870 C.3   179  GLU179      0.0429
     91  CG       -21.3170    3.6870    0.0750 C.3   179  GLU179      0.1163
     92  CD       -21.0420    2.9200    1.3410 C.2   179  GLU179      0.3649
     93  OE1      -21.9990    2.7630    2.1380 O.co2 179  GLU179     -0.2457
     94  OE2      -19.8800    2.5210    1.6100 O.co2 179  GLU179     -0.2457
     95  N        -20.8890    5.6470    3.2930 N.am  180  MET180     -0.1963
     96  CA       -20.6090    5.7330    4.7190 C.3   180  MET180      0.1736
     97  C        -21.1240    4.5630    5.5910 C.2   180  MET180      0.2616
     98  O        -20.9760    4.6030    6.8180 O.2   180  MET180     -0.2715
     99  CB       -21.1420    7.0710    5.2720 C.3   180  MET180      0.0427
    100  CG       -20.4980    8.2330    4.5620 C.3   180  MET180      0.0599
    101  SD       -21.1430    9.8310    5.0840 S.3   180  MET180     -0.1393
    102  CE       -20.6580    9.8660    6.8010 C.3   180  MET180      0.0692
    103  N        -21.7370    3.5520    4.9800 N.am  181  GLU181     -0.1977
    104  CA       -22.3210    2.4680    5.7400 C.3   181  GLU181      0.1602
    105  C        -22.0050    1.0310    5.2700 C.2   181  GLU181      0.2287
    106  O        -22.0960    0.0800    6.0940 O.2   181  GLU181     -0.2864
    107  CB       -23.8390    2.6260    5.7020 C.3   181  GLU181      0.0415
    108  CG       -24.3380    3.8510    6.4530 C.3   181  GLU181      0.1163
    109  CD       -24.6140    5.0490    5.5590 C.2   181  GLU181      0.3649
    110  OE1      -24.4680    6.2000    6.0470 O.co2 181  GLU181     -0.2457
    111  OE2      -25.0670    4.8340    4.4010 O.co2 181  GLU181     -0.2457
    112  N        -26.6290    0.2800   -4.8010 N.3   200  ARG200     -0.1245
    113  CA       -26.8460    1.7170   -4.6110 C.3   200  ARG200      0.1563
    114  C        -26.8830    2.4160   -5.9570 C.2   200  ARG200      0.2260
    115  O        -26.6200    1.8250   -6.9920 O.2   200  ARG200     -0.2867
    116  CB       -25.7350    2.3070   -3.7040 C.3   200  ARG200      0.0307
    117  CG       -25.8720    1.8750   -2.2590 C.3   200  ARG200      0.0489
    118  CD       -24.7290    2.3720   -1.4030 C.3   200  ARG200      0.2205
    119  NE       -24.8830    2.1120    0.0250 N.pl3 200  ARG200     -0.0865
    120  CZ       -25.2190    3.0310    0.9360 C.cat 200  ARG200      0.5346
    121  NH1      -25.4660    4.2860    0.5780 N.pl3 200  ARG200      0.1354
    122  NH2      -25.2640    2.7110    2.2250 N.pl3 200  ARG200      0.1354
    123  N        -25.4690    9.6460   -6.6760 N.3   203  SER203     -0.1202
    124  CA       -26.0190   10.9670   -6.3720 C.3   203  SER203      0.2020
    125  C        -25.0730   12.1140   -6.6880 C.2   203  SER203      0.2618
    126  O        -25.5050   13.2890   -6.7830 O.2   203  SER203     -0.2717
    127  CB       -26.4170   11.0040   -4.9120 C.3   203  SER203      0.2103
    128  OG       -25.2980   10.7560   -4.0540 O.3   203  SER203     -0.2182
    129  N        -23.7910   11.7950   -6.8770 N.am  204  ASP204     -0.1973
    130  CA       -22.7040   12.7610   -7.0190 C.3   204  ASP204      0.1709
    131  C        -21.4260   11.9750   -7.3450 C.2   204  ASP204      0.2293
    132  O        -21.4310   10.7530   -7.2840 O.2   204  ASP204     -0.2864
    133  CB       -22.4820   13.5520   -5.7350 C.3   204  ASP204      0.1436
    134  CG       -22.1170   12.6720   -4.5740 C.2   204  ASP204      0.3671
    135  OD1      -20.8950   12.5040   -4.3330 O.co2 204  ASP204     -0.2456
    136  OD2      -23.0600   12.2090   -3.8890 O.co2 204  ASP204     -0.2456
    137  N        -18.3720   12.7690   -5.8230 N.3   206  ALA206     -0.1245
    138  CA       -17.4710   12.9090   -4.6720 C.3   206  ALA206      0.1562
    139  C        -16.3940   13.9660   -4.8390 C.2   206  ALA206      0.2260
    140  O        -15.3880   13.9910   -4.1260 O.2   206  ALA206     -0.2867
    141  CB       -16.8740   11.5440   -4.3000 C.3   206  ALA206      0.0290
    142  N        -25.2850   16.0810   -4.4830 N.3   214  PHE214     -0.1227
    143  CA       -26.0090   15.2090   -3.5520 C.3   214  PHE214      0.1736
    144  C        -27.4110   15.7570   -3.2370 C.2   214  PHE214      0.2595
    145  O        -28.4170   15.0620   -3.2900 O.2   214  PHE214     -0.2718
    146  CB       -25.1950   14.9690   -2.2860 C.3   214  PHE214      0.0547
    147  CG       -25.8970   14.1120   -1.2850 C.ar  214  PHE214     -0.0202
    148  CD1      -26.6540   14.6760   -0.2620 C.ar  214  PHE214     -0.0042
    149  CD2      -25.8750   12.7660   -1.4280 C.ar  214  PHE214     -0.0042
    150  CE1      -27.3190   13.8850    0.6540 C.ar  214  PHE214     -0.0003
    151  CE2      -26.5440   11.9570   -0.5230 C.ar  214  PHE214     -0.0003
    152  CZ       -27.2760   12.5000    0.5150 C.ar  214  PHE214     -0.0000
    153  N        -27.4870   17.0400   -2.9280 N.am  215  ASP215     -0.1974
    154  CA       -28.7620   17.6150   -2.5920 C.3   215  ASP215      0.1709
    155  C        -29.7500   17.5550   -3.7700 C.2   215  ASP215      0.2293
    156  O        -30.9150   17.2790   -3.5720 O.2   215  ASP215     -0.2864
    157  CB       -28.5690   19.0780   -2.1760 C.3   215  ASP215      0.1436
    158  CG       -28.0800   19.2420   -0.7460 C.2   215  ASP215      0.3671
    159  OD1      -28.1150   18.2900    0.0710 O.co2 215  ASP215     -0.2456
    160  OD2      -27.6680   20.3850   -0.4400 O.co2 215  ASP215     -0.2456
    161  N        -30.1330   13.2600   -4.7430 N.3   218  LEU218     -0.1245
    162  CA       -30.4860   12.2270   -3.7580 C.3   218  LEU218      0.1561
    163  C        -31.7920   11.5290   -4.1690 C.2   218  LEU218      0.2260
    164  O        -31.8920   10.2960   -4.1070 O.2   218  LEU218     -0.2867
    165  CB       -30.6210   12.8390   -2.3910 C.3   218  LEU218      0.0270
    166  CG       -31.1180   11.9400   -1.2650 C.3   218  LEU218      0.0019
    167  CD1      -30.3170   10.6570   -1.2330 C.3   218  LEU218      0.0001
    168  CD2      -31.0420   12.6620    0.0600 C.3   218  LEU218      0.0001
@<TRIPOS>BOND
     1   131   132    2
     2   131   130    1
     3   130   129    1
     4   130   133    1
     5   115   114    2
     6   129   125   am
     7   126   125    2
     8   125   124    1
     9   123   124    1
    10   124   127    1
    11   114   113    1
    12   137   138    1
    13   133   134    1
    14    53    54    2
    15    53    52    1
    16    49    48    2
    17   127   128    1
    18   139   138    1
    19   139   140    2
    20   112   113    1
    21   161   162    1
    22   138   141    1
    23   113   116    1
    24   134   135   ar
    25   134   136   ar
    26    52    51    1
    27   142   143    1
    28   163   164    2
    29   163   162    1
    30    48    51   am
    31    48    47    1
    32    50    47    1
    33   155   156    2
    34   155   154    1
    35   162   165    1
    36   116   117    1
    37   143   144    1
    38   143   146    1
    39    46    47    1
    40    46    42   am
    41   145   144    2
    42    79    80    1
    43   144   153   am
    44   153   154    1
    45    41    42    1
    46    41    44    1
    47    41    40    1
    48   154   157    1
    49    42    43    2
    50   165   166    1
    51    44    45    1
    52    84    83    1
    53   146   147    1
    54   117   118    1
    55   157   158    1
    56    80    83    1
    57    80    81    1
    58    82    81    2
    59    83    85    1
    60   149   147   ar
    61   149   151   ar
    62   118   119    1
    63    74    73    2
    64   147   148   ar
    65    77    75    1
    66   166   167    1
    67   166   168    1
    68    81    86   am
    69   158   160   ar
    70   158   159   ar
    71    73    72    1
    72   151   152   ar
    73    75    72    1
    74    75    76    1
    75    70    68   ar
    76    70    69   ar
    77    17    16    2
    78   148   150   ar
    79   119   120    2
    80    86    87    1
    81    91    90    1
    82    91    92    1
    83    68    66   ar
    84    26    25    2
    85    72    71    1
    86    69    67   ar
    87    90    87    1
    88   152   150   ar
    89    76    78    1
    90   121   120    1
    91    28    27    1
    92    28    29    1
    93    31    29   ar
    94    16    23   am
    95    16    15    1
    96    24    25    1
    97    24    27    1
    98    24    23    1
    99    87    88    1
   100    18    19    1
   101    18    15    1
   102   120   122    1
   103    71    62   am
   104    66    65   ar
   105    92    94   ar
   106    92    93   ar
   107    19    20    1
   108    29    30   ar
   109    15    14    1
   110    67    65   ar
   111    65    64    1
   112    62    63    2
   113    62    61    1
   114    88    89    2
   115    88    95   am
   116    20    22   ar
   117    20    21   ar
   118    61    64    1
   119    61    60    1
   120    12    13    1
   121    12    11    1
   122    95    96    1
   123    58    57    2
   124     9     8    2
   125    10    11    1
   126    10     7    1
   127   111   109   ar
   128    60    57   am
   129   100   101    1
   130   100    99    1
   131    57    56    1
   132    96    99    1
   133    96    97    1
   134     8     7    1
   135   103    97   am
   136   103   104    1
   137     1     2    1
   138   101   102    1
   139     6     7    1
   140     6     3   am
   141   105   104    1
   142   105   106    2
   143   109   110   ar
   144   109   108    1
   145    97    98    2
   146    59    56    1
   147   107   104    1
   148   107   108    1
   149     5     2    1
   150    56    55    1
   151     2     3    1
   152     3     4    2
   153    39    37    1
   154    37    36    1
   155    38    36    1
   156    36    33    1
   157    33    34    1
   158    33    32    1
   159    34    35    2
