@<TRIPOS>MOLECULE
tmp/4f2wB00.pdb
 143 135 0 0 0
SMALL
GASTEIGER

@<TRIPOS>ATOM
      1  N         -8.4110  -12.5240   12.8660 N.3    15  ALA15      -0.1231
      2  CA        -9.0100  -12.8970   11.6090 C.3    15  ALA15       0.1694
      3  C        -10.5360  -12.7770   11.6510 C.2    15  ALA15       0.2591
      4  O        -11.1260  -12.1610   10.7650 O.2    15  ALA15      -0.2718
      5  CB        -8.5830  -14.2940   11.1840 C.3    15  ALA15       0.0304
      6  N        -11.1560  -13.3730   12.6730 N.am   16  MET16      -0.1979
      7  CA       -12.6110  -13.4320   12.7770 C.3    16  MET16       0.1605
      8  C        -13.1480  -12.4400   13.7950 C.2    16  MET16       0.2287
      9  O        -12.4880  -12.0950   14.7960 O.2    16  MET16      -0.2864
     10  CB       -13.0610  -14.8330   13.1910 C.3    16  MET16       0.0413
     11  CG       -12.7190  -15.9390   12.1940 C.3    16  MET16       0.0598
     12  SD       -12.8880  -17.5220   13.0570 S.3    16  MET16      -0.1393
     13  CE       -14.6600  -17.7270   12.9460 C.3    16  MET16       0.0692
     14  N        -12.9310  -13.6530   17.1560 N.3    19  GLU19      -0.1245
     15  CA       -11.6240  -13.4910   17.7790 C.3    19  GLU19       0.1567
     16  C        -11.3160  -12.0720   18.3050 C.2    19  GLU19       0.2260
     17  O        -10.4520  -11.9290   19.1630 O.2    19  GLU19      -0.2867
     18  CB       -10.5290  -13.9710   16.8320 C.3    19  GLU19       0.0388
     19  CG       -10.6140  -15.4770   16.5160 C.3    19  GLU19       0.1160
     20  CD        -9.7720  -15.8800   15.3300 C.2    19  GLU19       0.3649
     21  OE1       -9.6890  -15.0980   14.3600 O.co2  19  GLU19      -0.2457
     22  OE2       -9.1860  -16.9720   15.3550 O.co2  19  GLU19      -0.2457
     23  N        -10.4300  -13.9860    6.9860 N.3    57  ILE57      -0.1245
     24  CA        -9.7460  -15.2770    7.0370 C.3    57  ILE57       0.1561
     25  C         -8.8270  -15.5290    5.8560 C.2    57  ILE57       0.2260
     26  O         -9.1820  -15.2830    4.6720 O.2    57  ILE57      -0.2867
     27  CB       -10.7880  -16.4010    7.1230 C.3    57  ILE57       0.0252
     28  CG1      -11.4840  -16.3160    8.4820 C.3    57  ILE57       0.0019
     29  CG2      -10.1680  -17.7630    6.8790 C.3    57  ILE57       0.0019
     30  CD1      -12.7500  -17.1470    8.5940 C.3    57  ILE57       0.0001
     31  N         -7.5200  -18.0190   17.5390 N.3    83  SER83      -0.1202
     32  CA        -7.5660  -19.4380   17.7660 C.3    83  SER83       0.2020
     33  C         -6.4700  -20.1150   16.9450 C.2    83  SER83       0.2619
     34  O         -5.8580  -19.4810   16.0700 O.2    83  SER83      -0.2717
     35  CB        -8.9590  -19.9550   17.3790 C.3    83  SER83       0.2103
     36  OG        -9.2030  -19.8150   15.9860 O.3    83  SER83      -0.2182
     37  N         -6.1960  -21.3700   17.2630 N.am   84  ALA84      -0.1965
     38  CA        -5.1900  -22.1740   16.5420 C.3    84  ALA84       0.1728
     39  C         -5.4720  -23.6390   16.6910 C.2    84  ALA84       0.2616
     40  O         -6.0310  -24.0670   17.7090 O.2    84  ALA84      -0.2715
     41  CB        -3.7700  -21.8720   17.0330 C.3    84  ALA84       0.0334
     42  N         -5.0870  -24.3990   15.6580 N.am   85  GLY85      -0.1955
     43  CA        -5.0640  -25.8290   15.6810 C.3    85  GLY85       0.1869
     44  C         -3.8180  -26.2520   16.4370 C.2    85  GLY85       0.2309
     45  O         -2.7350  -25.9130   16.0480 O.2    85  GLY85      -0.2863
     46  N         -5.6820  -23.5460    4.4640 N.3   157  ALA157     -0.1231
     47  CA        -6.4870  -24.7280    4.7210 C.3   157  ALA157      0.1694
     48  C         -6.7970  -24.8990    6.2190 C.2   157  ALA157      0.2592
     49  O         -5.9680  -24.5930    7.0930 O.2   157  ALA157     -0.2718
     50  CB        -5.8110  -25.9850    4.1560 C.3   157  ALA157      0.0304
     51  N         -8.0270  -25.3030    6.4910 N.am  158  PHE158     -0.1962
     52  CA        -8.4290  -25.6680    7.8370 C.3   158  PHE158      0.1771
     53  C         -8.0880  -27.1300    7.9750 C.2   158  PHE158      0.2619
     54  O         -8.6320  -27.9630    7.2810 O.2   158  PHE158     -0.2715
     55  CB        -9.9270  -25.4280    8.0790 C.3   158  PHE158      0.0574
     56  CG       -10.3630  -25.7840    9.4810 C.ar  158  PHE158     -0.0200
     57  CD1      -10.8540  -27.0410    9.7660 C.ar  158  PHE158     -0.0042
     58  CD2      -10.2570  -24.8640   10.5100 C.ar  158  PHE158     -0.0042
     59  CE1      -11.2170  -27.3790   11.0400 C.ar  158  PHE158     -0.0003
     60  CE2      -10.6120  -25.1940   11.7820 C.ar  158  PHE158     -0.0003
     61  CZ       -11.1020  -26.4480   12.0510 C.ar  158  PHE158     -0.0000
     62  N         -7.1880  -27.4320    8.8790 N.am  159  ILE159     -0.1977
     63  CA        -6.6150  -28.7590    8.9660 C.3   159  ILE159      0.1596
     64  C         -7.5520  -29.6800    9.7980 C.2   159  ILE159      0.2287
     65  O         -7.9640  -29.3440   10.9180 O.2   159  ILE159     -0.2864
     66  CB        -5.1990  -28.6960    9.5290 C.3   159  ILE159      0.0276
     67  CG1       -4.3290  -27.7260    8.7160 C.3   159  ILE159      0.0022
     68  CG2       -4.5670  -30.0730    9.5760 C.3   159  ILE159      0.0022
     69  CD1       -4.3480  -27.9430    7.2090 C.3   159  ILE159      0.0001
     70  N         -1.0980  -24.7550   14.0510 N.3   178  VAL178     -0.1231
     71  CA        -1.3890  -24.3910   12.6650 C.3   178  VAL178      0.1692
     72  C         -2.5020  -23.3740   12.6470 C.2   178  VAL178      0.2592
     73  O         -3.4700  -23.4650   13.4370 O.2   178  VAL178     -0.2718
     74  CB        -1.7370  -25.6300   11.7830 C.3   178  VAL178      0.0266
     75  CG1       -2.9470  -26.3560   12.3180 C.3   178  VAL178      0.0020
     76  CG2       -1.9740  -25.2270   10.3250 C.3   178  VAL178      0.0020
     77  N         -2.4010  -22.4160   11.7270 N.am  179  GLU179     -0.1966
     78  CA        -3.5240  -21.5430   11.4750 C.3   179  GLU179      0.1733
     79  C         -3.4410  -20.9990   10.0350 C.2   179  GLU179      0.2616
     80  O         -2.8720  -21.6760    9.1800 O.2   179  GLU179     -0.2715
     81  CB        -3.6930  -20.4720   12.5700 C.3   179  GLU179      0.0429
     82  CG        -2.4290  -19.8890   13.0900 C.3   179  GLU179      0.1163
     83  CD        -1.7320  -19.1860   11.9990 C.2   179  GLU179      0.3649
     84  OE1       -0.6280  -19.6320   11.6160 O.co2 179  GLU179     -0.2457
     85  OE2       -2.3300  -18.2150   11.4910 O.co2 179  GLU179     -0.2457
     86  N         -4.0460  -19.8520    9.7590 N.am  180  MET180     -0.1963
     87  CA        -4.2800  -19.4210    8.3720 C.3   180  MET180      0.1736
     88  C         -3.8860  -17.9880    8.0580 C.2   180  MET180      0.2616
     89  O         -4.1690  -17.4790    6.9670 O.2   180  MET180     -0.2715
     90  CB        -5.7580  -19.6610    8.0270 C.3   180  MET180      0.0427
     91  CG        -6.1850  -21.1210    8.0540 C.3   180  MET180      0.0599
     92  SD        -7.9340  -21.4940    7.6950 S.3   180  MET180     -0.1393
     93  CE        -8.0600  -20.8530    6.0300 C.3   180  MET180      0.0692
     94  N         -3.2700  -17.2990    9.0120 N.am  181  GLU181     -0.1977
     95  CA        -2.9630  -15.9050    8.8370 C.3   181  GLU181      0.1602
     96  C         -1.5790  -15.5140    9.3080 C.2   181  GLU181      0.2287
     97  O         -1.0440  -14.5460    8.7890 O.2   181  GLU181     -0.2864
     98  CB        -3.9600  -15.0300    9.6030 C.3   181  GLU181      0.0415
     99  CG        -5.3980  -15.1080    9.0840 C.3   181  GLU181      0.1163
    100  CD        -6.2050  -16.2650    9.6640 C.2   181  GLU181      0.3649
    101  OE1       -7.2170  -16.6440    9.0440 O.co2 181  GLU181     -0.2457
    102  OE2       -5.8250  -16.7770   10.7430 O.co2 181  GLU181     -0.2457
    103  N         -1.7940  -17.0090   20.3130 N.3   200  ARG200     -0.1245
    104  CA        -3.1080  -17.6210   20.0600 C.3   200  ARG200      0.1563
    105  C         -3.4420  -18.6620   21.1250 C.2   200  ARG200      0.2260
    106  O         -2.6060  -18.9760   21.9900 O.2   200  ARG200     -0.2867
    107  CB        -3.1790  -18.2360   18.6610 C.3   200  ARG200      0.0307
    108  CG        -3.1230  -17.1770   17.5630 C.3   200  ARG200      0.0489
    109  CD        -2.7650  -17.8010   16.2530 C.3   200  ARG200      0.2205
    110  NE        -2.9400  -16.9220   15.1010 N.pl3 200  ARG200     -0.0865
    111  CZ        -4.0480  -16.8080   14.3610 C.cat 200  ARG200      0.5346
    112  NH1       -5.1630  -17.4740   14.6510 N.pl3 200  ARG200      0.1354
    113  NH2       -4.0400  -15.9890   13.3010 N.pl3 200  ARG200      0.1354
    114  N         -8.1640  -24.0190   19.8640 N.3   203  SER203     -0.1202
    115  CA        -9.5960  -24.3180   19.6790 C.3   203  SER203      0.2020
    116  C         -9.8690  -25.7660   19.3100 C.2   203  SER203      0.2618
    117  O        -11.0290  -26.2210   19.3630 O.2   203  SER203     -0.2717
    118  CB       -10.2160  -23.4360   18.5570 C.3   203  SER203      0.2103
    119  OG        -9.4500  -23.5250   17.3670 O.3   203  SER203     -0.2182
    120  N         -8.8320  -26.4740   18.8750 N.am  204  ASP204     -0.1973
    121  CA        -8.9640  -27.8330   18.3450 C.3   204  ASP204      0.1709
    122  C         -7.5380  -28.4210   18.1670 C.2   204  ASP204      0.2293
    123  O         -6.5660  -27.6850   18.2450 O.2   204  ASP204     -0.2864
    124  CB        -9.7300  -27.8180   17.0070 C.3   204  ASP204      0.1436
    125  CG        -9.0300  -26.9780   15.9280 C.2   204  ASP204      0.3671
    126  OD1       -8.1480  -27.5310   15.2390 O.co2 204  ASP204     -0.2456
    127  OD2       -9.3620  -25.7730   15.7870 O.co2 204  ASP204     -0.2456
    128  N         -6.6590  -30.1700   15.2720 N.3   206  ALA206     -0.1245
    129  CA        -6.3900  -30.3120   13.8390 C.3   206  ALA206      0.1562
    130  C         -6.5730  -31.7400   13.2670 C.2   206  ALA206      0.2260
    131  O         -6.0720  -32.0630   12.1750 O.2   206  ALA206     -0.2867
    132  CB        -5.0180  -29.7450   13.5070 C.3   206  ALA206      0.0290
    133  N        -13.7870  -27.0070   17.0220 N.3   214  PHE214     -0.1241
    134  CA       -13.7510  -25.5640   16.7270 C.3   214  PHE214      0.1605
    135  C        -15.1080  -24.9300   16.9550 C.2   214  PHE214      0.2264
    136  O        -15.2040  -23.8850   17.5750 O.2   214  PHE214     -0.2867
    137  CB       -13.3370  -25.3350   15.2750 C.3   214  PHE214      0.0534
    138  CG       -13.1710  -23.8800   14.8800 C.ar  214  PHE214     -0.0203
    139  CD1      -14.2010  -23.1840   14.2250 C.ar  214  PHE214     -0.0042
    140  CD2      -11.9780  -23.2290   15.1030 C.ar  214  PHE214     -0.0042
    141  CE1      -14.0410  -21.8590   13.8520 C.ar  214  PHE214     -0.0003
    142  CE2      -11.7990  -21.9110   14.7200 C.ar  214  PHE214     -0.0003
    143  CZ       -12.8150  -21.2120   14.0890 C.ar  214  PHE214     -0.0000
@<TRIPOS>BOND
     1    50    47    1
     2    46    47    1
     3    26    25    2
     4    47    48    1
     5    25    24    1
     6    93    92    1
     7    48    51   am
     8    48    49    2
     9    51    52    1
    10    29    27    1
    11    89    88    2
    12    23    24    1
    13    24    27    1
    14    27    28    1
    15    69    67    1
    16    54    53    2
    17    92    91    1
    18    52    53    1
    19    52    55    1
    20    53    62   am
    21    90    91    1
    22    90    87    1
    23    88    87    1
    24    88    94   am
    25    55    56    1
    26    87    86    1
    27    28    30    1
    28    67    66    1
    29    97    96    2
    30    95    94    1
    31    95    96    1
    32    95    98    1
    33    62    63    1
    34    63    66    1
    35    63    64    1
    36   101   100   ar
    37    99    98    1
    38    99   100    1
    39    80    79    2
    40    56    57   ar
    41    56    58   ar
    42    66    68    1
    43   100   102   ar
    44    86    79   am
    45    57    59   ar
    46    64    65    2
    47    79    78    1
    48    76    74    1
    49    58    60   ar
    50     4     3    2
    51    59    61   ar
    52     5     2    1
    53    78    77    1
    54    78    81    1
    55    85    83   ar
    56     2     3    1
    57     2     1    1
    58    84    83   ar
    59     3     6   am
    60    77    72   am
    61    60    61   ar
    62    74    75    1
    63    74    71    1
    64    83    82    1
    65   131   130    2
    66    11    12    1
    67    11    10    1
    68    81    82    1
    69    72    71    1
    70    72    73    2
    71    71    70    1
    72     6     7    1
    73     7    10    1
    74     7     8    1
    75    13    12    1
    76   130   129    1
    77   113   111    1
    78   132   129    1
    79     8     9    2
    80   129   128    1
    81   141   143   ar
    82   141   139   ar
    83   143   142   ar
    84   139   138   ar
    85    21    20   ar
    86   111   112    1
    87   111   110    2
    88   142   140   ar
    89   138   140   ar
    90   138   137    1
    91   110   109    1
    92   126   125   ar
    93   137   134    1
    94    20    22   ar
    95    20    19    1
    96    42    43    1
    97    42    39   am
    98    43    44    1
    99   127   125   ar
   100   125   124    1
   101    36    35    1
   102    45    44    2
   103    34    33    2
   104   109   108    1
   105    19    18    1
   106    38    39    1
   107    38    41    1
   108    38    37    1
   109    39    40    2
   110   134   135    1
   111   134   133    1
   112    18    15    1
   113    33    37   am
   114    33    32    1
   115   135   136    2
   116   124   121    1
   117    14    15    1
   118   119   118    1
   119    35    32    1
   120    31    32    1
   121   108   107    1
   122    15    16    1
   123   122   123    2
   124   122   121    1
   125    16    17    2
   126   121   120    1
   127   118   115    1
   128   107   104    1
   129   120   116   am
   130   116   117    2
   131   116   115    1
   132   115   114    1
   133   104   103    1
   134   104   105    1
   135   105   106    2
