@<TRIPOS>MOLECULE
tmp/4f32B00.pdb
 148 144 0 0 0
SMALL
GASTEIGER

@<TRIPOS>ATOM
      1  N          4.1120   13.0130  -42.2690 N.3   214  ALA214     -0.1231
      2  CA         4.7130   11.6810  -42.1510 C.3   214  ALA214      0.1694
      3  C          5.5300   11.2440  -43.3530 C.2   214  ALA214      0.2592
      4  O          5.9640   10.0870  -43.3910 O.2   214  ALA214     -0.2718
      5  CB         3.6250   10.6550  -41.8940 C.3   214  ALA214      0.0304
      6  N          5.6940   12.1360  -44.3270 N.am  215  ARG215     -0.1966
      7  CA         6.4190   11.9300  -45.5660 C.3   215  ARG215      0.1729
      8  C          5.8260   10.8060  -46.4210 C.2   215  ARG215      0.2616
      9  O          6.5310   10.2100  -47.1970 O.2   215  ARG215     -0.2715
     10  CB         7.9400   11.6700  -45.2790 C.3   215  ARG215      0.0348
     11  CG         8.5500   12.9560  -44.6410 C.3   215  ARG215      0.0492
     12  CD         9.0510   13.8070  -45.7710 C.3   215  ARG215      0.2205
     13  NE         9.4370   15.1590  -45.4850 N.pl3 215  ARG215     -0.0865
     14  CZ         8.7730   16.1630  -44.8990 C.cat 215  ARG215      0.5346
     15  NH1        7.4630   16.0660  -44.6040 N.pl3 215  ARG215      0.1354
     16  NH2        9.4810   17.2760  -44.5920 N.pl3 215  ARG215      0.1354
     17  N          4.5450   10.5140  -46.2510 N.am  216  ALA216     -0.1977
     18  CA         3.9170    9.3690  -46.8560 C.3   216  ALA216      0.1597
     19  C          3.2900    9.6360  -48.2490 C.2   216  ALA216      0.2287
     20  O          2.9290    8.6710  -48.9560 O.2   216  ALA216     -0.2864
     21  CB         2.8530    8.8130  -45.8980 C.3   216  ALA216      0.0319
     22  N          2.2660    7.6760  -51.4130 N.3   239  PHE239     -0.1241
     23  CA         0.9560    7.3210  -51.9700 C.3   239  PHE239      0.1605
     24  C          0.1500    8.5510  -52.3980 C.2   239  PHE239      0.2264
     25  O          0.5070    9.7100  -52.0930 O.2   239  PHE239     -0.2867
     26  CB         0.1450    6.3830  -51.0420 C.3   239  PHE239      0.0534
     27  CG        -0.4620    7.0320  -49.7770 C.ar  239  PHE239     -0.0203
     28  CD1       -1.6830    7.6730  -49.8230 C.ar  239  PHE239     -0.0042
     29  CD2        0.0910    6.7880  -48.5250 C.ar  239  PHE239     -0.0042
     30  CE1       -2.2850    8.1730  -48.6630 C.ar  239  PHE239     -0.0003
     31  CE2       -0.5000    7.2700  -47.3610 C.ar  239  PHE239     -0.0003
     32  CZ        -1.6850    7.9740  -47.4380 C.ar  239  PHE239     -0.0000
     33  N          2.2950   -6.5650  -36.7650 N.3   275  ASP275     -0.1239
     34  CA         3.7710   -6.5570  -36.8010 C.3   275  ASP275      0.1674
     35  C          4.3760   -6.3860  -35.3960 C.2   275  ASP275      0.2266
     36  O          5.4110   -6.9550  -35.1060 O.2   275  ASP275     -0.2867
     37  CB         4.3370   -5.3680  -37.6050 C.3   275  ASP275      0.1410
     38  CG         3.9740   -5.3470  -39.0650 C.2   275  ASP275      0.3668
     39  OD1        3.8140   -6.4250  -39.6790 O.co2 275  ASP275     -0.2456
     40  OD2        3.8920   -4.1830  -39.6150 O.co2 275  ASP275     -0.2456
     41  N          6.5020   -0.9930  -35.6430 N.3   278  HIS278     -0.1241
     42  CA         6.5740    0.4620  -35.6650 C.3   278  HIS278      0.1621
     43  C          5.2250    1.0160  -35.9710 C.2   278  HIS278      0.2264
     44  O          4.4410    0.3800  -36.6690 O.2   278  HIS278     -0.2867
     45  CB         7.6100    0.9220  -36.7300 C.3   278  HIS278      0.0745
     46  CG         7.9180    2.4000  -36.6850 C.ar  278  HIS278      0.0817
     47  ND1        7.1160    3.3290  -37.2540 N.ar  278  HIS278     -0.2268
     48  CD2        8.9810    3.1020  -36.0910 C.ar  278  HIS278      0.1154
     49  CE1        7.6060    4.5540  -37.0370 C.ar  278  HIS278      0.1986
     50  NE2        8.7520    4.4270  -36.3070 N.ar  278  HIS278     -0.2212
     51  N          4.1870    3.4870  -37.9750 N.3   280  THR280     -0.1203
     52  CA         3.8840    3.8980  -39.3530 C.3   280  THR280      0.1994
     53  C          4.6930    3.2050  -40.4500 C.2   280  THR280      0.2618
     54  O          4.7420    3.6910  -41.5930 O.2   280  THR280     -0.2717
     55  CB         4.0490    5.4170  -39.5540 C.3   280  THR280      0.1784
     56  OG1        5.4010    5.7860  -39.2260 O.3   280  THR280     -0.2211
     57  CG2        3.0210    6.1800  -38.6950 C.3   280  THR280      0.0376
     58  N          5.3240    2.0830  -40.1260 N.am  281  ALA281     -0.1965
     59  CA         6.0970    1.3160  -41.1030 C.3   281  ALA281      0.1728
     60  C          6.1150   -0.1370  -40.6430 C.2   281  ALA281      0.2616
     61  O          6.1290   -0.4150  -39.4470 O.2   281  ALA281     -0.2715
     62  CB         7.5330    1.8670  -41.2210 C.3   281  ALA281      0.0334
     63  N          6.0880   -1.0520  -41.5890 N.am  282  GLY282     -0.1955
     64  CA         6.3330   -2.4600  -41.3120 C.3   282  GLY282      0.1869
     65  C          7.8120   -2.7840  -41.5010 C.2   282  GLY282      0.2309
     66  O          8.5880   -1.9750  -42.0490 O.2   282  GLY282     -0.2863
     67  N         -1.3160   -4.7460  -51.7650 N.3   313  HIS313     -0.1241
     68  CA        -1.6470   -3.4830  -51.1090 C.3   313  HIS313      0.1621
     69  C         -0.8780   -2.3330  -51.7120 C.2   313  HIS313      0.2264
     70  O         -1.4100   -1.2040  -51.8240 O.2   313  HIS313     -0.2867
     71  CB        -1.3240   -3.5900  -49.6450 C.3   313  HIS313      0.0745
     72  CG        -1.7170   -2.3720  -48.8400 C.ar  313  HIS313      0.0817
     73  ND1       -3.0230   -1.9880  -48.6870 N.ar  313  HIS313     -0.2268
     74  CD2       -0.9520   -1.4830  -48.1080 C.ar  313  HIS313      0.1154
     75  CE1       -3.0560   -0.8810  -47.9190 C.ar  313  HIS313      0.1986
     76  NE2       -1.7880   -0.5910  -47.5480 N.ar  313  HIS313     -0.2212
     77  N          1.0630    0.7070  -52.0850 N.3   315  THR315     -0.1218
     78  CA         0.4600    2.0370  -52.1510 C.3   315  THR315      0.1862
     79  C          1.3370    3.0910  -52.8690 C.2   315  THR315      0.2287
     80  O          0.9610    4.2650  -52.9540 O.2   315  THR315     -0.2866
     81  CB         0.2030    2.5490  -50.7400 C.3   315  THR315      0.1770
     82  OG1        1.4560    2.7640  -50.1040 O.3   315  THR315     -0.2211
     83  CG2       -0.6300    1.5470  -49.9030 C.3   315  THR315      0.0375
     84  N          4.6390    3.8020  -51.7240 N.3   317  THR317     -0.1204
     85  CA         5.6310    4.3580  -50.7820 C.3   317  THR317      0.1979
     86  C          6.9550    3.5690  -50.9690 C.2   317  THR317      0.2460
     87  O          6.9460    2.3830  -51.3210 O.2   317  THR317     -0.2732
     88  CB         5.1860    4.2630  -49.3160 C.3   317  THR317      0.1783
     89  OG1        5.1560    2.8900  -48.9310 O.3   317  THR317     -0.2211
     90  CG2        3.7920    4.9470  -49.0300 C.3   317  THR317      0.0376
     91  N          8.1030    4.2110  -50.7220 N.am  318  PRO318     -0.2717
     92  CA         9.3800    3.4820  -50.8620 C.3   318  PRO318      0.1535
     93  C          9.5160    2.2450  -49.9750 C.2   318  PRO318      0.2598
     94  O          9.7370    1.1300  -50.4780 O.2   318  PRO318     -0.2715
     95  CB        10.4330    4.5480  -50.5250 C.3   318  PRO318      0.0310
     96  CG         9.7780    5.8310  -50.9560 C.3   318  PRO318      0.0237
     97  CD         8.3140    5.6630  -50.5860 C.3   318  PRO318      0.0939
     98  N          9.3110    2.4200  -48.6810 N.am  319  VAL319     -0.1964
     99  CA         9.4800    1.3420  -47.7240 C.3   319  VAL319      0.1727
    100  C          8.3170    0.3510  -47.7550 C.2   319  VAL319      0.2616
    101  O          8.5290   -0.8490  -47.6280 O.2   319  VAL319     -0.2715
    102  CB         9.6920    1.9020  -46.3040 C.3   319  VAL319      0.0290
    103  CG1        9.4860    0.8300  -45.2440 C.3   319  VAL319      0.0023
    104  CG2       11.0840    2.5490  -46.2160 C.3   319  VAL319      0.0023
    105  N          7.0930    0.8320  -47.9660 N.am  320  GLY320     -0.1955
    106  CA         5.9160   -0.0500  -47.9260 C.3   320  GLY320      0.1869
    107  C          5.9070   -1.0760  -49.0290 C.2   320  GLY320      0.2309
    108  O          5.7180   -2.2680  -48.8070 O.2   320  GLY320     -0.2863
    109  N         -5.1300    5.6190  -53.2560 N.3   349  HIS349     -0.1241
    110  CA        -5.3290    4.8800  -52.0030 C.3   349  HIS349      0.1621
    111  C         -6.6060    5.2650  -51.2990 C.2   349  HIS349      0.2264
    112  O         -6.7400    6.4050  -50.7670 O.2   349  HIS349     -0.2867
    113  CB        -4.1420    5.2110  -51.1260 C.3   349  HIS349      0.0745
    114  CG        -3.9710    4.3070  -49.9510 C.ar  349  HIS349      0.0817
    115  ND1       -4.9470    3.4680  -49.5400 N.ar  349  HIS349     -0.2268
    116  CD2       -2.9120    4.1400  -49.0870 C.ar  349  HIS349      0.1154
    117  CE1       -4.5200    2.7710  -48.4810 C.ar  349  HIS349      0.1986
    118  NE2       -3.2650    3.1760  -48.1890 N.ar  349  HIS349     -0.2212
    119  N         -2.8340   -3.4230  -45.6190 N.3   407  PHE407     -0.1227
    120  CA        -2.0300   -3.1560  -44.4650 C.3   407  PHE407      0.1736
    121  C         -2.3170   -1.7500  -43.9530 C.2   407  PHE407      0.2596
    122  O         -2.8520   -0.9200  -44.6540 O.2   407  PHE407     -0.2718
    123  CB        -0.5290   -3.2830  -44.7670 C.3   407  PHE407      0.0547
    124  CG        -0.1710   -4.4980  -45.5840 C.ar  407  PHE407     -0.0202
    125  CD1       -0.6190   -5.7670  -45.2420 C.ar  407  PHE407     -0.0042
    126  CD2        0.6260   -4.3680  -46.6860 C.ar  407  PHE407     -0.0042
    127  CE1       -0.3150   -6.8920  -46.0150 C.ar  407  PHE407     -0.0003
    128  CE2        0.9740   -5.4910  -47.4540 C.ar  407  PHE407     -0.0003
    129  CZ         0.5010   -6.7500  -47.1230 C.ar  407  PHE407     -0.0000
    130  N         -1.9370   -1.4740  -42.7210 N.am  408  GLY408     -0.1942
    131  CA        -2.2340   -0.1210  -42.1960 C.3   408  GLY408      0.2014
    132  C         -1.3160    0.2840  -41.0870 C.2   408  GLY408      0.2638
    133  O         -0.6290   -0.5810  -40.5310 O.2   408  GLY408     -0.2714
    134  N         -1.2910    1.5870  -40.7790 N.am  409  PHE409     -0.1973
    135  CA        -0.5690    2.0920  -39.6270 C.3   409  PHE409      0.1639
    136  C         -1.0150    1.3440  -38.3880 C.2   409  PHE409      0.2290
    137  O         -2.1560    0.8620  -38.3110 O.2   409  PHE409     -0.2864
    138  CB        -0.8020    3.5860  -39.3790 C.3   409  PHE409      0.0560
    139  CG        -0.1300    4.5350  -40.3600 C.ar  409  PHE409     -0.0200
    140  CD1        0.8420    4.1200  -41.2780 C.ar  409  PHE409     -0.0042
    141  CD2       -0.4580    5.8950  -40.3150 C.ar  409  PHE409     -0.0042
    142  CE1        1.4370    5.0400  -42.1230 C.ar  409  PHE409     -0.0003
    143  CE2        0.1340    6.8190  -41.1540 C.ar  409  PHE409     -0.0003
    144  CZ         1.0790    6.3920  -42.0710 C.ar  409  PHE409     -0.0000
    145  N          0.6780   -1.3300  -37.5220 N.3   411  GLY411     -0.1225
    146  CA         1.1740   -2.6530  -37.7870 C.3   411  GLY411      0.1811
    147  C          0.1160   -3.6570  -38.2370 C.2   411  GLY411      0.2280
    148  O          0.3690   -4.8710  -38.2130 O.2   411  GLY411     -0.2866
@<TRIPOS>BOND
     1   109   110    1
     2    80    79    2
     3    79    78    1
     4    24    25    2
     5    24    23    1
     6    78    77    1
     7    78    81    1
     8   110   111    1
     9   110   113    1
    10    23    22    1
    11    23    26    1
    12    70    69    2
    13    67    68    1
    14    84    85    1
    15    69    68    1
    16    87    86    2
    17   111   112    2
    18   113   114    1
    19    68    71    1
    20    26    27    1
    21    86    85    1
    22    86    91   am
    23    96    97    1
    24    96    95    1
    25    92    91    1
    26    92    95    1
    27    92    93    1
    28    85    88    1
    29    81    82    1
    30    81    83    1
    31    91    97    1
    32    94    93    2
    33    93    98   am
    34   114   115   ar
    35   114   116   ar
    36    28    27   ar
    37    28    30   ar
    38    27    29   ar
    39    71    72    1
    40   115   117   ar
    41    88    90    1
    42    88    89    1
    43   116   118   ar
    44   107   108    2
    45   107   106    1
    46    20    19    2
    47    72    73   ar
    48    72    74   ar
    49    73    75   ar
    50    98    99    1
    51    30    32   ar
    52    29    31   ar
    53   117   118   ar
    54    19    18    1
    55    74    76   ar
    56   105   106    1
    57   105   100   am
    58    75    76   ar
    59   100    99    1
    60   100   101    2
    61    99   102    1
    62   128   129   ar
    63   128   126   ar
    64    32    31   ar
    65     9     8    2
    66   129   127   ar
    67    18    17    1
    68    18    21    1
    69   126   124   ar
    70     8    17   am
    71     8     7    1
    72   102   104    1
    73   102   103    1
    74   127   125   ar
    75    12    13    1
    76    12    11    1
    77   119   120    1
    78   124   125   ar
    79   124   123    1
    80     7    10    1
    81     7     6    1
    82    13    14    2
    83    10    11    1
    84    14    15    1
    85    14    16    1
    86   123   120    1
    87   122   121    2
    88   120   121    1
    89     6     3   am
    90   121   130   am
    91     4     3    2
    92     3     2    1
    93   130   131    1
    94     1     2    1
    95   131   132    1
    96     2     5    1
    97   142   144   ar
    98   142   140   ar
    99   144   143   ar
   100    66    65    2
   101    54    53    2
   102    63    64    1
   103    63    60   am
   104    65    64    1
   105   140   139   ar
   106    62    59    1
   107   143   141   ar
   108    59    60    1
   109    59    58    1
   110   132   134   am
   111   132   133    2
   112   134   135    1
   113    60    61    2
   114    53    58   am
   115    53    52    1
   116   139   141   ar
   117   139   138    1
   118    39    38   ar
   119   135   138    1
   120   135   136    1
   121    40    38   ar
   122    55    52    1
   123    55    56    1
   124    55    57    1
   125    52    51    1
   126    38    37    1
   127   136   137    2
   128   147   148    2
   129   147   146    1
   130   146   145    1
   131    37    34    1
   132    47    49   ar
   133    47    46   ar
   134    49    50   ar
   135    34    33    1
   136    34    35    1
   137    45    46    1
   138    45    42    1
   139    46    48   ar
   140    44    43    2
   141    50    48   ar
   142    43    42    1
   143    42    41    1
   144    35    36    2
