@<TRIPOS>MOLECULE
tmp/4f32A00.pdb
 98 93 0 0 0
SMALL
GASTEIGER

@<TRIPOS>ATOM
      1  N         -6.7680   15.2370  -30.1680 N.3   120  GLY120     -0.1225
      2  CA        -5.6220   15.3560  -31.0580 C.3   120  GLY120      0.1811
      3  C         -6.0160   15.9070  -32.4290 C.2   120  GLY120      0.2280
      4  O         -5.3640   16.7940  -32.9990 O.2   120  GLY120     -0.2866
      5  N         -6.9210   19.5280  -32.1490 N.3   123  GLU123     -0.1231
      6  CA        -5.7000   20.3290  -32.0950 C.3   123  GLU123      0.1699
      7  C         -5.0430   20.4490  -33.4820 C.2   123  GLU123      0.2592
      8  O         -4.6330   21.5320  -33.8720 O.2   123  GLU123     -0.2718
      9  CB        -4.6920   19.7920  -31.0670 C.3   123  GLU123      0.0402
     10  CG        -3.3450   20.5270  -31.0660 C.3   123  GLU123      0.1161
     11  CD        -3.3790   21.9700  -30.6110 C.2   123  GLU123      0.3649
     12  OE1       -4.4810   22.5100  -30.2770 O.co2 123  GLU123     -0.2457
     13  OE2       -2.2650   22.5870  -30.5630 O.co2 123  GLU123     -0.2457
     14  N         -4.9700   19.3560  -34.2380 N.am  124  ALA124     -0.1980
     15  CA        -4.4070   19.4240  -35.6050 C.3   124  ALA124      0.1597
     16  C         -5.2010   20.4260  -36.4780 C.2   124  ALA124      0.2287
     17  O         -4.6190   21.2360  -37.2040 O.2   124  ALA124     -0.2864
     18  CB        -4.3820   18.0470  -36.2640 C.3   124  ALA124      0.0319
     19  N         -4.2970   23.9260  -35.3670 N.3   127  ILE127     -0.1245
     20  CA        -2.9930   24.2740  -35.9690 C.3   127  ILE127      0.1561
     21  C         -3.1620   24.6930  -37.4220 C.2   127  ILE127      0.2260
     22  O         -2.5140   25.6410  -37.8900 O.2   127  ILE127     -0.2867
     23  CB        -2.0060   23.0990  -35.8600 C.3   127  ILE127      0.0252
     24  CG1       -1.5740   22.9330  -34.3990 C.3   127  ILE127      0.0019
     25  CG2       -0.8040   23.2810  -36.8050 C.3   127  ILE127      0.0019
     26  CD1       -0.9040   21.6100  -34.1220 C.3   127  ILE127      0.0001
     27  N         -1.0070   28.1390  -37.0950 N.3   131  ARG131     -0.1245
     28  CA         0.3970   28.0230  -37.5160 C.3   131  ARG131      0.1563
     29  C          0.4870   27.5570  -38.9640 C.2   131  ARG131      0.2260
     30  O          1.4030   27.9450  -39.7020 O.2   131  ARG131     -0.2867
     31  CB         1.1620   27.0960  -36.5470 C.3   131  ARG131      0.0307
     32  CG         1.1220   27.6110  -35.1260 C.3   131  ARG131      0.0489
     33  CD         1.9670   26.6700  -34.2930 C.3   131  ARG131      0.2205
     34  NE         3.3720   26.6690  -34.7840 N.pl3 131  ARG131     -0.0865
     35  CZ         4.0790   25.5810  -34.4170 C.cat 131  ARG131      0.5346
     36  NH1        3.4390   24.6590  -33.6970 N.pl3 131  ARG131      0.1354
     37  NH2        5.3410   25.4760  -34.7750 N.pl3 131  ARG131      0.1354
     38  N          1.5120   23.1040  -42.9460 N.3   134  ARG134     -0.1231
     39  CA         2.9160   22.7180  -43.1770 C.3   134  ARG134      0.1694
     40  C          3.6600   22.5020  -41.8600 C.2   134  ARG134      0.2592
     41  O          4.7280   21.8930  -41.8610 O.2   134  ARG134     -0.2718
     42  CB         3.6850   23.7110  -44.0650 C.3   134  ARG134      0.0321
     43  CG         3.1560   23.8260  -45.4900 C.3   134  ARG134      0.0489
     44  CD         4.1860   24.4400  -46.4350 C.3   134  ARG134      0.2205
     45  NE         5.2030   23.4740  -46.9010 N.pl3 134  ARG134     -0.0865
     46  CZ         5.1700   22.7930  -48.0560 C.cat 134  ARG134      0.5346
     47  NH1        4.1660   22.9290  -48.9210 N.pl3 134  ARG134      0.1354
     48  NH2        6.1640   21.9620  -48.3590 N.pl3 134  ARG134      0.1354
     49  N          3.1110   22.9870  -40.7510 N.am  135  ARG135     -0.1966
     50  CA         3.7620   22.8230  -39.4430 C.3   135  ARG135      0.1729
     51  C          3.2270   21.6670  -38.5920 C.2   135  ARG135      0.2616
     52  O          3.6080   21.5430  -37.4370 O.2   135  ARG135     -0.2715
     53  CB         3.6830   24.1040  -38.6440 C.3   135  ARG135      0.0348
     54  CG         4.0830   25.2690  -39.5050 C.3   135  ARG135      0.0492
     55  CD         4.9060   26.3240  -38.8050 C.3   135  ARG135      0.2205
     56  NE         5.3910   27.1930  -39.8680 N.pl3 135  ARG135     -0.0865
     57  CZ         6.6650   27.3530  -40.2500 C.cat 135  ARG135      0.5346
     58  NH1        6.9140   28.1620  -41.2490 N.pl3 135  ARG135      0.1354
     59  NH2        7.6810   26.7360  -39.6300 N.pl3 135  ARG135      0.1354
     60  N          2.3810   20.8170  -39.1540 N.am  136  LEU136     -0.1963
     61  CA         1.9160   19.6550  -38.4080 C.3   136  LEU136      0.1728
     62  C          3.0470   18.7040  -38.0560 C.2   136  LEU136      0.2617
     63  O          3.9670   18.4890  -38.8400 O.2   136  LEU136     -0.2715
     64  CB         0.8090   18.8940  -39.1720 C.3   136  LEU136      0.0311
     65  CG        -0.4800   19.6810  -39.3680 C.3   136  LEU136      0.0022
     66  CD1       -1.3700   19.0530  -40.4790 C.3   136  LEU136      0.0001
     67  CD2       -1.1900   19.8040  -38.0350 C.3   136  LEU136      0.0001
     68  N          2.9430   18.1200  -36.8680 N.am  137  SER137     -0.1936
     69  CA         3.8700   17.1030  -36.3960 C.3   137  SER137      0.2040
     70  C          3.8810   15.8980  -37.3420 C.2   137  SER137      0.2485
     71  O          2.8110   15.4700  -37.7850 O.2   137  SER137     -0.2729
     72  CB         3.4330   16.6220  -35.0210 C.3   137  SER137      0.2129
     73  OG         4.2430   15.5320  -34.6060 O.3   137  SER137     -0.2179
     74  N          5.0680   15.2930  -37.5740 N.am  138  PRO138     -0.2726
     75  CA         5.1070   14.0140  -38.2830 C.3   138  PRO138      0.1402
     76  C          4.2380   12.9380  -37.6360 C.2   138  PRO138      0.2269
     77  O          3.8390   12.0130  -38.3130 O.2   138  PRO138     -0.2865
     78  CB         6.5830   13.5940  -38.2030 C.3   138  PRO138      0.0296
     79  CG         7.3100   14.8840  -38.0580 C.3   138  PRO138      0.0237
     80  CD         6.4230   15.7170  -37.1700 C.3   138  PRO138      0.0939
     81  N          1.1550   13.3570  -36.3670 N.3   140  THR140     -0.1218
     82  CA        -0.2420   13.7530  -36.3560 C.3   140  THR140      0.1862
     83  C         -1.2350   12.6150  -36.5910 C.2   140  THR140      0.2287
     84  O         -2.1970   12.4540  -35.8290 O.2   140  THR140     -0.2866
     85  CB        -0.4820   14.8280  -37.4320 C.3   140  THR140      0.1770
     86  OG1        0.2700   16.0240  -37.1220 O.3   140  THR140     -0.2211
     87  CG2       -1.9930   15.1940  -37.5650 C.3   140  THR140      0.0375
     88  N         -1.0650    9.6500  -33.9770 N.3   143  PHE143     -0.1241
     89  CA        -1.4110   10.2620  -32.6980 C.3   143  PHE143      0.1605
     90  C         -2.8860   10.0830  -32.3640 C.2   143  PHE143      0.2264
     91  O         -3.2110    9.8570  -31.1860 O.2   143  PHE143     -0.2867
     92  CB        -1.0830   11.7460  -32.7350 C.3   143  PHE143      0.0534
     93  CG        -1.2320   12.4540  -31.4200 C.ar  143  PHE143     -0.0203
     94  CD1       -2.4200   13.0420  -31.0650 C.ar  143  PHE143     -0.0042
     95  CD2       -0.1400   12.5910  -30.5790 C.ar  143  PHE143     -0.0042
     96  CE1       -2.5410   13.7480  -29.8540 C.ar  143  PHE143     -0.0003
     97  CE2       -0.2570   13.2590  -29.3710 C.ar  143  PHE143     -0.0003
     98  CZ        -1.4500   13.8460  -29.0160 C.ar  143  PHE143     -0.0000
@<TRIPOS>BOND
     1    47    46    1
     2    48    46    1
     3    46    45    2
     4    45    44    1
     5    44    43    1
     6    43    42    1
     7    42    39    1
     8    39    38    1
     9    39    40    1
    10    41    40    2
    11    40    49   am
    12    58    57    1
    13    49    50    1
    14    66    65    1
    15    57    56    2
    16    57    59    1
    17    56    55    1
    18    30    29    2
    19    54    55    1
    20    54    53    1
    21    50    53    1
    22    50    51    1
    23    65    64    1
    24    65    67    1
    25    64    61    1
    26    60    51   am
    27    60    61    1
    28    29    28    1
    29    63    62    2
    30    51    52    2
    31    61    62    1
    32    77    76    2
    33    75    78    1
    34    75    76    1
    35    75    74    1
    36    78    79    1
    37    79    80    1
    38    62    68   am
    39    22    21    2
    40    71    70    2
    41    74    70   am
    42    74    80    1
    43    87    85    1
    44    28    27    1
    45    28    31    1
    46    85    86    1
    47    85    82    1
    48    21    20    1
    49    70    69    1
    50    17    16    2
    51    68    69    1
    52    25    23    1
    53    83    82    1
    54    83    84    2
    55    31    32    1
    56    16    15    1
    57    69    72    1
    58    81    82    1
    59    18    15    1
    60    20    23    1
    61    20    19    1
    62    23    24    1
    63    15    14    1
    64    32    33    1
    65    72    73    1
    66    34    35    2
    67    34    33    1
    68    37    35    1
    69    35    36    1
    70    24    26    1
    71    14     7   am
    72    88    89    1
    73     8     7    2
    74     7     6    1
    75     4     3    2
    76    92    89    1
    77    92    93    1
    78    89    90    1
    79     3     2    1
    80    90    91    2
    81     5     6    1
    82     6     9    1
    83    93    94   ar
    84    93    95   ar
    85     9    10    1
    86    10    11    1
    87    94    96   ar
    88     2     1    1
    89    11    13   ar
    90    11    12   ar
    91    95    97   ar
    92    96    98   ar
    93    97    98   ar
