@<TRIPOS>MOLECULE
tmp/4f33E00.pdb
 107 102 0 0 0
SMALL
GASTEIGER

@<TRIPOS>ATOM
      1  N         77.0510   34.3130   41.8930 N.3    37  GLN37      -0.1231
      2  CA        77.2220   33.6480   40.6140 C.3    37  GLN37       0.1698
      3  C         75.8860   33.5820   39.9200 C.2    37  GLN37       0.2592
      4  O         74.9200   33.0510   40.4520 O.2    37  GLN37      -0.2718
      5  CB        77.7580   32.2220   40.7740 C.3    37  GLN37       0.0381
      6  CG        78.0830   31.5790   39.4310 C.3    37  GLN37       0.0905
      7  CD        78.6240   30.1520   39.5510 C.2    37  GLN37       0.2608
      8  OE1       78.2890   29.4140   40.4910 O.2    37  GLN37      -0.2717
      9  NE2       79.4540   29.7570   38.6100 N.am   37  GLN37      -0.0878
     10  N         75.8340   34.1240   38.7210 N.am   38  LYS38      -0.1966
     11  CA        74.6800   33.9550   37.8450 C.3    38  LYS38       0.1728
     12  C         74.8980   32.7840   36.8870 C.2    38  LYS38       0.2617
     13  O         76.0100   32.3980   36.5870 O.2    38  LYS38      -0.2715
     14  CB        74.4330   35.2480   37.0670 C.3    38  LYS38       0.0311
     15  CG        73.8770   36.3560   37.9540 C.3    38  LYS38       0.0038
     16  CD        73.5480   37.6150   37.1760 C.3    38  LYS38       0.0206
     17  CE        72.8700   38.6420   38.0650 C.3    38  LYS38       0.1093
     18  NZ        71.3580   38.5900   37.9790 N.3    38  LYS38      -0.1314
     19  N         73.8200   32.2170   36.3870 N.am   39  SER39      -0.1936
     20  CA        73.9370   31.0680   35.5060 C.3    39  SER39       0.2055
     21  C         74.8760   31.2980   34.3000 C.2    39  SER39       0.2644
     22  O         74.8050   32.3190   33.6350 O.2    39  SER39      -0.2714
     23  CB        72.5550   30.6960   34.9930 C.3    39  SER39       0.2130
     24  OG        72.6070   29.4600   34.3080 O.3    39  SER39      -0.2179
     25  N         75.7450   30.3300   34.0300 N.am   40  GLY40      -0.1939
     26  CA        76.6800   30.4230   32.9170 C.3    40  GLY40       0.2014
     27  C         77.8140   31.4290   33.0440 C.2    40  GLY40       0.2639
     28  O         78.4890   31.7030   32.0560 O.2    40  GLY40      -0.2714
     29  N         78.0290   31.9770   34.2380 N.am   41  THR41      -0.1950
     30  CA        79.0850   32.9500   34.4650 C.3    41  THR41       0.1897
     31  C         79.9500   32.5180   35.6410 C.2    41  THR41       0.2313
     32  O         79.5590   31.6520   36.4200 O.2    41  THR41      -0.2863
     33  CB        78.5200   34.3560   34.7840 C.3    41  THR41       0.1794
     34  OG1       78.1560   34.4370   36.1670 O.3    41  THR41      -0.2208
     35  CG2       77.3330   34.6700   33.9210 C.3    41  THR41       0.0378
     36  N         68.8400   38.2240   41.0480 N.3    82  ASP82      -0.1225
     37  CA        68.6780   36.7690   40.9100 C.3    82  ASP82       0.1805
     38  C         70.0210   36.1460   40.6150 C.2    82  ASP82       0.2598
     39  O         70.6930   36.5290   39.6680 O.2    82  ASP82      -0.2718
     40  CB        67.6720   36.4030   39.8180 C.3    82  ASP82       0.1424
     41  CG        68.1050   36.8560   38.4360 C.2    82  ASP82       0.3668
     42  OD1       68.5570   38.0210   38.2820 O.co2  82  ASP82      -0.2456
     43  OD2       67.9920   36.0380   37.4930 O.co2  82  ASP82      -0.2456
     44  N         70.4020   35.1790   41.4390 N.am   83  ALA83      -0.1966
     45  CA        71.7250   34.5770   41.3800 C.3    83  ALA83       0.1728
     46  C         71.8130   33.5190   42.4760 C.2    83  ALA83       0.2616
     47  O         70.9220   33.4150   43.3120 O.2    83  ALA83      -0.2715
     48  CB        72.7750   35.6250   41.6420 C.3    83  ALA83       0.0334
     49  N         72.9050   32.7760   42.4980 N.am   84  THR84      -0.1951
     50  CA        73.1930   31.9560   43.6390 C.3    84  THR84       0.1897
     51  C         74.3230   32.6230   44.3980 C.2    84  THR84       0.2313
     52  O         75.2950   33.0750   43.8020 O.2    84  THR84      -0.2863
     53  CB        73.5610   30.5340   43.2370 C.3    84  THR84       0.1794
     54  OG1       72.4210   29.9430   42.6200 O.3    84  THR84      -0.2208
     55  CG2       73.9530   29.7080   44.4620 C.3    84  THR84       0.0378
     56  N         77.1790   32.2930   47.3900 N.3    86  TYR86      -0.1241
     57  CA        77.9530   31.3150   48.1570 C.3    86  TYR86       0.1605
     58  C         78.8050   32.0030   49.2270 C.2    86  TYR86       0.2264
     59  O         79.4520   33.0080   48.9440 O.2    86  TYR86      -0.2867
     60  CB        78.9260   30.5960   47.2350 C.3    86  TYR86       0.0534
     61  CG        78.3050   29.7140   46.2120 C.ar   86  TYR86      -0.0201
     62  CD1       77.9980   28.3990   46.5090 C.ar   86  TYR86      -0.0009
     63  CD2       78.0680   30.1700   44.9190 C.ar   86  TYR86      -0.0009
     64  CE1       77.4500   27.5880   45.5840 C.ar   86  TYR86       0.0417
     65  CE2       77.5080   29.3530   43.9720 C.ar   86  TYR86       0.0417
     66  CZ        77.2150   28.0630   44.2930 C.ar   86  TYR86       0.1957
     67  OH        76.6640   27.2400   43.3430 O.3    86  TYR86      -0.2866
     68  N         70.0300   30.1860   46.5550 N.3   102  LYS102     -0.1231
     69  CA        69.5990   30.6560   45.2590 C.3   102  LYS102      0.1693
     70  C         68.4590   31.6530   45.4280 C.2   102  LYS102      0.2591
     71  O         67.4490   31.3550   46.0440 O.2   102  LYS102     -0.2718
     72  CB        69.1630   29.4790   44.4100 C.3   102  LYS102      0.0285
     73  CG        68.7180   29.8900   43.0250 C.3   102  LYS102      0.0035
     74  CD        68.5050   28.6760   42.1350 C.3   102  LYS102      0.0206
     75  CE        67.8720   29.1000   40.8130 C.3   102  LYS102      0.1093
     76  NZ        67.6000   27.9330   39.9420 N.3   102  LYS102     -0.1314
     77  N         68.6310   32.8440   44.8820 N.am  103  VAL103     -0.1980
     78  CA        67.5990   33.8450   44.9490 C.3   103  VAL103      0.1595
     79  C         66.8370   33.9790   43.6280 C.2   103  VAL103      0.2287
     80  O         67.4310   34.2730   42.5830 O.2   103  VAL103     -0.2864
     81  CB        68.2090   35.2010   45.3210 C.3   103  VAL103      0.0276
     82  CG1       67.1670   36.2700   45.3000 C.3   103  VAL103      0.0022
     83  CG2       68.8610   35.1200   46.7180 C.3   103  VAL103      0.0022
     84  N         67.2620   29.9070   32.7130 N.3   164  GLU164     -0.1231
     85  CA        67.2570   30.4950   34.0290 C.3   164  GLU164      0.1699
     86  C         66.4420   31.7570   33.9240 C.2   164  GLU164      0.2592
     87  O         66.0530   32.1790   32.8350 O.2   164  GLU164     -0.2718
     88  CB        68.6680   30.7790   34.5420 C.3   164  GLU164      0.0402
     89  CG        69.2440   29.6190   35.3620 C.3   164  GLU164      0.1161
     90  CD        68.4080   29.2750   36.6130 C.2   164  GLU164      0.3649
     91  OE1       67.6820   30.1560   37.1710 O.co2 164  GLU164     -0.2457
     92  OE2       68.4870   28.1010   37.0380 O.co2 164  GLU164     -0.2457
     93  N         66.1650   32.3490   35.0670 N.am  165  GLN165     -0.1979
     94  CA        65.3430   33.5260   35.1190 C.3   165  GLN165      0.1601
     95  C         66.0370   34.6730   34.4140 C.2   165  GLN165      0.2287
     96  O         67.2260   34.9200   34.5940 O.2   165  GLN165     -0.2864
     97  CB        65.0450   33.8910   36.5730 C.3   165  GLN165      0.0394
     98  CG        63.8400   34.7360   36.7090 C.3   165  GLN165      0.0908
     99  CD        63.3930   34.9010   38.1460 C.2   165  GLN165      0.2608
    100  OE1       64.2000   34.8580   39.0840 O.2   165  GLN165     -0.2717
    101  NE2       62.0950   35.1250   38.3240 N.am  165  GLN165     -0.0878
    102  N         67.2340   38.2320   33.9750 N.3   167  SER167     -0.1217
    103  CA        67.6010   39.2810   34.9400 C.3   167  SER167      0.1889
    104  C         66.8680   40.6190   34.7100 C.2   167  SER167      0.2288
    105  O         66.9710   41.5270   35.5450 O.2   167  SER167     -0.2866
    106  CB        69.1230   39.5480   34.9200 C.3   167  SER167      0.2089
    107  OG        69.9060   38.3740   35.1460 O.3   167  SER167     -0.2183
@<TRIPOS>BOND
     1    28    27    2
     2    84    85    1
     3    87    86    2
     4    26    27    1
     5    26    25    1
     6    27    29   am
     7    22    21    2
     8    35    33    1
     9    86    85    1
    10    86    93   am
    11   102   103    1
    12    85    88    1
    13    25    21   am
    14    29    30    1
    15    21    20    1
    16    24    23    1
    17    95    96    2
    18    95    94    1
    19    30    33    1
    20    30    31    1
    21    88    89    1
    22   104   103    1
    23   104   105    2
    24    33    34    1
    25   106   103    1
    26   106   107    1
    27    23    20    1
    28    93    94    1
    29    94    97    1
    30    89    90    1
    31    20    19    1
    32    31    32    2
    33    19    12   am
    34    97    98    1
    35    13    12    2
    36    90    92   ar
    37    90    91   ar
    38    98    99    1
    39    12    11    1
    40    14    11    1
    41    14    15    1
    42    16    15    1
    43    16    17    1
    44    43    41   ar
    45    11    10    1
    46    18    17    1
    47    99   101   am
    48    99   100    2
    49    42    41   ar
    50    41    40    1
    51     9     7   am
    52    10     3   am
    53     6     7    1
    54     6     5    1
    55     7     8    2
    56    39    38    2
    57    40    37    1
    58     3     4    2
    59     3     2    1
    60    76    75    1
    61     2     5    1
    62     2     1    1
    63    38    37    1
    64    38    44   am
    65    75    74    1
    66    37    36    1
    67    45    44    1
    68    45    48    1
    69    45    46    1
    70    74    73    1
    71    46    49   am
    72    46    47    2
    73    49    50    1
    74    80    79    2
    75    54    53    1
    76    73    72    1
    77    53    50    1
    78    53    55    1
    79    67    66    1
    80    79    78    1
    81    50    51    1
    82    52    51    2
    83    65    66   ar
    84    65    63   ar
    85    66    64   ar
    86    72    69    1
    87    77    78    1
    88    77    70   am
    89    63    61   ar
    90    78    81    1
    91    69    70    1
    92    69    68    1
    93    82    81    1
    94    81    83    1
    95    70    71    2
    96    64    62   ar
    97    61    62   ar
    98    61    60    1
    99    60    57    1
   100    56    57    1
   101    57    58    1
   102    59    58    2
