@<TRIPOS>MOLECULE
tmp/4f35C00.pdb
 102 98 0 0 0
SMALL
GASTEIGER

@<TRIPOS>ATOM
      1  N         -3.5920   28.2660   45.3750 N.3   125  SER125     -0.1202
      2  CA        -3.2190   29.0580   46.5390 C.3   125  SER125      0.2020
      3  C         -3.0350   30.4730   46.0700 C.2   125  SER125      0.2619
      4  O         -2.9150   30.7240   44.8730 O.2   125  SER125     -0.2717
      5  CB        -1.9060   28.5820   47.1600 C.3   125  SER125      0.2103
      6  OG        -1.3510   29.5670   48.0240 O.3   125  SER125     -0.2182
      7  N         -2.9990   31.4010   47.0150 N.am  126  ASN126     -0.1960
      8  CA        -2.7930   32.7940   46.6720 C.3   126  ASN126      0.1819
      9  C         -1.3050   33.0750   46.5180 C.2   126  ASN126      0.2621
     10  O         -0.8310   33.2310   45.4020 O.2   126  ASN126     -0.2715
     11  CB        -3.4640   33.7270   47.6890 C.3   126  ASN126      0.1195
     12  CG        -4.9060   34.0370   47.3340 C.2   126  ASN126      0.2630
     13  OD1       -5.3680   33.7540   46.2250 O.2   126  ASN126     -0.2716
     14  ND2       -5.6230   34.6310   48.2750 N.am  126  ASN126     -0.0877
     15  N         -0.5640   33.0940   47.6210 N.am  127  THR127     -0.1951
     16  CA         0.8690   33.3590   47.5500 C.3   127  THR127      0.1897
     17  C          1.5790   32.3970   46.5890 C.2   127  THR127      0.2313
     18  O          2.5350   32.7710   45.9070 O.2   127  THR127     -0.2863
     19  CB         1.5430   33.3610   48.9480 C.3   127  THR127      0.1794
     20  OG1        2.8330   32.7400   48.8710 O.3   127  THR127     -0.2208
     21  CG2        0.6870   32.6180   49.9620 C.3   127  THR127      0.0378
     22  N         -8.5120   30.9440   49.9130 N.3   173  SER173     -0.1203
     23  CA        -7.4500   30.7670   50.8950 C.3   173  SER173      0.2005
     24  C         -8.0520   30.2930   52.2080 C.2   173  SER173      0.2461
     25  O         -9.2430   30.0510   52.2710 O.2   173  SER173     -0.2732
     26  CB        -6.6960   32.0940   51.0750 C.3   173  SER173      0.2103
     27  OG        -7.5270   33.2190   50.7970 O.3   173  SER173     -0.2182
     28  N         -7.2290   30.1370   53.2500 N.am  174  PRO174     -0.2718
     29  CA        -7.7520   29.7230   54.5560 C.3   174  PRO174      0.1520
     30  C         -8.9820   30.5020   55.0390 C.2   174  PRO174      0.2440
     31  O         -9.9340   29.8860   55.5360 O.2   174  PRO174     -0.2731
     32  CB        -6.5510   29.9270   55.5090 C.3   174  PRO174      0.0310
     33  CG        -5.4410   30.4560   54.6580 C.3   174  PRO174      0.0237
     34  CD        -5.7660   30.0800   53.2450 C.3   174  PRO174      0.0939
     35  N         -8.9890   31.8250   54.8730 N.am  175  PRO175     -0.2727
     36  CA       -10.1200   32.5630   55.4260 C.3   175  PRO175      0.1402
     37  C        -11.4670   31.9580   55.0840 C.2   175  PRO175      0.2269
     38  O        -12.2890   31.7590   55.9550 O.2   175  PRO175     -0.2865
     39  CB        -9.9860   33.9080   54.7310 C.3   175  PRO175      0.0296
     40  CG        -8.4830   34.0910   54.6340 C.3   175  PRO175      0.0237
     41  CD        -7.8700   32.7140   54.5290 C.3   175  PRO175      0.0939
     42  N          0.2830   23.2830   53.1880 N.3   276  ASP276     -0.1239
     43  CA         0.7020   24.0990   54.3190 C.3   276  ASP276      0.1674
     44  C         -0.0040   23.5800   55.5370 C.2   276  ASP276      0.2266
     45  O         -1.2060   23.7390   55.6830 O.2   276  ASP276     -0.2867
     46  CB         0.3390   25.5680   54.1300 C.3   276  ASP276      0.1410
     47  CG         0.8010   26.4370   55.2940 C.2   276  ASP276      0.3668
     48  OD1        0.3910   27.6150   55.3320 O.co2 276  ASP276     -0.2456
     49  OD2        1.5680   25.9560   56.1620 O.co2 276  ASP276     -0.2456
     50  N         -1.2330   25.9890   58.4590 N.3   279  VAL279     -0.1245
     51  CA        -2.5520   26.5530   58.1650 C.3   279  VAL279      0.1561
     52  C         -3.6680   25.5600   58.4670 C.2   279  VAL279      0.2260
     53  O         -4.7910   25.9380   58.8300 O.2   279  VAL279     -0.2867
     54  CB        -2.6880   27.0430   56.7140 C.3   279  VAL279      0.0252
     55  CG1       -3.7710   26.2860   55.9760 C.3   279  VAL279      0.0019
     56  CG2       -3.0460   28.4810   56.7150 C.3   279  VAL279      0.0019
     57  N         -2.2390   39.1240   57.5390 N.3   332  SER332     -0.1202
     58  CA        -2.3200   37.7080   57.7420 C.3   332  SER332      0.2020
     59  C         -3.8010   37.4360   57.5230 C.2   332  SER332      0.2619
     60  O         -4.5310   37.1390   58.4630 O.2   332  SER332     -0.2717
     61  CB        -1.8490   37.3480   59.1400 C.3   332  SER332      0.2103
     62  OG        -1.1070   36.1430   59.0990 O.3   332  SER332     -0.2182
     63  N         -4.2450   37.5770   56.2730 N.am  333  ASN333     -0.1960
     64  CA        -5.6670   37.5570   55.9540 C.3   333  ASN333      0.1819
     65  C         -6.2780   36.4320   56.7460 C.2   333  ASN333      0.2621
     66  O         -7.3620   36.5650   57.3190 O.2   333  ASN333     -0.2715
     67  CB        -5.8790   37.2570   54.4640 C.3   333  ASN333      0.1195
     68  CG        -5.3440   38.3350   53.5620 C.2   333  ASN333      0.2630
     69  OD1       -4.5180   39.1670   53.9700 O.2   333  ASN333     -0.2716
     70  ND2       -5.8170   38.3350   52.3200 N.am  333  ASN333     -0.0877
     71  N         -5.5330   35.3280   56.7670 N.am  334  THR334     -0.1951
     72  CA        -5.8020   34.1540   57.5860 C.3   334  THR334      0.1897
     73  C         -5.8850   34.5690   59.0680 C.2   334  THR334      0.2313
     74  O         -6.9620   34.5390   59.6640 O.2   334  THR334     -0.2863
     75  CB        -4.7060   33.0490   57.3360 C.3   334  THR334      0.1794
     76  OG1       -4.5520   32.8370   55.9340 O.3   334  THR334     -0.2208
     77  CG2       -5.0810   31.7240   57.9490 C.3   334  THR334      0.0378
     78  N         -9.7710   38.9630   52.3340 N.3   366  SER366     -0.1217
     79  CA        -8.8930   38.7370   51.2100 C.3   366  SER366      0.1889
     80  C         -8.6090   39.9940   50.3580 C.2   366  SER366      0.2288
     81  O         -7.7120   39.9540   49.5100 O.2   366  SER366     -0.2866
     82  CB        -9.3250   37.5140   50.3810 C.3   366  SER366      0.2089
     83  OG        -8.3430   36.4710   50.4600 O.3   366  SER366     -0.2183
     84  N          0.5780   42.3530   54.8060 N.3   373  ALA373     -0.1231
     85  CA         0.1770   41.3520   53.7990 C.3   373  ALA373      0.1694
     86  C         -1.1290   41.7570   53.1020 C.2   373  ALA373      0.2593
     87  O         -1.5760   42.8890   53.3180 O.2   373  ALA373     -0.2718
     88  CB         0.0590   39.9530   54.4600 C.3   373  ALA373      0.0304
     89  N         -1.7340   40.9140   52.2370 N.am  374  THR374     -0.1940
     90  CA        -1.3430   39.5440   51.7890 C.3   374  THR374      0.2013
     91  C          0.0580   39.4310   51.1050 C.2   374  THR374      0.2484
     92  O          0.4850   40.3650   50.4480 O.2   374  THR374     -0.2729
     93  CB        -2.4580   39.0440   50.7920 C.3   374  THR374      0.1807
     94  OG1       -2.5290   37.6070   50.7300 O.3   374  THR374     -0.2208
     95  CG2       -2.2270   39.6170   49.3930 C.3   374  THR374      0.0379
     96  N          0.7650   38.2770   51.2130 N.am  375  PRO375     -0.2726
     97  CA         2.1280   38.2320   50.6380 C.3   375  PRO375      0.1402
     98  C          2.2810   38.3160   49.0950 C.2   375  PRO375      0.2269
     99  O          3.3800   38.6370   48.6580 O.2   375  PRO375     -0.2865
    100  CB         2.6940   36.9070   51.1650 C.3   375  PRO375      0.0296
    101  CG         1.5160   36.0480   51.2920 C.3   375  PRO375      0.0237
    102  CD         0.3790   36.9590   51.7470 C.3   375  PRO375      0.0939
@<TRIPOS>BOND
     1     4     3    2
     2     1     2    1
     3    10     9    2
     4    18    17    2
     5     3     2    1
     6     3     7   am
     7    13    12    2
     8     9     8    1
     9     9    15   am
    10     2     5    1
    11    17    16    1
    12     8     7    1
    13     8    11    1
    14     5     6    1
    15    12    11    1
    16    12    14   am
    17    16    15    1
    18    16    19    1
    19    99    98    2
    20    20    19    1
    21    19    21    1
    22    98    97    1
    23    95    93    1
    24    81    80    2
    25    22    23    1
    26    80    79    1
    27    82    83    1
    28    82    79    1
    29    92    91    2
    30    97   100    1
    31    97    96    1
    32    94    93    1
    33    93    90    1
    34    27    26    1
    35    23    26    1
    36    23    24    1
    37    91    96   am
    38    91    90    1
    39   100   101    1
    40    79    78    1
    41    96   102    1
    42   101   102    1
    43    90    89    1
    44    24    25    2
    45    24    28   am
    46    89    86   am
    47    70    68   am
    48    86    87    2
    49    86    85    1
    50    42    43    1
    51    34    28    1
    52    34    33    1
    53    28    29    1
    54    68    69    2
    55    68    67    1
    56    85    88    1
    57    85    84    1
    58    46    43    1
    59    46    47    1
    60    43    44    1
    61    67    64    1
    62    41    40    1
    63    41    35    1
    64    29    30    1
    65    29    32    1
    66    40    39    1
    67    33    32    1
    68    39    36    1
    69    35    30   am
    70    35    36    1
    71    30    31    2
    72    37    36    1
    73    37    38    2
    74    47    48   ar
    75    47    49   ar
    76    44    45    2
    77    76    75    1
    78    64    63    1
    79    64    65    1
    80    55    54    1
    81    63    59   am
    82    54    56    1
    83    54    51    1
    84    65    71   am
    85    65    66    2
    86    71    72    1
    87    75    72    1
    88    75    77    1
    89    59    58    1
    90    59    60    2
    91    57    58    1
    92    72    73    1
    93    58    61    1
    94    51    50    1
    95    51    52    1
    96    52    53    2
    97    73    74    2
    98    62    61    1
