@<TRIPOS>MOLECULE
tmp/4f35B01.pdb
 101 100 0 0 0
SMALL
GASTEIGER

@<TRIPOS>ATOM
      1  N         -8.3380   -5.3250   45.8350 N.3    11  VAL11      -0.1245
      2  CA        -9.7480   -4.9880   45.6690 C.3    11  VAL11       0.1561
      3  C        -10.5560   -6.2270   45.3250 C.2    11  VAL11       0.2260
      4  O        -11.6180   -6.4730   45.8880 O.2    11  VAL11      -0.2867
      5  CB        -9.9800   -3.9460   44.5770 C.3    11  VAL11       0.0252
      6  CG1      -11.3460   -4.1500   43.9180 C.3    11  VAL11       0.0019
      7  CG2       -9.8890   -2.5830   45.1740 C.3    11  VAL11       0.0019
      8  N        -11.2570   -8.2450   48.5020 N.3    14  PHE14      -0.1227
      9  CA       -12.3010   -7.6250   49.2980 C.3    14  PHE14       0.1736
     10  C        -13.6730   -7.9590   48.7300 C.2    14  PHE14       0.2595
     11  O        -14.5230   -8.4990   49.4290 O.2    14  PHE14      -0.2718
     12  CB       -12.1150   -6.1120   49.3490 C.3    14  PHE14       0.0547
     13  CG       -13.1300   -5.4230   50.1870 C.ar   14  PHE14      -0.0202
     14  CD1      -12.8640   -5.1340   51.5150 C.ar   14  PHE14      -0.0042
     15  CD2      -14.3690   -5.0870   49.6580 C.ar   14  PHE14      -0.0042
     16  CE1      -13.8220   -4.4930   52.3110 C.ar   14  PHE14      -0.0003
     17  CE2      -15.3310   -4.4520   50.4340 C.ar   14  PHE14      -0.0003
     18  CZ       -15.0580   -4.1520   51.7670 C.ar   14  PHE14      -0.0000
     19  N        -13.8820   -7.6390   47.4610 N.am   15  LEU15      -0.1980
     20  CA       -15.1220   -7.9830   46.7960 C.3    15  LEU15       0.1596
     21  C        -15.4770   -9.4410   47.0470 C.2    15  LEU15       0.2287
     22  O        -16.6410   -9.7680   47.2760 O.2    15  LEU15      -0.2864
     23  CB       -14.9960   -7.7290   45.2990 C.3    15  LEU15       0.0297
     24  CG       -15.0240   -6.2510   44.9180 C.3    15  LEU15       0.0022
     25  CD1      -14.1520   -5.9920   43.7100 C.3    15  LEU15       0.0001
     26  CD2      -16.4520   -5.7540   44.6900 C.3    15  LEU15       0.0001
     27  N        -16.5250  -10.1010   50.7510 N.3    18  TYR18      -0.1241
     28  CA       -17.7060   -9.3310   51.1500 C.3    18  TYR18       0.1605
     29  C        -19.0130   -9.9270   50.6470 C.2    18  TYR18       0.2264
     30  O        -20.0160   -9.9290   51.3680 O.2    18  TYR18      -0.2867
     31  CB       -17.5870   -7.8740   50.6940 C.3    18  TYR18       0.0534
     32  CG       -18.7680   -6.9760   51.0510 C.ar   18  TYR18      -0.0201
     33  CD1      -18.9020   -6.4400   52.3260 C.ar   18  TYR18      -0.0009
     34  CD2      -19.7260   -6.6380   50.0970 C.ar   18  TYR18      -0.0009
     35  CE1      -19.9670   -5.6110   52.6410 C.ar   18  TYR18       0.0417
     36  CE2      -20.7920   -5.8110   50.4030 C.ar   18  TYR18       0.0417
     37  CZ       -20.9090   -5.3000   51.6730 C.ar   18  TYR18       0.1957
     38  OH       -21.9730   -4.4760   51.9760 O.3    18  TYR18      -0.2866
     39  N        -23.4960   -9.5440   58.7420 N.3    25  HIS25      -0.1226
     40  CA       -22.9390   -8.5330   57.8570 C.3    25  HIS25       0.1752
     41  C        -21.7890   -7.7770   58.5000 C.2    25  HIS25       0.2596
     42  O        -20.6790   -7.7850   57.9780 O.2    25  HIS25      -0.2718
     43  CB       -23.9940   -7.5630   57.3370 C.3    25  HIS25       0.0759
     44  CG       -23.5610   -6.8350   56.1020 C.ar   25  HIS25       0.0818
     45  ND1      -24.1840   -5.6940   55.6420 N.ar   25  HIS25      -0.2268
     46  CD2      -22.5560   -7.0920   55.2290 C.ar   25  HIS25       0.1154
     47  CE1      -23.5850   -5.2830   54.5390 C.ar   25  HIS25       0.1986
     48  NE2      -22.5940   -6.1120   54.2660 N.ar   25  HIS25      -0.2212
     49  N        -22.0590   -7.1220   59.6230 N.am   26  ASN26      -0.1974
     50  CA       -21.0550   -6.3070   60.3010 C.3    26  ASN26       0.1688
     51  C        -19.7090   -7.0070   60.4350 C.2    26  ASN26       0.2292
     52  O        -18.6580   -6.3540   60.4040 O.2    26  ASN26      -0.2864
     53  CB       -21.5430   -5.9080   61.6950 C.3    26  ASN26       0.1181
     54  CG       -22.5110   -4.7550   61.6590 C.2    26  ASN26       0.2629
     55  OD1      -22.9260   -4.3110   60.5870 O.2    26  ASN26      -0.2716
     56  ND2      -22.8840   -4.2620   62.8330 N.am   26  ASN26      -0.0877
     57  N        -18.1480   -7.4850   56.7890 N.3    29  LEU29      -0.1245
     58  CA       -17.6200   -6.1600   56.4870 C.3    29  LEU29       0.1561
     59  C        -16.2910   -5.9350   57.2120 C.2    29  LEU29       0.2260
     60  O        -15.2530   -5.7990   56.5750 O.2    29  LEU29      -0.2867
     61  CB       -18.6620   -5.0880   56.8240 C.3    29  LEU29       0.0270
     62  CG       -18.3030   -3.6100   56.6920 C.3    29  LEU29       0.0019
     63  CD1      -17.3160   -3.4090   55.5630 C.3    29  LEU29       0.0001
     64  CD2      -19.5490   -2.7320   56.4900 C.3    29  LEU29       0.0001
     65  N         -8.3160   -6.2890   53.3860 N.3    35  PHE35      -0.1241
     66  CA        -7.9880   -5.2710   52.3810 C.3    35  PHE35       0.1605
     67  C         -6.8820   -4.3060   52.8470 C.2    35  PHE35       0.2264
     68  O         -5.8440   -4.1740   52.2000 O.2    35  PHE35      -0.2867
     69  CB        -9.2490   -4.5100   51.9680 C.3    35  PHE35       0.0534
     70  CG        -9.0020   -3.4060   50.9800 C.ar   35  PHE35      -0.0203
     71  CD1       -9.5270   -3.4780   49.7010 C.ar   35  PHE35      -0.0042
     72  CD2       -8.2550   -2.2890   51.3320 C.ar   35  PHE35      -0.0042
     73  CE1       -9.3150   -2.4610   48.7900 C.ar   35  PHE35      -0.0003
     74  CE2       -8.0390   -1.2700   50.4300 C.ar   35  PHE35      -0.0003
     75  CZ        -8.5730   -1.3540   49.1570 C.ar   35  PHE35      -0.0000
     76  N        -18.8800    5.9150   54.3320 N.3    59  PHE59      -0.1227
     77  CA       -19.3970    5.0660   53.2520 C.3    59  PHE59       0.1736
     78  C        -19.2800    3.6770   53.8370 C.2    59  PHE59       0.2595
     79  O        -18.2770    3.3880   54.4700 O.2    59  PHE59      -0.2718
     80  CB       -18.4650    5.0770   52.0410 C.3    59  PHE59       0.0547
     81  CG       -18.3570    6.3920   51.3380 C.ar   59  PHE59      -0.0202
     82  CD1      -17.1360    6.8070   50.8280 C.ar   59  PHE59      -0.0042
     83  CD2      -19.4660    7.1980   51.1480 C.ar   59  PHE59      -0.0042
     84  CE1      -17.0120    8.0170   50.1630 C.ar   59  PHE59      -0.0003
     85  CE2      -19.3510    8.4190   50.4790 C.ar   59  PHE59      -0.0003
     86  CZ       -18.1190    8.8240   49.9850 C.ar   59  PHE59      -0.0000
     87  N        -20.2790    2.8200   53.6460 N.am   60  PHE60      -0.1962
     88  CA       -20.3230    1.5100   54.3300 C.3    60  PHE60       0.1771
     89  C        -20.9560    1.6100   55.7150 C.2    60  PHE60       0.2620
     90  O        -21.1710    0.5940   56.3770 O.2    60  PHE60      -0.2715
     91  CB       -18.9320    0.8800   54.5030 C.3    60  PHE60       0.0574
     92  CG       -18.5530   -0.0890   53.4210 C.ar   60  PHE60      -0.0200
     93  CD1      -17.2260   -0.2440   53.0500 C.ar   60  PHE60      -0.0042
     94  CD2      -19.5080   -0.8510   52.7850 C.ar   60  PHE60      -0.0042
     95  CE1      -16.8650   -1.1270   52.0590 C.ar   60  PHE60      -0.0003
     96  CE2      -19.1450   -1.7410   51.7970 C.ar   60  PHE60      -0.0003
     97  CZ       -17.8220   -1.8750   51.4360 C.ar   60  PHE60      -0.0000
     98  N        -21.2060    2.8320   56.1680 N.am   61  GLY61      -0.1954
     99  CA       -21.9720    3.0650   57.3740 C.3    61  GLY61       0.1869
    100  C        -21.3780    2.7540   58.7400 C.2    61  GLY61       0.2309
    101  O        -22.0560    2.9490   59.7490 O.2    61  GLY61      -0.2863
@<TRIPOS>BOND
     1    25    24    1
     2     6     5    1
     3     5     7    1
     4     5     2    1
     5    26    24    1
     6    24    23    1
     7    23    20    1
     8     3     2    1
     9     3     4    2
    10     2     1    1
    11    20    21    1
    12    20    19    1
    13    21    22    2
    14    19    10   am
    15     8     9    1
    16    10     9    1
    17    10    11    2
    18    73    75   ar
    19    73    71   ar
    20    75    74   ar
    21     9    12    1
    22    12    13    1
    23    15    13   ar
    24    15    17   ar
    25    71    70   ar
    26    86    84   ar
    27    86    85   ar
    28    34    36   ar
    29    34    32   ar
    30    84    82   ar
    31    13    14   ar
    32    36    37   ar
    33    74    72   ar
    34    17    18   ar
    35    85    83   ar
    36    29    28    1
    37    29    30    2
    38    31    32    1
    39    31    28    1
    40    27    28    1
    41    82    81   ar
    42    70    72   ar
    43    70    69    1
    44    32    33   ar
    45    83    81   ar
    46    81    80    1
    47    97    96   ar
    48    97    95   ar
    49    14    16   ar
    50    37    38    1
    51    37    35   ar
    52    18    16   ar
    53    96    94   ar
    54    69    66    1
    55    80    77    1
    56    95    93   ar
    57    68    67    2
    58    33    35   ar
    59    66    67    1
    60    66    65    1
    61    94    92   ar
    62    93    92   ar
    63    77    78    1
    64    77    76    1
    65    92    91    1
    66    87    78   am
    67    87    88    1
    68    78    79    2
    69    48    47   ar
    70    48    46   ar
    71    88    91    1
    72    88    89    1
    73    47    45   ar
    74    46    44   ar
    75    63    62    1
    76    45    44   ar
    77    89    98   am
    78    89    90    2
    79    44    43    1
    80    98    99    1
    81    58    57    1
    82    58    61    1
    83    58    59    1
    84    64    62    1
    85    60    59    2
    86    62    61    1
    87    43    40    1
    88    99   100    1
    89    40    41    1
    90    40    39    1
    91    42    41    2
    92    41    49   am
    93   100   101    2
    94    49    50    1
    95    50    51    1
    96    50    53    1
    97    52    51    2
    98    55    54    2
    99    54    53    1
   100    54    56   am
