@<TRIPOS>MOLECULE
tmp/4f3cB00.pdb
 143 135 0 0 0
SMALL
GASTEIGER

@<TRIPOS>ATOM
      1  N         -9.8590   -3.0010   20.4340 N.3     8  ALA8       -0.1231
      2  CA       -10.9860   -3.8720   20.7470 C.3     8  ALA8        0.1694
      3  C        -10.7330   -4.7140   21.9740 C.2     8  ALA8        0.2591
      4  O        -11.6030   -4.8450   22.8250 O.2     8  ALA8       -0.2718
      5  CB       -11.3060   -4.7700   19.5580 C.3     8  ALA8        0.0304
      6  N         -9.5520   -5.3070   22.0490 N.am    9  MET9       -0.1979
      7  CA        -9.2960   -6.3490   23.0450 C.3     9  MET9        0.1605
      8  C         -8.3220   -5.8760   24.1070 C.2     9  MET9        0.2287
      9  O         -7.5000   -4.9950   23.8720 O.2     9  MET9       -0.2864
     10  CB        -8.7270   -7.5830   22.3660 C.3     9  MET9        0.0413
     11  CG        -9.6850   -8.2320   21.3900 C.3     9  MET9        0.0598
     12  SD        -8.8410   -9.5350   20.4780 S.3     9  MET9       -0.1393
     13  CE        -8.7300  -10.7940   21.7480 C.3     9  MET9        0.0692
     14  N         -4.8400   -5.9600   22.9770 N.3    12  GLU12      -0.1245
     15  CA        -4.4910   -4.8650   22.0570 C.3    12  GLU12       0.1567
     16  C         -4.2510   -3.5230   22.7180 C.2    12  GLU12       0.2260
     17  O         -3.6210   -2.6350   22.1180 O.2    12  GLU12      -0.2867
     18  CB        -5.5680   -4.7330   20.9830 C.3    12  GLU12       0.0388
     19  CG        -5.6580   -5.9530   20.0740 C.3    12  GLU12       0.1160
     20  CD        -6.8940   -5.9470   19.1970 C.2    12  GLU12       0.3649
     21  OE1       -7.9540   -5.4410   19.6510 O.co2  12  GLU12      -0.2457
     22  OE2       -6.8200   -6.4830   18.0590 O.co2  12  GLU12      -0.2457
     23  N        -15.4210   -6.2400   21.1270 N.3    50  ILE50      -0.1245
     24  CA       -15.3010   -6.7360   19.7750 C.3    50  ILE50       0.1561
     25  C        -16.5550   -6.5300   18.9100 C.2    50  ILE50       0.2260
     26  O        -17.6930   -6.6860   19.3710 O.2    50  ILE50      -0.2867
     27  CB       -14.9140   -8.2350   19.8510 C.3    50  ILE50       0.0252
     28  CG1      -13.4870   -8.3560   20.4080 C.3    50  ILE50       0.0019
     29  CG2      -15.0900   -8.9200   18.5130 C.3    50  ILE50       0.0019
     30  CD1      -12.9810   -9.7790   20.5690 C.3    50  ILE50       0.0001
     31  N         -5.0810   -5.7230   15.8740 N.3    76  SER76      -0.1202
     32  CA        -4.7220   -6.7650   14.9380 C.3    76  SER76       0.2020
     33  C         -5.6340   -6.6750   13.7250 C.2    76  SER76       0.2619
     34  O         -6.6340   -5.9410   13.7340 O.2    76  SER76      -0.2717
     35  CB        -4.8720   -8.1430   15.6160 C.3    76  SER76       0.2103
     36  OG        -6.1990   -8.4030   16.1170 O.3    76  SER76      -0.2182
     37  N         -5.3250   -7.4730   12.7040 N.am   77  ALA77      -0.1965
     38  CA        -6.1120   -7.5650   11.4810 C.3    77  ALA77       0.1728
     39  C         -5.7370   -8.8250   10.7050 C.2    77  ALA77       0.2616
     40  O         -4.6240   -9.3160   10.8350 O.2    77  ALA77      -0.2715
     41  CB        -5.8850   -6.3530   10.6050 C.3    77  ALA77       0.0334
     42  N         -6.6970   -9.3470    9.9400 N.am   78  GLY78      -0.1955
     43  CA        -6.4790  -10.4600    9.0060 C.3    78  GLY78       0.1869
     44  C         -5.9570   -9.8710    7.7080 C.2    78  GLY78       0.2309
     45  O         -6.5740   -8.9690    7.1290 O.2    78  GLY78      -0.2863
     46  N        -17.7680  -10.6990   11.6150 N.3   150  ALA150     -0.1231
     47  CA       -17.3650  -12.0980   11.5180 C.3   150  ALA150      0.1694
     48  C        -15.8680  -12.2380   11.5410 C.2   150  ALA150      0.2592
     49  O        -15.1220  -11.4480   10.9480 O.2   150  ALA150     -0.2718
     50  CB       -17.9150  -12.7330   10.2430 C.3   150  ALA150      0.0304
     51  N        -15.4280  -13.2690   12.2320 N.am  151  PHE151     -0.1962
     52  CA       -14.0240  -13.6420   12.1920 C.3   151  PHE151      0.1771
     53  C        -13.8640  -14.4860   10.9680 C.2   151  PHE151      0.2619
     54  O        -14.5250  -15.5400   10.8710 O.2   151  PHE151     -0.2715
     55  CB       -13.6140  -14.4170   13.4290 C.3   151  PHE151      0.0574
     56  CG       -12.1630  -14.7430   13.4370 C.ar  151  PHE151     -0.0200
     57  CD1      -11.7180  -16.0090   13.0440 C.ar  151  PHE151     -0.0042
     58  CD2      -11.2390  -13.7820   13.7960 C.ar  151  PHE151     -0.0042
     59  CE1      -10.3620  -16.2990   13.0280 C.ar  151  PHE151     -0.0003
     60  CE2       -9.8840  -14.0650   13.7810 C.ar  151  PHE151     -0.0003
     61  CZ        -9.4400  -15.3150   13.3750 C.ar  151  PHE151     -0.0000
     62  N        -13.0260  -14.0060   10.0470 N.am  152  ILE152     -0.1977
     63  CA       -12.8510  -14.5990    8.7340 C.3   152  ILE152      0.1596
     64  C        -11.7840  -15.6990    8.8080 C.2   152  ILE152      0.2287
     65  O        -10.6540  -15.4880    9.2910 O.2   152  ILE152     -0.2864
     66  CB       -12.4510  -13.5510    7.6870 C.3   152  ILE152      0.0276
     67  CG1      -13.4040  -12.3460    7.7290 C.3   152  ILE152      0.0022
     68  CG2      -12.4530  -14.1590    6.2900 C.3   152  ILE152      0.0022
     69  CD1      -14.8590  -12.7390    7.7060 C.3   152  ILE152      0.0001
     70  N         -8.8430   -7.2660    6.7170 N.3   171  VAL171     -0.1231
     71  CA       -10.1730   -7.3790    7.2750 C.3   171  VAL171      0.1692
     72  C        -10.1260   -7.3480    8.7980 C.2   171  VAL171      0.2592
     73  O         -9.2180   -7.9030    9.4180 O.2   171  VAL171     -0.2718
     74  CB       -10.8800   -8.6360    6.7570 C.3   171  VAL171      0.0266
     75  CG1      -10.0660   -9.9180    7.0560 C.3   171  VAL171      0.0020
     76  CG2      -12.2970   -8.7280    7.3340 C.3   171  VAL171      0.0020
     77  N        -11.1260   -6.7150    9.4020 N.am  172  GLU172     -0.1966
     78  CA       -11.2710   -6.7630   10.8270 C.3   172  GLU172      0.1733
     79  C        -12.7400   -6.5280   11.2050 C.2   172  GLU172      0.2616
     80  O        -13.6330   -6.7850   10.3880 O.2   172  GLU172     -0.2715
     81  CB       -10.2300   -5.8520   11.4980 C.3   172  GLU172      0.0429
     82  CG       -10.0590   -4.5140   10.8370 C.3   172  GLU172      0.1163
     83  CD       -11.2900   -3.7080   11.0420 C.2   172  GLU172      0.3649
     84  OE1      -12.1270   -3.6510   10.1220 O.co2 172  GLU172     -0.2457
     85  OE2      -11.4570   -3.2190   12.1820 O.co2 172  GLU172     -0.2457
     86  N        -13.0140   -6.1220   12.4340 N.am  173  MET173     -0.1963
     87  CA       -14.3880   -6.1610   12.9200 C.3   173  MET173      0.1736
     88  C        -14.8770   -4.8590   13.5580 C.2   173  MET173      0.2616
     89  O        -16.0150   -4.8000   14.0300 O.2   173  MET173     -0.2715
     90  CB       -14.5590   -7.3340   13.8930 C.3   173  MET173      0.0427
     91  CG       -14.4470   -8.6990   13.2280 C.3   173  MET173      0.0599
     92  SD       -14.4230  -10.0810   14.3880 S.3   173  MET173     -0.1393
     93  CE       -16.1290  -10.2090   14.8640 C.3   173  MET173      0.0692
     94  N        -14.0390   -3.8150   13.5560 N.am  174  GLU174     -0.1977
     95  CA       -14.3710   -2.5790   14.2640 C.3   174  GLU174      0.1602
     96  C        -14.1230   -1.2990   13.4920 C.2   174  GLU174      0.2287
     97  O        -14.8230   -0.3370   13.6930 O.2   174  GLU174     -0.2864
     98  CB       -13.6160   -2.4870   15.5890 C.3   174  GLU174      0.0415
     99  CG       -13.9450   -3.5860   16.5810 C.3   174  GLU174      0.1163
    100  CD       -13.0740   -4.8150   16.4040 C.2   174  GLU174      0.3649
    101  OE1      -13.5010   -5.9020   16.8580 O.co2 174  GLU174     -0.2457
    102  OE2      -11.9810   -4.6660   15.7970 O.co2 174  GLU174     -0.2457
    103  N         -3.1770   -0.8850   12.0660 N.3   193  ARG193     -0.1245
    104  CA        -3.2050   -2.1970   12.6910 C.3   193  ARG193      0.1563
    105  C         -2.0410   -3.0690   12.2050 C.2   193  ARG193      0.2260
    106  O         -1.2580   -2.6360   11.3370 O.2   193  ARG193     -0.2867
    107  CB        -4.5610   -2.8610   12.4520 C.3   193  ARG193      0.0307
    108  CG        -5.7330   -2.1790   13.1450 C.3   193  ARG193      0.0489
    109  CD        -7.0280   -2.8490   12.6740 C.3   193  ARG193      0.2205
    110  NE        -8.2570   -2.4390   13.3550 N.pl3 193  ARG193     -0.0865
    111  CZ        -8.9410   -3.1550   14.2430 C.cat 193  ARG193      0.5346
    112  NH1       -8.5410   -4.3530   14.6490 N.pl3 193  ARG193      0.1354
    113  NH2      -10.0740   -2.6660   14.7300 N.pl3 193  ARG193      0.1354
    114  N         -2.1530  -10.4560   12.2280 N.3   196  SER196     -0.1202
    115  CA        -2.1080  -11.5770   13.1380 C.3   196  SER196      0.2020
    116  C         -2.3390  -12.9280   12.4470 C.2   196  SER196      0.2618
    117  O         -2.1260  -13.9840   13.0540 O.2   196  SER196     -0.2717
    118  CB        -3.1970  -11.3780   14.1850 C.3   196  SER196      0.2103
    119  OG        -4.4470  -11.1550   13.5470 O.3   196  SER196     -0.2182
    120  N         -2.8100  -12.8700   11.2050 N.am  197  ASP197     -0.1973
    121  CA        -3.2690  -14.0240   10.4260 C.3   197  ASP197      0.1709
    122  C         -3.6380  -13.5600    9.0100 C.2   197  ASP197      0.2293
    123  O         -3.6400  -12.3670    8.7170 O.2   197  ASP197     -0.2864
    124  CB        -4.4750  -14.6840   11.0640 C.3   197  ASP197      0.1436
    125  CG        -5.6770  -13.7490   11.1080 C.2   197  ASP197      0.3671
    126  OD1       -6.5210  -13.8060   10.1790 O.co2 197  ASP197     -0.2456
    127  OD2       -5.7330  -12.9360   12.0640 O.co2 197  ASP197     -0.2456
    128  N         -6.5180  -14.7110    7.4330 N.3   199  ALA199     -0.1245
    129  CA        -7.9600  -14.8540    7.2950 C.3   199  ALA199      0.1562
    130  C         -8.3740  -16.1500    6.5860 C.2   199  ALA199      0.2260
    131  O         -9.4730  -16.2430    6.0330 O.2   199  ALA199     -0.2867
    132  CB        -8.5220  -13.6380    6.5740 C.3   199  ALA199      0.0290
    133  N         -4.1090  -16.5210   14.7620 N.3   207  PHE207     -0.1241
    134  CA        -4.5170  -15.4320   15.6210 C.3   207  PHE207      0.1605
    135  C         -4.1090  -15.7070   17.0730 C.2   207  PHE207      0.2264
    136  O         -3.4770  -14.8580   17.7070 O.2   207  PHE207     -0.2867
    137  CB        -6.0120  -15.2000   15.5120 C.3   207  PHE207      0.0534
    138  CG        -6.4980  -14.0390   16.3310 C.ar  207  PHE207     -0.0203
    139  CD1       -7.0950  -14.2440   17.5650 C.ar  207  PHE207     -0.0042
    140  CD2       -6.3620  -12.7490   15.8570 C.ar  207  PHE207     -0.0042
    141  CE1       -7.5280  -13.1740   18.3220 C.ar  207  PHE207     -0.0003
    142  CE2       -6.8040  -11.6740   16.6050 C.ar  207  PHE207     -0.0003
    143  CZ        -7.4060  -11.8950   17.8310 C.ar  207  PHE207     -0.0000
@<TRIPOS>BOND
     1   131   130    2
     2    68    66    1
     3   132   129    1
     4   130   129    1
     5    70    71    1
     6    74    75    1
     7    74    71    1
     8    74    76    1
     9    45    44    2
    10    71    72    1
    11   129   128    1
    12    66    67    1
    13    66    63    1
    14    69    67    1
    15    44    43    1
    16   123   122    2
    17    63    64    1
    18    63    62    1
    19    72    77   am
    20    72    73    2
    21    64    65    2
    22    43    42    1
    23   122   121    1
    24    77    78    1
    25    42    39   am
    26    62    53   am
    27    84    83   ar
    28   126   125   ar
    29    50    47    1
    30    80    79    2
    31   121   124    1
    32   121   120    1
    33    41    38    1
    34    39    40    2
    35    39    38    1
    36    78    79    1
    37    78    81    1
    38    82    83    1
    39    82    81    1
    40    54    53    2
    41    49    48    2
    42    53    52    1
    43    83    85   ar
    44   124   125    1
    45   125   127   ar
    46    79    86   am
    47   120   116   am
    48   106   105    2
    49    38    37    1
    50    47    48    1
    51    47    46    1
    52    48    51   am
    53   103   104    1
    54    52    51    1
    55    52    55    1
    56   105   104    1
    57   114   115    1
    58    86    87    1
    59   116   117    2
    60   116   115    1
    61   107   104    1
    62   107   108    1
    63   109   108    1
    64   109   110    1
    65    37    33   am
    66    87    88    1
    67    87    90    1
    68    59    57   ar
    69    59    61   ar
    70    57    56   ar
    71   115   118    1
    72    91    90    1
    73    91    92    1
    74   110   111    2
    75    61    60   ar
    76    55    56    1
    77    56    58   ar
    78    96    97    2
    79    96    95    1
    80   119   118    1
    81    94    88   am
    82    94    95    1
    83    88    89    2
    84    33    34    2
    85    33    32    1
    86    60    58   ar
    87   111   112    1
    88   111   113    1
    89    95    98    1
    90    92    93    1
    91   133   134    1
    92    32    35    1
    93    32    31    1
    94   137   134    1
    95   137   138    1
    96    98    99    1
    97    35    36    1
    98   134   135    1
    99   102   100   ar
   100   140   138   ar
   101   140   142   ar
   102   138   139   ar
   103   100    99    1
   104   100   101   ar
   105   142   143   ar
   106   135   136    2
   107   139   141   ar
   108   143   141   ar
   109    22    20   ar
   110    29    27    1
   111    25    26    2
   112    25    24    1
   113    20    21   ar
   114    20    19    1
   115     5     2    1
   116    24    27    1
   117    24    23    1
   118    27    28    1
   119    19    18    1
   120    28    30    1
   121     1     2    1
   122    12    11    1
   123    12    13    1
   124     2     3    1
   125    18    15    1
   126    11    10    1
   127     3     6   am
   128     3     4    2
   129     6     7    1
   130    15    16    1
   131    15    14    1
   132    17    16    2
   133    10     7    1
   134     7     8    1
   135     9     8    2
