@<TRIPOS>MOLECULE
tmp/4f3kB00.pdb
 151 143 0 0 0
SMALL
GASTEIGER

@<TRIPOS>ATOM
      1  N        -30.0320    4.2510    4.9270 N.3     8  ALA8       -0.1231
      2  CA       -29.6120    5.1480    6.0090 C.3     8  ALA8        0.1694
      3  C        -30.5730    6.3020    6.2420 C.2     8  ALA8        0.2591
      4  O        -30.8430    6.6560    7.3680 O.2     8  ALA8       -0.2718
      5  CB       -28.2140    5.6870    5.7230 C.3     8  ALA8        0.0304
      6  N        -31.1030    6.8600    5.1680 N.am    9  MET9       -0.1979
      7  CA       -31.8510    8.0820    5.2140 C.3     9  MET9        0.1605
      8  C        -33.3190    7.8520    4.9150 C.2     9  MET9        0.2287
      9  O        -33.6810    6.9510    4.1820 O.2     9  MET9       -0.2864
     10  CB       -31.3000    9.0630    4.1720 C.3     9  MET9        0.0413
     11  CG       -29.8690    9.5000    4.4270 C.3     9  MET9        0.0598
     12  SD       -29.3320   10.6680    3.1640 S.3     9  MET9       -0.1393
     13  CE       -29.9950   12.2100    3.7410 C.3     9  MET9        0.0692
     14  N        -33.9840    7.6050    1.3240 N.3    12  GLU12      -0.1245
     15  CA       -33.5260    6.3480    0.7250 C.3    12  GLU12       0.1567
     16  C        -34.4640    5.1650    0.9900 C.2    12  GLU12       0.2260
     17  O        -34.4800    4.2400    0.2220 O.2    12  GLU12      -0.2867
     18  CB       -32.1030    6.0180    1.1770 C.3    12  GLU12       0.0388
     19  CG       -31.0180    6.9650    0.6560 C.3    12  GLU12       0.1160
     20  CD       -29.6560    6.7660    1.3420 C.2    12  GLU12       0.3649
     21  OE1      -29.6260    6.3400    2.5380 O.co2  12  GLU12      -0.2457
     22  OE2      -28.6100    7.0490    0.6830 O.co2  12  GLU12      -0.2457
     23  N        -27.1110    7.4350    9.7340 N.3    50  ILE50      -0.1245
     24  CA       -25.9450    7.6110    8.8950 C.3    50  ILE50       0.1561
     25  C        -24.6260    7.2720    9.5760 C.2    50  ILE50       0.2260
     26  O        -24.3930    7.6520   10.7180 O.2    50  ILE50      -0.2867
     27  CB       -25.8930    9.0850    8.4110 C.3    50  ILE50       0.0252
     28  CG1      -27.0330    9.3240    7.4100 C.3    50  ILE50       0.0019
     29  CG2      -24.5350    9.3970    7.7750 C.3    50  ILE50       0.0019
     30  CD1      -27.2160   10.7810    7.0300 C.3    50  ILE50       0.0001
     31  N        -27.9530    5.9530   -1.8820 N.3    76  SER76      -0.1202
     32  CA       -27.1260    6.7180   -2.7870 C.3    76  SER76       0.2020
     33  C        -25.6450    6.3990   -2.5960 C.2    76  SER76       0.2619
     34  O        -25.2540    5.7530   -1.6310 O.2    76  SER76      -0.2717
     35  CB       -27.3470    8.1900   -2.4940 C.3    76  SER76       0.2103
     36  OG       -27.1090    8.4250   -1.1140 O.3    76  SER76      -0.2182
     37  N        -24.8130    6.8460   -3.5190 N.am   77  ALA77      -0.1965
     38  CA       -23.3720    6.7750   -3.3590 C.3    77  ALA77       0.1728
     39  C        -22.6940    7.8990   -4.1430 C.2    77  ALA77       0.2616
     40  O        -23.2660    8.4210   -5.0990 O.2    77  ALA77      -0.2715
     41  CB       -22.8960    5.4420   -3.8980 C.3    77  ALA77       0.0334
     42  N        -21.4510    8.1740   -3.7860 N.am   78  GLY78      -0.1955
     43  CA       -20.5430    8.9730   -4.6090 C.3    78  GLY78       0.1869
     44  C        -19.8300    8.1240   -5.6430 C.2    78  GLY78       0.2309
     45  O        -19.1640    7.1460   -5.2980 O.2    78  GLY78      -0.2863
     46  N        -17.0480    9.8750    6.5300 N.3   150  ALA150     -0.1231
     47  CA       -16.8090   11.1810    5.9330 C.3   150  ALA150      0.1694
     48  C        -17.6160   11.3430    4.6670 C.2   150  ALA150      0.2592
     49  O        -17.6680   10.4410    3.8370 O.2   150  ALA150     -0.2718
     50  CB       -15.3260   11.3270    5.6120 C.3   150  ALA150      0.0304
     51  N        -18.2280   12.5140    4.4840 N.am  151  PHE151     -0.1962
     52  CA       -18.8070   12.8230    3.1980 C.3   151  PHE151      0.1771
     53  C        -17.7180   13.3650    2.2880 C.2   151  PHE151      0.2619
     54  O        -17.1030   14.4020    2.5910 O.2   151  PHE151     -0.2715
     55  CB       -19.9460   13.8270    3.3170 C.3   151  PHE151      0.0574
     56  CG       -20.6370   14.1010    2.0140 C.ar  151  PHE151     -0.0200
     57  CD1      -20.3280   15.2310    1.2860 C.ar  151  PHE151     -0.0042
     58  CD2      -21.5960   13.2160    1.5020 C.ar  151  PHE151     -0.0042
     59  CE1      -20.9540   15.4830    0.0630 C.ar  151  PHE151     -0.0003
     60  CE2      -22.2330   13.4800    0.2990 C.ar  151  PHE151     -0.0003
     61  CZ       -21.9050   14.6340   -0.4250 C.ar  151  PHE151     -0.0000
     62  N        -17.4950   12.7020    1.1660 N.am  152  ILE152     -0.1977
     63  CA       -16.3660   13.0660    0.2980 C.3   152  ILE152      0.1596
     64  C        -16.7500   14.1660   -0.6720 C.2   152  ILE152      0.2287
     65  O        -17.7350   14.0400   -1.3890 O.2   152  ILE152     -0.2864
     66  CB       -15.8090   11.8440   -0.4370 C.3   152  ILE152      0.0276
     67  CG1      -15.5190   10.7160    0.5810 C.3   152  ILE152      0.0022
     68  CG2      -14.5280   12.2130   -1.1970 C.3   152  ILE152      0.0022
     69  CD1      -14.5740   11.1010    1.6900 C.3   152  ILE152      0.0001
     70  N        -17.9210    5.5080   -3.3170 N.3   171  VAL171     -0.1231
     71  CA       -17.6990    5.7160   -1.9140 C.3   171  VAL171      0.1692
     72  C        -19.0570    5.9780   -1.2260 C.2   171  VAL171      0.2592
     73  O        -19.9740    6.5850   -1.7980 O.2   171  VAL171     -0.2718
     74  CB       -16.6600    6.8390   -1.6300 C.3   171  VAL171      0.0266
     75  CG1      -17.0450    8.1380   -2.3180 C.3   171  VAL171      0.0020
     76  CG2      -16.4880    7.0720   -0.1360 C.3   171  VAL171      0.0020
     77  N        -19.1870    5.4660   -0.0110 N.am  172  GLU172     -0.1966
     78  CA       -20.3160    5.7910    0.8320 C.3   172  GLU172      0.1733
     79  C        -19.9430    5.6720    2.3290 C.2   172  GLU172      0.2616
     80  O        -18.7620    5.8370    2.6650 O.2   172  GLU172     -0.2715
     81  CB       -21.5910    5.1030    0.3400 C.3   172  GLU172      0.0429
     82  CG       -21.4080    3.6680    0.0640 C.3   172  GLU172      0.1163
     83  CD       -21.1300    3.0140    1.3600 C.2   172  GLU172      0.3649
     84  OE1      -19.9490    2.6920    1.6250 O.co2 172  GLU172     -0.2457
     85  OE2      -22.1070    2.8800    2.1290 O.co2 172  GLU172     -0.2457
     86  N        -20.9140    5.5730    3.2370 N.am  173  MET173     -0.1963
     87  CA       -20.6190    5.7320    4.6530 C.3   173  MET173      0.1736
     88  C        -21.1410    4.6200    5.5510 C.2   173  MET173      0.2616
     89  O        -20.9480    4.6930    6.7930 O.2   173  MET173     -0.2715
     90  CB       -21.1290    7.0930    5.1690 C.3   173  MET173      0.0427
     91  CG       -20.4840    8.3170    4.5420 C.3   173  MET173      0.0599
     92  SD       -21.2460    9.8920    5.0700 S.3   173  MET173     -0.1393
     93  CE       -20.9160    9.8010    6.8340 C.3   173  MET173      0.0692
     94  N        -21.8110    3.6210    4.9670 N.am  174  GLU174     -0.1977
     95  CA       -22.4120    2.5620    5.7420 C.3   174  GLU174      0.1602
     96  C        -22.1000    1.1220    5.2420 C.2   174  GLU174      0.2287
     97  O        -22.1640    0.1420    6.0460 O.2   174  GLU174     -0.2864
     98  CB       -23.9320    2.7540    5.7680 C.3   174  GLU174      0.0415
     99  CG       -24.4030    4.0150    6.4890 C.3   174  GLU174      0.1163
    100  CD       -24.7090    5.1820    5.5700 C.2   174  GLU174      0.3649
    101  OE1      -25.1250    4.9090    4.4110 O.co2 174  GLU174     -0.2457
    102  OE2      -24.5590    6.3570    5.9910 O.co2 174  GLU174     -0.2457
    103  N        -26.5910    0.3800   -4.8500 N.3   193  ARG193     -0.1245
    104  CA       -26.8320    1.8050   -4.6960 C.3   193  ARG193      0.1563
    105  C        -26.8800    2.4900   -6.0480 C.2   193  ARG193      0.2260
    106  O        -26.6170    1.8870   -7.0820 O.2   193  ARG193     -0.2867
    107  CB       -25.7900    2.4560   -3.7730 C.3   193  ARG193      0.0307
    108  CG       -25.9950    2.1110   -2.2890 C.3   193  ARG193      0.0489
    109  CD       -24.7440    2.3800   -1.5050 C.3   193  ARG193      0.2205
    110  NE       -24.8540    2.0870   -0.0710 N.pl3 193  ARG193     -0.0865
    111  CZ       -25.2130    2.9380    0.8700 C.cat 193  ARG193      0.5346
    112  NH1      -25.5820    4.1780    0.5590 N.pl3 193  ARG193      0.1354
    113  NH2      -25.1890    2.5450    2.1510 N.pl3 193  ARG193      0.1354
    114  N        -25.5340    9.7000   -6.6900 N.3   196  SER196     -0.1202
    115  CA       -26.0820   11.0530   -6.4350 C.3   196  SER196      0.2020
    116  C        -25.1220   12.1960   -6.7760 C.2   196  SER196      0.2618
    117  O        -25.5420   13.3680   -6.8580 O.2   196  SER196     -0.2717
    118  CB       -26.4870   11.1600   -4.9820 C.3   196  SER196      0.2103
    119  OG       -25.4130   10.7880   -4.1280 O.3   196  SER196     -0.2182
    120  N        -23.8270   11.8670   -6.9050 N.am  197  ASP197     -0.1973
    121  CA       -22.7520   12.8460   -7.0600 C.3   197  ASP197      0.1709
    122  C        -21.4640   12.0730   -7.3780 C.2   197  ASP197      0.2293
    123  O        -21.4700   10.8570   -7.3070 O.2   197  ASP197     -0.2864
    124  CB       -22.5460   13.6200   -5.7570 C.3   197  ASP197      0.1436
    125  CG       -22.1980   12.7250   -4.5920 C.2   197  ASP197      0.3671
    126  OD1      -21.0080   12.5210   -4.3070 O.co2 197  ASP197     -0.2456
    127  OD2      -23.1080   12.2380   -3.9170 O.co2 197  ASP197     -0.2456
    128  N        -18.4220   12.8360   -5.8610 N.3   199  ALA199     -0.1245
    129  CA       -17.5550   13.0040   -4.6820 C.3   199  ALA199      0.1562
    130  C        -16.4720   14.0620   -4.8370 C.2   199  ALA199      0.2260
    131  O        -15.4350   13.9830   -4.1860 O.2   199  ALA199     -0.2867
    132  CB       -16.9300   11.6510   -4.3150 C.3   199  ALA199      0.0290
    133  N        -25.4250   16.1590   -4.5420 N.3   207  PHE207     -0.1227
    134  CA       -26.1430   15.2980   -3.6160 C.3   207  PHE207      0.1736
    135  C        -27.5270   15.8530   -3.2680 C.2   207  PHE207      0.2595
    136  O        -28.5260   15.1270   -3.3700 O.2   207  PHE207     -0.2718
    137  CB       -25.3120   14.9860   -2.3570 C.3   207  PHE207      0.0547
    138  CG       -26.0270   14.1250   -1.3810 C.ar  207  PHE207     -0.0202
    139  CD1      -26.8210   14.6900   -0.3790 C.ar  207  PHE207     -0.0042
    140  CD2      -25.9570   12.7430   -1.4810 C.ar  207  PHE207     -0.0042
    141  CE1      -27.5220   13.8880    0.5120 C.ar  207  PHE207     -0.0003
    142  CE2      -26.6340   11.9610   -0.5900 C.ar  207  PHE207     -0.0003
    143  CZ       -27.4280   12.5040    0.3930 C.ar  207  PHE207     -0.0000
    144  N        -27.6130   17.1400   -2.9220 N.am  208  ASP208     -0.1974
    145  CA       -28.9170   17.7200   -2.6260 C.3   208  ASP208      0.1709
    146  C        -29.8720   17.5860   -3.8090 C.2   208  ASP208      0.2293
    147  O        -31.0340   17.2040   -3.6360 O.2   208  ASP208     -0.2864
    148  CB       -28.7970   19.1980   -2.2330 C.3   208  ASP208      0.1436
    149  CG       -28.1710   19.3900   -0.8670 C.2   208  ASP208      0.3671
    150  OD1      -28.1510   18.4190   -0.0460 O.co2 208  ASP208     -0.2456
    151  OD2      -27.7000   20.5340   -0.6290 O.co2 208  ASP208     -0.2456
@<TRIPOS>BOND
     1   122   123    2
     2   122   121    1
     3   106   105    2
     4   121   120    1
     5   121   124    1
     6   120   116   am
     7   117   116    2
     8   116   115    1
     9   114   115    1
    10   115   118    1
    11   105   104    1
    12   128   129    1
    13   124   125    1
    14    44    45    2
    15    44    43    1
    16    40    39    2
    17   118   119    1
    18   103   104    1
    19   130   129    1
    20   130   131    2
    21   104   107    1
    22   129   132    1
    23    43    42    1
    24   125   126   ar
    25   125   127   ar
    26   133   134    1
    27    39    42   am
    28    39    38    1
    29    41    38    1
    30   146   147    2
    31   146   145    1
    32   107   108    1
    33   134   135    1
    34   134   137    1
    35    37    38    1
    36    37    33   am
    37   136   135    2
    38    70    71    1
    39   135   144   am
    40   144   145    1
    41    32    33    1
    42    32    35    1
    43    32    31    1
    44   145   148    1
    45    33    34    2
    46    35    36    1
    47   137   138    1
    48    75    74    1
    49   108   109    1
    50   148   149    1
    51    71    74    1
    52    71    72    1
    53    73    72    2
    54    74    76    1
    55   109   110    1
    56   140   138   ar
    57   140   142   ar
    58    65    64    2
    59   138   139   ar
    60    72    77   am
    61    68    66    1
    62   149   151   ar
    63   149   150   ar
    64    64    63    1
    65   142   143   ar
    66    66    63    1
    67    66    67    1
    68    61    59   ar
    69    61    60   ar
    70   139   141   ar
    71   110   111    2
    72    77    78    1
    73    59    57   ar
    74    82    81    1
    75    82    83    1
    76    17    16    2
    77    63    62    1
    78    60    58   ar
    79    81    78    1
    80   143   141   ar
    81   112   111    1
    82    67    69    1
    83    19    18    1
    84    19    20    1
    85    22    20   ar
    86    15    16    1
    87    15    18    1
    88    15    14    1
    89    78    79    1
    90   111   113    1
    91    62    53   am
    92    57    56   ar
    93    20    21   ar
    94    83    84   ar
    95    83    85   ar
    96    58    56   ar
    97    56    55    1
    98    53    54    2
    99    53    52    1
   100    79    80    2
   101    79    86   am
   102    12    13    1
   103    12    11    1
   104    52    55    1
   105    52    51    1
   106    86    87    1
   107    49    48    2
   108    10    11    1
   109    10     7    1
   110     9     8    2
   111   101   100   ar
   112    51    48   am
   113    91    92    1
   114    91    90    1
   115    87    90    1
   116    87    88    1
   117    48    47    1
   118     8     7    1
   119     1     2    1
   120    94    88   am
   121    94    95    1
   122    92    93    1
   123     6     7    1
   124     6     3   am
   125    96    95    1
   126    96    97    2
   127    88    89    2
   128   100   102   ar
   129   100    99    1
   130    50    47    1
   131     5     2    1
   132    95    98    1
   133    98    99    1
   134    47    46    1
   135     2     3    1
   136     3     4    2
   137    30    28    1
   138    28    27    1
   139    29    27    1
   140    27    24    1
   141    24    25    1
   142    24    23    1
   143    25    26    2
