@<TRIPOS>MOLECULE
tmp/4f3zC00.pdb
 106 104 0 0 0
SMALL
GASTEIGER

@<TRIPOS>ATOM
      1  N          2.5960  -12.1500   50.6620 N.3    60  ALA60      -0.1245
      2  CA         2.4870  -11.2020   51.7660 C.3    60  ALA60       0.1562
      3  C          3.7980  -11.0690   52.5340 C.2    60  ALA60       0.2260
      4  O          4.2680   -9.9640   52.7870 O.2    60  ALA60      -0.2867
      5  CB         1.3640  -11.6070   52.7000 C.3    60  ALA60       0.0290
      6  N          5.8200   -7.5680   52.6860 N.3    64  LEU64      -0.1245
      7  CA         5.9400   -6.9670   54.0090 C.3    64  LEU64       0.1561
      8  C          7.3650   -7.0860   54.5460 C.2    64  LEU64       0.2260
      9  O          7.6980   -6.5110   55.5800 O.2    64  LEU64      -0.2867
     10  CB         4.9430   -7.6030   54.9790 C.3    64  LEU64       0.0270
     11  CG         3.4860   -7.5400   54.5180 C.3    64  LEU64       0.0019
     12  CD1        2.6100   -8.4500   55.3590 C.3    64  LEU64       0.0001
     13  CD2        2.9770   -6.1080   54.5530 C.3    64  LEU64       0.0001
     14  N          3.3420  -16.3110   55.4890 N.3    85  ASN85      -0.1240
     15  CA         3.6420  -14.9820   56.0040 C.3    85  ASN85       0.1653
     16  C          4.4440  -15.1040   57.2980 C.2    85  ASN85       0.2266
     17  O          4.2150  -16.0100   58.0980 O.2    85  ASN85      -0.2867
     18  CB         2.3530  -14.1760   56.2220 C.3    85  ASN85       0.1155
     19  CG         1.2370  -15.0000   56.8650 C.2    85  ASN85       0.2627
     20  OD1        1.4880  -15.9960   57.5490 O.2    85  ASN85      -0.2716
     21  ND2       -0.0070  -14.5790   56.6420 N.am   85  ASN85      -0.0877
     22  N          4.4360  -13.6360   60.0190 N.3    87  THR87      -0.1218
     23  CA         3.7640  -13.1620   61.2310 C.3    87  THR87       0.1862
     24  C          3.9760  -14.1930   62.3510 C.2    87  THR87       0.2287
     25  O          3.6160  -15.3590   62.1760 O.2    87  THR87      -0.2866
     26  CB         2.2710  -12.9080   60.9470 C.3    87  THR87       0.1770
     27  OG1        1.5900  -12.5700   62.1570 O.3    87  THR87      -0.2211
     28  CG2        1.6170  -14.1420   60.3250 C.3    87  THR87       0.0375
     29  N          1.8810  -11.5920   64.3570 N.3    89  TYR89      -0.1228
     30  CA         0.6390  -11.2950   65.0770 C.3    89  TYR89       0.1721
     31  C         -0.6250  -11.7080   64.3200 C.2    89  TYR89       0.2437
     32  O         -0.6310  -11.7850   63.0960 O.2    89  TYR89      -0.2733
     33  CB         0.5900   -9.8030   65.4120 C.3    89  TYR89       0.0547
     34  CG         1.7480   -9.3340   66.2600 C.ar   89  TYR89      -0.0200
     35  CD1        1.5810   -9.0880   67.6150 C.ar   89  TYR89      -0.0009
     36  CD2        3.0080   -9.1380   65.7060 C.ar   89  TYR89      -0.0009
     37  CE1        2.6350   -8.6570   68.3960 C.ar   89  TYR89       0.0417
     38  CE2        4.0690   -8.7070   66.4800 C.ar   89  TYR89       0.0417
     39  CZ         3.8740   -8.4690   67.8250 C.ar   89  TYR89       0.1957
     40  OH         4.9200   -8.0420   68.6080 O.3    89  TYR89      -0.2866
     41  N         -1.7050  -11.9690   65.0660 N.am   90  PRO90      -0.2718
     42  CA        -2.9440  -12.6230   64.6290 C.3    90  PRO90       0.1535
     43  C         -3.6670  -11.9490   63.4650 C.2    90  PRO90       0.2599
     44  O         -4.5860  -12.5420   62.8930 O.2    90  PRO90      -0.2715
     45  CB        -3.8170  -12.5810   65.8850 C.3    90  PRO90       0.0310
     46  CG        -2.8510  -12.5320   67.0020 C.3    90  PRO90       0.0237
     47  CD        -1.7170  -11.6970   66.5130 C.3    90  PRO90       0.0939
     48  N         -3.2600  -10.7340   63.1200 N.am   91  GLY91      -0.1941
     49  CA        -4.0420   -9.8970   62.2340 C.3    91  GLY91       0.2014
     50  C         -4.2940  -10.4480   60.8420 C.2    91  GLY91       0.2639
     51  O         -3.8030  -11.5150   60.4630 O.2    91  GLY91      -0.2714
     52  N         -5.0900   -9.6940   60.0890 N.am   92  ASP92      -0.1957
     53  CA        -5.6030  -10.1040   58.7900 C.3    92  ASP92       0.1840
     54  C         -5.0500   -9.2180   57.6730 C.2    92  ASP92       0.2622
     55  O         -4.6740   -8.0730   57.9130 O.2    92  ASP92      -0.2715
     56  CB        -7.1240   -9.9910   58.8040 C.3    92  ASP92       0.1450
     57  CG        -7.8020  -11.1520   58.1200 C.2    92  ASP92       0.3671
     58  OD1       -7.1490  -11.8290   57.2960 O.co2  92  ASP92      -0.2456
     59  OD2       -8.9930  -11.3850   58.4120 O.co2  92  ASP92      -0.2456
     60  N         -5.0070   -9.7510   56.4550 N.am   93  PHE93      -0.1974
     61  CA        -4.5550   -8.9880   55.2920 C.3    93  PHE93       0.1639
     62  C         -5.7480   -8.6520   54.3980 C.2    93  PHE93       0.2290
     63  O         -6.4400   -9.5470   53.9190 O.2    93  PHE93      -0.2864
     64  CB        -3.5080   -9.7890   54.5170 C.3    93  PHE93       0.0560
     65  CG        -2.5510   -8.9430   53.7250 C.ar   93  PHE93      -0.0200
     66  CD1       -2.9920   -7.8550   52.9960 C.ar   93  PHE93      -0.0042
     67  CD2       -1.2040   -9.2430   53.7120 C.ar   93  PHE93      -0.0042
     68  CE1       -2.1040   -7.0890   52.2690 C.ar   93  PHE93      -0.0003
     69  CE2       -0.3180   -8.4800   52.9930 C.ar   93  PHE93      -0.0003
     70  CZ        -0.7660   -7.4040   52.2710 C.ar   93  PHE93      -0.0000
     71  N         -6.2100   -9.2020   50.1380 N.3    96  TYR96      -0.1241
     72  CA        -4.9600   -9.8730   49.8210 C.3    96  TYR96       0.1605
     73  C         -4.9950  -10.4810   48.4180 C.2    96  TYR96       0.2264
     74  O         -4.0750  -10.2830   47.6170 O.2    96  TYR96      -0.2867
     75  CB        -4.6670  -10.9350   50.8840 C.3    96  TYR96       0.0534
     76  CG        -3.4950  -11.8320   50.5800 C.ar   96  TYR96      -0.0201
     77  CD1       -2.2270  -11.3100   50.3860 C.ar   96  TYR96      -0.0009
     78  CD2       -3.6560  -13.2060   50.5090 C.ar   96  TYR96      -0.0009
     79  CE1       -1.1530  -12.1310   50.1110 C.ar   96  TYR96       0.0417
     80  CE2       -2.5920  -14.0340   50.2380 C.ar   96  TYR96       0.0417
     81  CZ        -1.3430  -13.4940   50.0390 C.ar   96  TYR96       0.1957
     82  OH        -0.2810  -14.3260   49.7680 O.3    96  TYR96      -0.2866
     83  N          9.0470   -7.3810   60.4810 N.3   129  TYR129     -0.1241
     84  CA         9.0200   -6.9960   59.0740 C.3   129  TYR129      0.1605
     85  C          9.9710   -5.8420   58.7650 C.2   129  TYR129      0.2264
     86  O         10.0320   -4.8560   59.5000 O.2   129  TYR129     -0.2867
     87  CB         7.5980   -6.6190   58.6620 C.3   129  TYR129      0.0534
     88  CG         6.6840   -7.8040   58.4570 C.ar  129  TYR129     -0.0201
     89  CD1        7.1890   -9.0360   58.0670 C.ar  129  TYR129     -0.0009
     90  CD2        5.3150   -7.6880   58.6460 C.ar  129  TYR129     -0.0009
     91  CE1        6.3550  -10.1200   57.8720 C.ar  129  TYR129      0.0417
     92  CE2        4.4720   -8.7660   58.4560 C.ar  129  TYR129      0.0417
     93  CZ         4.9950   -9.9800   58.0700 C.ar  129  TYR129      0.1957
     94  OH         4.1540  -11.0560   57.8790 O.3   129  TYR129     -0.2866
     95  N         -3.3730   -5.5700   57.9530 N.3   207  TYR207     -0.1241
     96  CA        -2.5540   -4.9620   56.9110 C.3   207  TYR207      0.1605
     97  C         -3.3630   -4.5180   55.7000 C.2   207  TYR207      0.2264
     98  O         -4.2420   -5.2360   55.2270 O.2   207  TYR207     -0.2867
     99  CB        -1.4490   -5.9240   56.4790 C.3   207  TYR207      0.0534
    100  CG        -0.3970   -6.1330   57.5350 C.ar  207  TYR207     -0.0201
    101  CD1        0.5770   -5.1720   57.7650 C.ar  207  TYR207     -0.0009
    102  CD2       -0.3770   -7.2860   58.3080 C.ar  207  TYR207     -0.0009
    103  CE1        1.5440   -5.3520   58.7310 C.ar  207  TYR207      0.0417
    104  CE2        0.5880   -7.4770   59.2790 C.ar  207  TYR207      0.0417
    105  CZ         1.5460   -6.5060   59.4860 C.ar  207  TYR207      0.1957
    106  OH         2.5120   -6.6840   60.4500 O.3   207  TYR207     -0.2866
@<TRIPOS>BOND
     1    74    73    2
     2    73    72    1
     3    82    81    1
     4    72    71    1
     5    72    75    1
     6    81    79   ar
     7    81    80   ar
     8    79    77   ar
     9    80    78   ar
    10    77    76   ar
    11    78    76   ar
    12    76    75    1
    13     1     2    1
    14     2     3    1
    15     2     5    1
    16    68    70   ar
    17    68    66   ar
    18    70    69   ar
    19     3     4    2
    20     6     7    1
    21    69    67   ar
    22    66    65   ar
    23    67    65   ar
    24    65    64    1
    25    63    62    2
    26     7     8    1
    27     7    10    1
    28    62    61    1
    29    64    61    1
    30    11    13    1
    31    11    10    1
    32    11    12    1
    33     8     9    2
    34    98    97    2
    35    61    60    1
    36    14    15    1
    37    97    96    1
    38    15    18    1
    39    15    16    1
    40    18    19    1
    41    60    54   am
    42    99    96    1
    43    99   100    1
    44    21    19   am
    45    19    20    2
    46    96    95    1
    47    58    57   ar
    48    16    17    2
    49   100   101   ar
    50   100   102   ar
    51    54    55    2
    52    54    53    1
    53   101   103   ar
    54    91    89   ar
    55    91    93   ar
    56    94    93    1
    57    89    88   ar
    58    93    92   ar
    59    57    59   ar
    60    57    56    1
    61   102   104   ar
    62    92    90   ar
    63    88    90   ar
    64    88    87    1
    65    87    84    1
    66   103   105   ar
    67    85    84    1
    68    85    86    2
    69    53    56    1
    70    53    52    1
    71    84    83    1
    72   104   105   ar
    73   105   106    1
    74    22    23    1
    75    52    50   am
    76    28    26    1
    77    51    50    2
    78    50    49    1
    79    26    23    1
    80    26    27    1
    81    23    24    1
    82    25    24    2
    83    49    48    1
    84    44    43    2
    85    32    31    2
    86    48    43   am
    87    43    42    1
    88    31    41   am
    89    31    30    1
    90    29    30    1
    91    42    41    1
    92    42    45    1
    93    41    47    1
    94    30    33    1
    95    33    34    1
    96    36    34   ar
    97    36    38   ar
    98    45    46    1
    99    34    35   ar
   100    38    39   ar
   101    47    46    1
   102    35    37   ar
   103    39    37   ar
   104    39    40    1
