@<TRIPOS>MOLECULE
tmp/4f45B00.pdb
 195 191 0 0 0
SMALL
GASTEIGER

@<TRIPOS>ATOM
      1  N       -428.9550 -933.5700   27.7480 N.3    79  LEU79      -0.1231
      2  CA      -428.2910 -933.0590   28.9530 C.3    79  LEU79       0.1693
      3  C       -426.8440 -933.5650   29.0430 C.2    79  LEU79       0.2592
      4  O       -426.5830 -934.7680   29.1840 O.2    79  LEU79      -0.2718
      5  CB      -429.0700 -933.4640   30.2020 C.3    79  LEU79       0.0284
      6  CG      -428.4490 -933.0870   31.5570 C.3    79  LEU79       0.0019
      7  CD1     -428.3890 -931.5740   31.7420 C.3    79  LEU79       0.0001
      8  CD2     -429.2470 -933.7220   32.6750 C.3    79  LEU79       0.0001
      9  N       -425.8980 -932.6440   28.9380 N.am   80  LEU80      -0.1966
     10  CA      -424.5080 -932.9540   29.1700 C.3    80  LEU80       0.1728
     11  C       -424.2300 -932.7220   30.6680 C.2    80  LEU80       0.2616
     12  O       -425.0270 -932.1020   31.3320 O.2    80  LEU80      -0.2715
     13  CB      -423.6530 -932.0590   28.2940 C.3    80  LEU80       0.0311
     14  CG      -424.0770 -932.1200   26.8090 C.3    80  LEU80       0.0022
     15  CD1     -423.3000 -931.0790   26.0060 C.3    80  LEU80       0.0001
     16  CD2     -423.8050 -933.5160   26.2710 C.3    80  LEU80       0.0001
     17  N       -423.0980 -933.2000   31.1830 N.am   81  TRP81      -0.1960
     18  CA      -422.7340 -932.9520   32.5770 C.3    81  TRP81       0.1771
     19  C       -421.2460 -933.1540   32.7850 C.2    81  TRP81       0.2620
     20  O       -420.5630 -933.7990   31.9840 O.2    81  TRP81      -0.2715
     21  CB      -423.5840 -933.8240   33.5270 C.3    81  TRP81       0.0590
     22  CG      -423.3800 -935.2960   33.2540 C.ar   81  TRP81       0.0006
     23  CD1     -424.1270 -936.1130   32.4170 C.ar   81  TRP81       0.0946
     24  CD2     -422.2840 -936.1490   33.7320 C.ar   81  TRP81       0.0152
     25  NE1     -423.6050 -937.3820   32.3740 N.ar   81  TRP81      -0.2442
     26  CE2     -422.5080 -937.4730   33.1400 C.ar   81  TRP81       0.0810
     27  CE3     -421.2030 -935.9700   34.5910 C.ar   81  TRP81       0.0012
     28  CZ2     -421.6750 -938.5510   33.4090 C.ar   81  TRP81       0.0191
     29  CZ3     -420.3590 -937.0660   34.8400 C.ar   81  TRP81       0.0001
     30  CH2     -420.5940 -938.3200   34.2680 C.ar   81  TRP81       0.0015
     31  N       -420.7130 -932.5630   33.8470 N.am   82  SER82      -0.1936
     32  CA      -419.3240 -932.7700   34.2090 C.3    82  SER82       0.2055
     33  C       -419.2250 -932.8190   35.7530 C.2    82  SER82       0.2642
     34  O       -419.7230 -931.9360   36.4190 O.2    82  SER82      -0.2714
     35  CB      -418.4490 -931.6500   33.5930 C.3    82  SER82       0.2130
     36  OG      -417.0690 -932.0210   33.4860 O.3    82  SER82      -0.2179
     37  N       -418.6640 -933.9030   36.2880 N.am   83  ARG83      -0.1977
     38  CA      -418.3870 -934.0820   37.7250 C.3    83  ARG83       0.1597
     39  C       -419.6110 -934.0680   38.6350 C.2    83  ARG83       0.2287
     40  O       -419.4950 -933.7360   39.8090 O.2    83  ARG83      -0.2864
     41  CB      -417.3740 -933.0510   38.2170 C.3    83  ARG83       0.0334
     42  CG      -415.9710 -933.2260   37.6590 C.3    83  ARG83       0.0492
     43  CD      -415.8130 -932.7320   36.2250 C.3    83  ARG83       0.2205
     44  NE      -414.4720 -932.1820   35.9890 N.pl3  83  ARG83      -0.0865
     45  CZ      -413.3500 -932.8940   35.8480 C.cat  83  ARG83       0.5346
     46  NH1     -413.3590 -934.2220   35.9010 N.pl3  83  ARG83       0.1354
     47  NH2     -412.2020 -932.2650   35.6440 N.pl3  83  ARG83       0.1354
     48  N       -422.4010 -936.6750   38.2150 N.3    85  LYS85      -0.1245
     49  CA      -423.0270 -937.8040   37.5290 C.3    85  LYS85       0.1561
     50  C       -424.3410 -938.2640   38.1500 C.2    85  LYS85       0.2260
     51  O       -425.3030 -938.5410   37.4420 O.2    85  LYS85      -0.2867
     52  CB      -422.0670 -938.9920   37.5600 C.3    85  LYS85       0.0271
     53  CG      -422.4940 -940.1830   36.7180 C.3    85  LYS85       0.0035
     54  CD      -421.5560 -941.3430   36.9940 C.3    85  LYS85       0.0206
     55  CE      -421.5860 -942.3330   35.8480 C.3    85  LYS85       0.1093
     56  NZ      -420.6150 -943.4360   36.0680 N.3    85  LYS85      -0.1314
     57  N       -426.0230 -939.0940   27.9800 N.3   101  LEU101     -0.1231
     58  CA      -425.4300 -940.1380   27.1560 C.3   101  LEU101      0.1693
     59  C       -425.6620 -941.5320   27.7230 C.2   101  LEU101      0.2591
     60  O       -425.8900 -942.4940   26.9770 O.2   101  LEU101     -0.2718
     61  CB      -423.9370 -939.8260   26.9900 C.3   101  LEU101      0.0284
     62  CG      -423.0260 -940.8960   26.4200 C.3   101  LEU101      0.0019
     63  CD1     -423.4240 -941.2610   24.9920 C.3   101  LEU101      0.0001
     64  CD2     -421.5920 -940.3690   26.5410 C.3   101  LEU101      0.0001
     65  N       -425.6950 -941.6360   29.0420 N.am  102  GLU102     -0.1979
     66  CA      -425.9290 -942.9190   29.7020 C.3   102  GLU102      0.1602
     67  C       -427.3840 -943.3980   29.6110 C.2   102  GLU102      0.2287
     68  O       -427.7050 -944.4910   30.0180 O.2   102  GLU102     -0.2864
     69  CB      -425.4520 -942.8490   31.1470 C.3   102  GLU102      0.0415
     70  CG      -423.9510 -942.5460   31.2430 C.3   102  GLU102      0.1163
     71  CD      -423.5880 -941.0820   30.9950 C.2   102  GLU102      0.3649
     72  OE1     -424.3440 -940.1620   31.3810 O.co2 102  GLU102     -0.2457
     73  OE2     -422.5180 -940.8440   30.4160 O.co2 102  GLU102     -0.2457
     74  N       -421.7810 -947.6600   31.1630 N.3   111  ASP111     -0.1225
     75  CA      -421.7810 -946.8470   32.3780 C.3   111  ASP111      0.1805
     76  C       -421.1990 -947.6280   33.5720 C.2   111  ASP111      0.2597
     77  O       -421.6400 -948.7370   33.8780 O.2   111  ASP111     -0.2718
     78  CB      -423.1980 -946.3880   32.7100 C.3   111  ASP111      0.1424
     79  CG      -423.2290 -945.2230   33.6970 C.2   111  ASP111      0.3668
     80  OD1     -422.3460 -944.3370   33.6470 O.co2 111  ASP111     -0.2456
     81  OD2     -424.1590 -945.1840   34.5160 O.co2 111  ASP111     -0.2456
     82  N       -420.1770 -947.0560   34.2020 N.am  112  ASP112     -0.1974
     83  CA      -419.6090 -947.5710   35.4510 C.3   112  ASP112      0.1709
     84  C       -418.7940 -948.8490   35.2750 C.2   112  ASP112      0.2293
     85  O       -418.4610 -949.4900   36.2590 O.2   112  ASP112     -0.2864
     86  CB      -420.7120 -947.7950   36.5020 C.3   112  ASP112      0.1436
     87  CG      -421.2960 -946.4960   37.0230 C.2   112  ASP112      0.3671
     88  OD1     -420.5190 -945.6520   37.5170 O.co2 112  ASP112     -0.2456
     89  OD2     -422.5310 -946.3300   36.9770 O.co2 112  ASP112     -0.2456
     90  N       -404.3380 -947.0570   33.2220 N.3   131  ASP131     -0.1225
     91  CA      -404.8740 -945.8230   33.7500 C.3   131  ASP131      0.1805
     92  C       -404.6640 -944.6750   32.7480 C.2   131  ASP131      0.2597
     93  O       -403.5810 -944.5130   32.2040 O.2   131  ASP131     -0.2718
     94  CB      -404.2080 -945.4670   35.0740 C.3   131  ASP131      0.1424
     95  CG      -404.7840 -944.2080   35.6730 C.2   131  ASP131      0.3668
     96  OD1     -405.9320 -944.2790   36.1580 O.co2 131  ASP131     -0.2456
     97  OD2     -404.1120 -943.1520   35.6340 O.co2 131  ASP131     -0.2456
     98  N       -405.6990 -943.8660   32.5730 N.am  132  TRP132     -0.1976
     99  CA      -405.6870 -942.7330   31.6740 C.3   132  TRP132      0.1640
    100  C       -404.5020 -941.8290   31.8890 C.2   132  TRP132      0.2290
    101  O       -403.7850 -941.5450   30.9470 O.2   132  TRP132     -0.2864
    102  CB      -406.9940 -941.9410   31.7900 C.3   132  TRP132      0.0576
    103  CG      -406.9160 -940.6390   31.0530 C.ar  132  TRP132      0.0006
    104  CD1     -406.8900 -940.4460   29.6730 C.ar  132  TRP132      0.0946
    105  CD2     -406.7930 -939.2980   31.6300 C.ar  132  TRP132      0.0152
    106  NE1     -406.7810 -939.1130   29.3660 N.ar  132  TRP132     -0.2442
    107  CE2     -406.7150 -938.3690   30.4950 C.ar  132  TRP132      0.0810
    108  CE3     -406.7550 -938.7890   32.9210 C.ar  132  TRP132      0.0012
    109  CZ2     -406.6100 -936.9990   30.6750 C.ar  132  TRP132      0.0191
    110  CZ3     -406.6420 -937.4050   33.0890 C.ar  132  TRP132      0.0001
    111  CH2     -406.5720 -936.5340   31.9910 C.ar  132  TRP132      0.0015
    112  N       -411.2820 -945.1190   27.7640 N.3   142  SER142     -0.1217
    113  CA      -411.1900 -943.7140   27.3970 C.3   142  SER142      0.1889
    114  C       -411.5250 -943.4890   25.9110 C.2   142  SER142      0.2288
    115  O       -412.2290 -942.5470   25.5710 O.2   142  SER142     -0.2866
    116  CB      -409.8020 -943.1490   27.7090 C.3   142  SER142      0.2089
    117  OG      -409.4850 -943.3100   29.0850 O.3   142  SER142     -0.2183
    118  N       -415.3550 -943.5910   25.4810 N.3   145  TRP145     -0.1241
    119  CA      -416.1190 -942.4740   25.9930 C.3   145  TRP145      0.1605
    120  C       -415.8660 -941.2630   25.1760 C.2   145  TRP145      0.2264
    121  O       -416.7830 -940.4920   24.9410 O.2   145  TRP145     -0.2867
    122  CB      -415.8110 -942.2170   27.4710 C.3   145  TRP145      0.0550
    123  CG      -416.5170 -943.2210   28.3350 C.ar  145  TRP145      0.0003
    124  CD1     -415.9370 -944.2010   29.1340 C.ar  145  TRP145      0.0946
    125  CD2     -417.9730 -943.4120   28.4970 C.ar  145  TRP145      0.0152
    126  NE1     -416.8940 -944.9430   29.7730 N.ar  145  TRP145     -0.2442
    127  CE2     -418.1330 -944.5250   29.4350 C.ar  145  TRP145      0.0810
    128  CE3     -419.1120 -942.7850   27.9900 C.ar  145  TRP145      0.0012
    129  CZ2     -419.3740 -944.9700   29.8310 C.ar  145  TRP145      0.0191
    130  CZ3     -420.3610 -943.2550   28.3740 C.ar  145  TRP145      0.0001
    131  CH2     -420.4910 -944.3170   29.2840 C.ar  145  TRP145      0.0015
    132  N       -418.9950 -939.6260   23.4440 N.3   149  SER149     -0.1217
    133  CA      -419.2070 -938.2650   23.9660 C.3   149  SER149      0.1889
    134  C       -419.1730 -937.2680   22.8130 C.2   149  SER149      0.2288
    135  O       -419.9600 -936.3090   22.7990 O.2   149  SER149     -0.2866
    136  CB      -418.1600 -937.8590   25.0130 C.3   149  SER149      0.2089
    137  OG      -418.3300 -938.6050   26.2530 O.3   149  SER149     -0.2183
    138  N       -422.4230 -937.7560   20.6990 N.3   152  PHE152     -0.1241
    139  CA      -423.5810 -937.2490   21.4090 C.3   152  PHE152      0.1605
    140  C       -423.6320 -935.7240   21.3060 C.2   152  PHE152      0.2264
    141  O       -424.6920 -935.1580   21.0360 O.2   152  PHE152     -0.2867
    142  CB      -423.5140 -937.6680   22.8770 C.3   152  PHE152      0.0534
    143  CG      -424.8070 -937.5790   23.5940 C.ar  152  PHE152     -0.0203
    144  CD1     -425.9040 -938.3210   23.1790 C.ar  152  PHE152     -0.0042
    145  CD2     -424.9120 -936.8220   24.7670 C.ar  152  PHE152     -0.0042
    146  CE1     -427.0970 -938.2860   23.8860 C.ar  152  PHE152     -0.0003
    147  CE2     -426.0910 -936.8030   25.4770 C.ar  152  PHE152     -0.0003
    148  CZ      -427.1950 -937.5150   25.0340 C.ar  152  PHE152     -0.0000
    149  N       -410.1940 -929.2960   30.7370 N.3   175  ASP175     -0.1225
    150  CA      -409.5050 -930.5640   30.5260 C.3   175  ASP175      0.1805
    151  C       -410.4100 -931.7860   30.7380 C.2   175  ASP175      0.2598
    152  O       -409.9680 -932.9290   30.5400 O.2   175  ASP175     -0.2718
    153  CB      -408.2720 -930.6340   31.4320 C.3   175  ASP175      0.1424
    154  CG      -407.2000 -929.6070   31.0440 C.2   175  ASP175      0.3668
    155  OD1     -407.1910 -929.1420   29.8820 O.co2 175  ASP175     -0.2456
    156  OD2     -406.3630 -929.2650   31.9000 O.co2 175  ASP175     -0.2456
    157  N       -411.6590 -931.5450   31.1270 N.am  176  SER176     -0.1938
    158  CA      -412.6560 -932.6090   31.2560 C.3   176  SER176      0.2055
    159  C       -413.1350 -933.0330   29.8740 C.2   176  SER176      0.2644
    160  O       -412.9100 -932.3300   28.9020 O.2   176  SER176     -0.2714
    161  CB      -413.8480 -932.1310   32.0790 C.3   176  SER176      0.2130
    162  OG      -414.6020 -931.1060   31.4130 O.3   176  SER176     -0.2179
    163  N       -413.8010 -934.1820   29.7970 N.am  177  THR177     -0.1936
    164  CA      -414.4520 -934.6130   28.5630 C.3   177  THR177      0.2028
    165  C       -415.4340 -933.5530   28.0830 C.2   177  THR177      0.2642
    166  O       -415.4500 -933.2110   26.9030 O.2   177  THR177     -0.2714
    167  CB      -415.2010 -935.9450   28.7470 C.3   177  THR177      0.1808
    168  OG1     -414.2620 -936.9860   29.0660 O.3   177  THR177     -0.2208
    169  CG2     -415.9830 -936.3350   27.4740 C.3   177  THR177      0.0379
    170  N       -416.2370 -933.0100   28.9940 N.am  178  PHE178     -0.1973
    171  CA      -417.1370 -931.9640   28.5970 C.3   178  PHE178      0.1639
    172  C       -416.3760 -930.8030   27.9580 C.2   178  PHE178      0.2290
    173  O       -416.7150 -930.3580   26.8620 O.2   178  PHE178     -0.2864
    174  CB      -417.9640 -931.4410   29.7550 C.3   178  PHE178      0.0560
    175  CG      -418.7340 -930.2210   29.3890 C.ar  178  PHE178     -0.0200
    176  CD1     -419.7560 -930.3070   28.4450 C.ar  178  PHE178     -0.0042
    177  CD2     -418.4180 -928.9870   29.9290 C.ar  178  PHE178     -0.0042
    178  CE1     -420.4380 -929.1860   28.0590 C.ar  178  PHE178     -0.0003
    179  CE2     -419.1210 -927.8540   29.5650 C.ar  178  PHE178     -0.0003
    180  CZ      -420.1230 -927.9550   28.6180 C.ar  178  PHE178     -0.0000
    181  N       -413.1390 -930.4740   26.8950 N.3   180  SER180     -0.1217
    182  CA      -412.1440 -930.7200   25.8520 C.3   180  SER180      0.1889
    183  C       -412.7250 -931.3720   24.5970 C.2   180  SER180      0.2288
    184  O       -412.1660 -931.2090   23.5290 O.2   180  SER180     -0.2866
    185  CB      -410.9830 -931.5740   26.3890 C.3   180  SER180      0.2089
    186  OG      -411.4050 -932.8940   26.6810 O.3   180  SER180     -0.2183
    187  N       -416.6900 -932.0910   24.2560 N.3   182  GLN182     -0.1245
    188  CA      -418.0920 -931.7830   23.9090 C.3   182  GLN182      0.1566
    189  C       -418.3210 -930.3520   23.5010 C.2   182  GLN182      0.2260
    190  O       -418.9440 -930.0890   22.4550 O.2   182  GLN182     -0.2867
    191  CB      -419.0370 -932.2830   24.9950 C.3   182  GLN182      0.0367
    192  CG      -419.0340 -933.7970   25.0280 C.3   182  GLN182      0.0905
    193  CD      -420.0050 -934.3790   26.0440 C.2   182  GLN182      0.2608
    194  OE1     -420.1890 -933.8280   27.1150 O.2   182  GLN182     -0.2717
    195  NE2     -420.6410 -935.4930   25.6880 N.am  182  GLN182     -0.0878
@<TRIPOS>BOND
     1   138   139    1
     2   141   140    2
     3   140   139    1
     4   139   142    1
     5   190   189    2
     6   135   134    2
     7   134   133    1
     8   142   143    1
     9   144   143   ar
    10   144   146   ar
    11   132   133    1
    12   189   188    1
    13   184   183    2
    14   143   145   ar
    15   146   148   ar
    16   188   187    1
    17   188   191    1
    18   133   136    1
    19   183   182    1
    20   145   147   ar
    21   121   120    2
    22    63    62    1
    23   191   192    1
    24   136   137    1
    25   192   193    1
    26   148   147   ar
    27   120   119    1
    28   118   119    1
    29   115   114    2
    30   195   193   am
    31   182   185    1
    32   182   181    1
    33   114   113    1
    34   119   122    1
    35    15    14    1
    36   193   194    2
    37    16    14    1
    38   185   186    1
    39    62    64    1
    40    62    61    1
    41    14    13    1
    42   173   172    2
    43   166   165    2
    44    60    59    2
    45    61    58    1
    46    58    59    1
    47    58    57    1
    48   113   116    1
    49   113   112    1
    50   122   123    1
    51   169   167    1
    52   116   117    1
    53    59    65   am
    54     1     2    1
    55   172   171    1
    56   128   130   ar
    57   128   125   ar
    58   178   176   ar
    59   178   180   ar
    60   165   164    1
    61   165   170   am
    62    13    10    1
    63   123   125   ar
    64   123   124   ar
    65   130   131   ar
    66   176   175   ar
    67   125   127   ar
    68   164   167    1
    69   164   163    1
    70   171   170    1
    71   171   174    1
    72   180   179   ar
    73   167   168    1
    74   160   159    2
    75     9     3   am
    76     9    10    1
    77     2     3    1
    78     2     5    1
    79    65    66    1
    80     3     4    2
    81   124   126   ar
    82    10    11    1
    83   131   129   ar
    84   106   104   ar
    85   106   107   ar
    86   175   174    1
    87   175   177   ar
    88   127   126   ar
    89   127   129   ar
    90   179   177   ar
    91    67    66    1
    92    67    68    2
    93   104   103   ar
    94    66    69    1
    95   163   159   am
    96   159   158    1
    97   155   154   ar
    98     5     6    1
    99    73    71   ar
   100   107   109   ar
   101   107   105   ar
   102   150   149    1
   103   150   151    1
   104   150   153    1
   105   152   151    2
   106    11    17   am
   107    11    12    2
   108   109   111   ar
   109   151   157   am
   110   101   100    2
   111    71    70    1
   112    71    72   ar
   113   154   153    1
   114   154   156   ar
   115   103   105   ar
   116   103   102    1
   117   157   158    1
   118    69    70    1
   119    74    75    1
   120    17    18    1
   121   158   161    1
   122   162   161    1
   123     6     7    1
   124     6     8    1
   125   105   108   ar
   126    99   102    1
   127    99   100    1
   128    99    98    1
   129    20    19    2
   130   111   110   ar
   131    93    92    2
   132    25    23   ar
   133    25    26   ar
   134    75    78    1
   135    75    76    1
   136    23    22   ar
   137    98    92   am
   138    18    19    1
   139    18    21    1
   140    78    79    1
   141    92    91    1
   142    19    31   am
   143   108   110   ar
   144    26    28   ar
   145    26    24   ar
   146    90    91    1
   147    22    21    1
   148    22    24   ar
   149    28    30   ar
   150    36    35    1
   151    76    77    2
   152    76    82   am
   153    35    32    1
   154    80    79   ar
   155    79    81   ar
   156    24    27   ar
   157    91    94    1
   158    31    32    1
   159    82    83    1
   160    32    33    1
   161    30    29   ar
   162    27    29   ar
   163    94    95    1
   164    84    83    1
   165    84    85    2
   166    83    86    1
   167    97    95   ar
   168    47    45    1
   169    95    96   ar
   170    33    37   am
   171    33    34    2
   172    55    56    1
   173    55    54    1
   174    45    46    1
   175    45    44    2
   176    44    43    1
   177    43    42    1
   178    37    38    1
   179    86    87    1
   180    53    54    1
   181    53    52    1
   182    89    87   ar
   183    87    88   ar
   184    51    50    2
   185    49    52    1
   186    49    50    1
   187    49    48    1
   188    42    41    1
   189    38    41    1
   190    38    39    1
   191    39    40    2
