@<TRIPOS>MOLECULE
tmp/4f46A00.pdb
 204 201 0 0 0
SMALL
GASTEIGER

@<TRIPOS>ATOM
      1  N       -396.4860 -931.3280   17.9520 N.3    10  PRO10      -0.2116
      2  CA      -395.4570 -930.2930   17.8880 C.3    10  PRO10       0.1372
      3  C       -396.0540 -928.8950   17.9050 C.2    10  PRO10       0.2244
      4  O       -397.1730 -928.6740   17.4230 O.2    10  PRO10      -0.2868
      5  CB      -394.7590 -930.5890   16.5600 C.3    10  PRO10       0.0268
      6  CG      -394.9150 -932.0540   16.3870 C.3    10  PRO10       0.0207
      7  CD      -396.2990 -932.3490   16.9070 C.3    10  PRO10       0.0892
      8  N       -401.0280 -932.2590  -10.0390 N.3    80  LEU80      -0.1231
      9  CA      -400.5430 -933.4850   -9.4430 C.3    80  LEU80       0.1693
     10  C       -400.9330 -933.4880   -7.9740 C.2    80  LEU80       0.2592
     11  O       -400.4280 -932.6830   -7.1750 O.2    80  LEU80      -0.2718
     12  CB      -399.0220 -933.6000   -9.5720 C.3    80  LEU80       0.0284
     13  CG      -398.4090 -934.8550   -8.9290 C.3    80  LEU80       0.0019
     14  CD1     -398.9430 -936.1460   -9.5490 C.3    80  LEU80       0.0001
     15  CD2     -396.8850 -934.8010   -9.0130 C.3    80  LEU80       0.0001
     16  N       -401.8120 -934.4130   -7.6170 N.am   81  LEU81      -0.1966
     17  CA      -402.1630 -934.6520   -6.2340 C.3    81  LEU81       0.1728
     18  C       -401.2070 -935.7190   -5.7100 C.2    81  LEU81       0.2616
     19  O       -400.5060 -936.3700   -6.4900 O.2    81  LEU81      -0.2715
     20  CB      -403.6230 -935.1160   -6.1400 C.3    81  LEU81       0.0311
     21  CG      -404.6310 -934.1110   -6.7240 C.3    81  LEU81       0.0022
     22  CD1     -406.0570 -934.6320   -6.5780 C.3    81  LEU81       0.0001
     23  CD2     -404.4890 -932.7230   -6.1070 C.3    81  LEU81       0.0001
     24  N       -401.1300 -935.8590   -4.3900 N.am   82  TRP82      -0.1960
     25  CA      -400.3140 -936.9220   -3.8050 C.3    82  TRP82       0.1771
     26  C       -400.8140 -937.3150   -2.4520 C.2    82  TRP82       0.2620
     27  O       -401.5880 -936.5930   -1.8230 O.2    82  TRP82      -0.2715
     28  CB      -398.8370 -936.5200   -3.7530 C.3    82  TRP82       0.0590
     29  CG      -398.5930 -935.2540   -2.9690 C.ar   82  TRP82       0.0006
     30  CD1     -398.5990 -933.9530   -3.4420 C.ar   82  TRP82       0.0946
     31  CD2     -398.3770 -935.1360   -1.5270 C.ar   82  TRP82       0.0152
     32  NE1     -398.3770 -933.0640   -2.4330 N.ar   82  TRP82      -0.2442
     33  CE2     -398.2360 -933.7150   -1.2470 C.ar   82  TRP82       0.0810
     34  CE3     -398.2700 -936.0370   -0.4830 C.ar   82  TRP82       0.0012
     35  CZ2     -397.9970 -933.2420    0.0310 C.ar   82  TRP82       0.0191
     36  CZ3     -398.0410 -935.5530    0.8040 C.ar   82  TRP82       0.0001
     37  CH2     -397.9190 -934.1850    1.0560 C.ar   82  TRP82       0.0015
     38  N       -400.4090 -938.4940   -2.0040 N.am   83  SER83      -0.1936
     39  CA      -400.7370 -938.9190   -0.6550 C.3    83  SER83       0.2055
     40  C       -399.5470 -939.6610   -0.0740 C.2    83  SER83       0.2642
     41  O       -399.0650 -940.6390   -0.6570 O.2    83  SER83      -0.2714
     42  CB      -402.0120 -939.7670   -0.6370 C.3    83  SER83       0.2130
     43  OG      -402.5200 -939.8900    0.6920 O.3    83  SER83      -0.2179
     44  N       -399.0490 -939.1390    1.0490 N.am   84  ARG84      -0.1977
     45  CA      -397.9820 -939.7570    1.8300 C.3    84  ARG84       0.1597
     46  C       -396.7040 -940.0470    1.0380 C.2    84  ARG84       0.2287
     47  O       -396.0010 -941.0240    1.3220 O.2    84  ARG84      -0.2864
     48  CB      -398.5120 -941.0460    2.4840 C.3    84  ARG84       0.0334
     49  CG      -399.8740 -940.8970    3.1620 C.3    84  ARG84       0.0492
     50  CD      -399.8640 -939.8650    4.2890 C.3    84  ARG84       0.2205
     51  NE      -401.1980 -939.6180    4.8510 N.pl3  84  ARG84      -0.0865
     52  CZ      -401.8210 -940.4080    5.7280 C.cat  84  ARG84       0.5346
     53  NH1     -403.0300 -940.0790    6.1700 N.pl3  84  ARG84       0.1354
     54  NH2     -401.2530 -941.5260    6.1650 N.pl3  84  ARG84       0.1354
     55  N       -394.7120 -937.0480   -0.3880 N.3    86  LYS86      -0.1245
     56  CA      -394.4430 -935.6400   -0.6640 C.3    86  LYS86       0.1561
     57  C       -393.1430 -935.3970   -1.4170 C.2    86  LYS86       0.2260
     58  O       -393.1230 -934.6320   -2.3800 O.2    86  LYS86      -0.2867
     59  CB      -394.4020 -934.8460    0.6490 C.3    86  LYS86       0.0271
     60  CG      -394.2410 -933.3460    0.4440 C.3    86  LYS86       0.0035
     61  CD      -394.9760 -932.5230    1.4980 C.3    86  LYS86       0.0206
     62  CE      -394.0860 -932.0350    2.6080 C.3    86  LYS86       0.1093
     63  NZ      -394.9330 -931.4600    3.6960 N.3    86  LYS86      -0.1314
     64  N       -400.0720 -928.7810   -4.9380 N.3   102  LEU102     -0.1231
     65  CA      -400.6270 -927.7140   -4.1090 C.3   102  LEU102      0.1693
     66  C       -399.5120 -926.8660   -3.4970 C.2   102  LEU102      0.2591
     67  O       -399.6450 -925.6480   -3.3390 O.2   102  LEU102     -0.2718
     68  CB      -401.5120 -928.3310   -3.0330 C.3   102  LEU102      0.0284
     69  CG      -402.1370 -927.3830   -2.0140 C.3   102  LEU102      0.0019
     70  CD1     -402.8960 -926.2590   -2.6960 C.3   102  LEU102      0.0001
     71  CD2     -403.0580 -928.1710   -1.1010 C.3   102  LEU102      0.0001
     72  N       -398.3840 -927.5030   -3.2080 N.am  103  GLU103     -0.1979
     73  CA      -397.2590 -926.7960   -2.5880 C.3   103  GLU103      0.1602
     74  C       -396.4540 -925.9410   -3.5770 C.2   103  GLU103      0.2287
     75  O       -395.5190 -925.2480   -3.1890 O.2   103  GLU103     -0.2864
     76  CB      -396.3580 -927.7850   -1.8360 C.3   103  GLU103      0.0415
     77  CG      -397.0960 -928.4860   -0.6920 C.3   103  GLU103      0.1163
     78  CD      -398.0350 -929.5910   -1.1740 C.2   103  GLU103      0.3649
     79  OE1     -397.7220 -930.2330   -2.1970 O.co2 103  GLU103     -0.2457
     80  OE2     -399.0780 -929.8240   -0.5290 O.co2 103  GLU103     -0.2457
     81  N       -396.1030 -925.2510    3.6240 N.3   112  ASP112     -0.1225
     82  CA      -395.5120 -926.5730    3.4900 C.3   112  ASP112      0.1805
     83  C       -394.5070 -926.8680    4.6040 C.2   112  ASP112      0.2598
     84  O       -393.5800 -926.0960    4.8490 O.2   112  ASP112     -0.2718
     85  CB      -394.8330 -926.7160    2.1250 C.3   112  ASP112      0.1424
     86  CG      -394.3650 -928.1480    1.8340 C.2   112  ASP112      0.3668
     87  OD1     -395.0040 -929.0990    2.2900 O.co2 112  ASP112     -0.2456
     88  OD2     -393.3680 -928.2970    1.1190 O.co2 112  ASP112     -0.2456
     89  N       -394.7190 -927.9880    5.2930 N.am  113  ASP113     -0.1960
     90  CA      -393.8160 -928.4480    6.3590 C.3   113  ASP113      0.1840
     91  C       -393.8760 -927.6340    7.6620 C.2   113  ASP113      0.2622
     92  O       -393.0710 -927.8890    8.5650 O.2   113  ASP113     -0.2715
     93  CB      -392.3690 -928.5130    5.8860 C.3   113  ASP113      0.1450
     94  CG      -392.1240 -929.6230    4.8860 C.2   113  ASP113      0.3671
     95  OD1     -392.7830 -930.6720    4.9870 O.co2 113  ASP113     -0.2456
     96  OD2     -391.2420 -929.4630    4.0310 O.co2 113  ASP113     -0.2456
     97  N       -394.7810 -926.6730    7.7640 N.am  114  LEU114     -0.1963
     98  CA      -394.8890 -925.8770    8.9770 C.3   114  LEU114      0.1728
     99  C       -396.0470 -926.3240    9.8500 C.2   114  LEU114      0.2616
    100  O       -397.0010 -926.9670    9.3880 O.2   114  LEU114     -0.2715
    101  CB      -395.0620 -924.4010    8.6440 C.3   114  LEU114      0.0311
    102  CG      -393.9990 -923.7980    7.7280 C.3   114  LEU114      0.0022
    103  CD1     -394.3090 -922.3130    7.5290 C.3   114  LEU114      0.0001
    104  CD2     -392.5880 -924.0010    8.2570 C.3   114  LEU114      0.0001
    105  N       -395.9520 -925.9490   11.1200 N.am  115  THR115     -0.1951
    106  CA      -397.0020 -926.1610   12.1030 C.3   115  THR115      0.1897
    107  C       -397.2510 -924.8180   12.7570 C.2   115  THR115      0.2313
    108  O       -396.3130 -924.0520   12.9230 O.2   115  THR115     -0.2863
    109  CB      -396.5500 -927.1400   13.1920 C.3   115  THR115      0.1794
    110  OG1     -396.2340 -928.3950   12.5930 O.3   115  THR115     -0.2208
    111  CG2     -397.6410 -927.3290   14.2630 C.3   115  THR115      0.0378
    112  N       -402.6230 -932.4110   18.2430 N.3   132  ASP132     -0.1225
    113  CA      -402.4750 -933.5820   17.3870 C.3   132  ASP132      0.1805
    114  C       -403.8460 -933.9220   16.8080 C.2   132  ASP132      0.2597
    115  O       -404.8220 -933.9640   17.5400 O.2   132  ASP132     -0.2718
    116  CB      -401.9620 -934.7720   18.1650 C.3   132  ASP132      0.1424
    117  CG      -401.8170 -935.9900   17.2900 C.2   132  ASP132      0.3668
    118  OD1     -400.8690 -936.0250   16.4860 O.co2 132  ASP132     -0.2456
    119  OD2     -402.6860 -936.8640   17.3510 O.co2 132  ASP132     -0.2456
    120  N       -403.9060 -934.1340   15.4950 N.am  133  TRP133     -0.1976
    121  CA      -405.1670 -934.3870   14.7890 C.3   133  TRP133      0.1640
    122  C       -405.9350 -935.5710   15.3240 C.2   133  TRP133      0.2290
    123  O       -407.1750 -935.5520   15.3700 O.2   133  TRP133     -0.2864
    124  CB      -404.8750 -934.5800   13.3020 C.3   133  TRP133      0.0576
    125  CG      -406.0830 -934.8550   12.4370 C.ar  133  TRP133      0.0006
    126  CD1     -407.0160 -933.9370   11.9520 C.ar  133  TRP133      0.0946
    127  CD2     -406.5140 -936.1560   11.8960 C.ar  133  TRP133      0.0152
    128  NE1     -407.9660 -934.5640   11.1810 N.ar  133  TRP133     -0.2442
    129  CE2     -407.7230 -935.8950   11.1080 C.ar  133  TRP133      0.0810
    130  CE3     -406.0350 -937.4550   11.9810 C.ar  133  TRP133      0.0012
    131  CZ2     -408.4040 -936.9110   10.4520 C.ar  133  TRP133      0.0191
    132  CZ3     -406.7300 -938.4730   11.3150 C.ar  133  TRP133      0.0001
    133  CH2     -407.8870 -938.2050   10.5710 C.ar  133  TRP133      0.0015
    134  N       -403.7420 -926.0960   11.5500 N.3   142  VAL142     -0.1245
    135  CA      -403.0520 -926.7320   10.4330 C.3   142  VAL142      0.1561
    136  C       -403.9800 -927.6200    9.6200 C.2   142  VAL142      0.2260
    137  O       -404.0510 -927.4950    8.3820 O.2   142  VAL142     -0.2867
    138  CB      -401.8200 -927.5370   10.9180 C.3   142  VAL142      0.0252
    139  CG1     -401.1760 -928.2810    9.7630 C.3   142  VAL142      0.0019
    140  CG2     -400.8100 -926.6240   11.5770 C.3   142  VAL142      0.0019
    141  N       -405.2150 -927.0460    5.5880 N.3   146  TRP146     -0.1241
    142  CA      -405.0210 -927.9690    4.4720 C.3   146  TRP146      0.1605
    143  C       -406.3140 -928.4570    3.8920 C.2   146  TRP146      0.2264
    144  O       -406.4330 -928.6110    2.6640 O.2   146  TRP146     -0.2867
    145  CB      -404.1060 -929.1290    4.8630 C.3   146  TRP146      0.0550
    146  CG      -402.6830 -928.6740    5.0180 C.ar  146  TRP146      0.0003
    147  CD1     -401.9290 -928.6330    6.1870 C.ar  146  TRP146      0.0946
    148  CD2     -401.7940 -928.1360    3.9700 C.ar  146  TRP146      0.0152
    149  NE1     -400.6820 -928.1350    5.9550 N.ar  146  TRP146     -0.2442
    150  CE2     -400.5310 -927.8270    4.6330 C.ar  146  TRP146      0.0810
    151  CE3     -401.9140 -927.9100    2.6000 C.ar  146  TRP146      0.0012
    152  CZ2     -399.4610 -927.2890    3.9560 C.ar  146  TRP146      0.0191
    153  CZ3     -400.8140 -927.3650    1.9240 C.ar  146  TRP146      0.0001
    154  CH2     -399.6150 -927.0870    2.5740 C.ar  146  TRP146      0.0015
    155  N       -407.0500 -927.5110    0.0580 N.3   150  SER150     -0.1217
    156  CA      -407.0860 -928.7290   -0.7580 C.3   150  SER150      0.1889
    157  C       -408.4280 -928.8990   -1.4410 C.2   150  SER150      0.2288
    158  O       -408.4890 -929.3130   -2.6080 O.2   150  SER150     -0.2866
    159  CB      -406.7450 -929.9680    0.0750 C.3   150  SER150      0.2089
    160  OG      -405.4210 -929.8610    0.5730 O.3   150  SER150     -0.2183
    161  N       -408.4150 -926.4800   -4.3650 N.3   153  PHE153     -0.1241
    162  CA      -407.4880 -926.9960   -5.3760 C.3   153  PHE153      0.1605
    163  C       -408.1230 -928.1260   -6.1700 C.2   153  PHE153      0.2264
    164  O       -408.0820 -928.1240   -7.4120 O.2   153  PHE153     -0.2867
    165  CB      -406.2080 -927.4700   -4.6830 C.3   153  PHE153      0.0534
    166  CG      -405.0230 -927.6560   -5.5980 C.ar  153  PHE153     -0.0203
    167  CD1     -404.5020 -926.5880   -6.3180 C.ar  153  PHE153     -0.0042
    168  CD2     -404.4020 -928.8910   -5.6970 C.ar  153  PHE153     -0.0042
    169  CE1     -403.3870 -926.7630   -7.1340 C.ar  153  PHE153     -0.0003
    170  CE2     -403.2960 -929.0780   -6.5110 C.ar  153  PHE153     -0.0003
    171  CZ      -402.7930 -928.0070   -7.2330 C.ar  153  PHE153     -0.0000
    172  N       -407.1080 -939.7740    4.7230 N.3   177  SER177     -0.1202
    173  CA      -406.0840 -938.7620    4.4520 C.3   177  SER177      0.2020
    174  C       -406.7270 -937.5460    3.8030 C.2   177  SER177      0.2619
    175  O       -407.8870 -937.6040    3.3980 O.2   177  SER177     -0.2717
    176  CB      -405.0380 -939.3240    3.5080 C.3   177  SER177      0.2103
    177  OG      -405.6270 -939.6820    2.2660 O.3   177  SER177     -0.2182
    178  N       -405.9770 -936.4530    3.6930 N.am  178  THR178     -0.1938
    179  CA      -406.4830 -935.2570    3.0120 C.3   178  THR178      0.2028
    180  C       -406.8360 -935.5900    1.5640 C.2   178  THR178      0.2642
    181  O       -407.9010 -935.1910    1.0920 O.2   178  THR178     -0.2714
    182  CB      -405.5020 -934.0700    3.0830 C.3   178  THR178      0.1808
    183  OG1     -405.2690 -933.7440    4.4520 O.3   178  THR178     -0.2208
    184  CG2     -406.0760 -932.8370    2.3810 C.3   178  THR178      0.0379
    185  N       -405.9750 -936.3390    0.8670 N.am  179  PHE179     -0.1973
    186  CA      -406.3070 -936.7880   -0.4840 C.3   179  PHE179      0.1639
    187  C       -407.6010 -937.5910   -0.5120 C.2   179  PHE179      0.2290
    188  O       -408.4930 -937.3030   -1.3010 O.2   179  PHE179     -0.2864
    189  CB      -405.1900 -937.6170   -1.1370 C.3   179  PHE179      0.0560
    190  CG      -405.6180 -938.2490   -2.4320 C.ar  179  PHE179     -0.0200
    191  CD1     -405.9010 -937.4540   -3.5400 C.ar  179  PHE179     -0.0042
    192  CD2     -405.8070 -939.6240   -2.5380 C.ar  179  PHE179     -0.0042
    193  CE1     -406.3390 -938.0160   -4.7190 C.ar  179  PHE179     -0.0003
    194  CE2     -406.2400 -940.1860   -3.7220 C.ar  179  PHE179     -0.0003
    195  CZ      -406.5050 -939.3800   -4.8190 C.ar  179  PHE179     -0.0000
    196  N       -409.9670 -934.3850   -1.1270 N.3   183  GLU183     -0.1245
    197  CA      -409.6820 -934.1080   -2.5340 C.3   183  GLU183      0.1567
    198  C       -410.4950 -934.9960   -3.4820 C.2   183  GLU183      0.2260
    199  O       -411.1250 -934.4980   -4.4100 O.2   183  GLU183     -0.2867
    200  CB      -408.1900 -934.2150   -2.8170 C.3   183  GLU183      0.0388
    201  CG      -407.4100 -933.1960   -2.0120 C.3   183  GLU183      0.1160
    202  CD      -406.0010 -932.9550   -2.5090 C.2   183  GLU183      0.3649
    203  OE1     -405.2430 -933.9150   -2.6210 O.co2 183  GLU183     -0.2457
    204  OE2     -405.6550 -931.7810   -2.7890 O.co2 183  GLU183     -0.2457
@<TRIPOS>BOND
     1     8     9    1
     2    12     9    1
     3    12    13    1
     4    14    13    1
     5     9    10    1
     6    15    13    1
     7    10    16   am
     8    10    11    2
     9    16    17    1
    10   164   163    2
    11   171   169   ar
    12   171   170   ar
    13   169   167   ar
    14    21    22    1
    15    21    20    1
    16    21    23    1
    17   170   168   ar
    18    19    18    2
    19   167   166   ar
    20    17    20    1
    21    17    18    1
    22   163   162    1
    23    18    24   am
    24   168   166   ar
    25   166   165    1
    26   162   165    1
    27   162   161    1
    28    64    65    1
    29   195   193   ar
    30   195   194   ar
    31   193   191   ar
    32   199   198    2
    33    24    25    1
    34    65    66    1
    35    65    68    1
    36    25    28    1
    37    25    26    1
    38    28    29    1
    39   194   192   ar
    40    74    75    2
    41    74    73    1
    42   191   190   ar
    43    66    67    2
    44    66    72   am
    45   198   197    1
    46    30    29   ar
    47    30    32   ar
    48    72    73    1
    49    68    69    1
    50    29    31   ar
    51   200   197    1
    52   200   201    1
    53   204   202   ar
    54    70    69    1
    55   203   202   ar
    56   158   157    2
    57    73    76    1
    58   192   190   ar
    59   197   196    1
    60   202   201    1
    61    26    38   am
    62    26    27    2
    63    32    33   ar
    64   190   189    1
    65    58    57    2
    66    79    78   ar
    67    69    71    1
    68    38    39    1
    69    76    77    1
    70    31    33   ar
    71    31    34   ar
    72   157   156    1
    73    57    56    1
    74   188   187    2
    75    33    35   ar
    76    78    77    1
    77    78    80   ar
    78   189   186    1
    79   156   155    1
    80   156   159    1
    81    56    55    1
    82    56    59    1
    83    41    40    2
    84    39    42    1
    85    39    40    1
    86    42    43    1
    87   187   186    1
    88   186   185    1
    89    34    36   ar
    90    40    44   am
    91    35    37   ar
    92   159   160    1
    93    60    59    1
    94    60    61    1
    95    36    37   ar
    96   185   180   am
    97    46    47    2
    98    46    45    1
    99    44    45    1
   100   181   180    2
   101    88    86   ar
   102    61    62    1
   103   180   179    1
   104    45    48    1
   105    86    85    1
   106    86    87   ar
   107   153   154   ar
   108   153   151   ar
   109    85    82    1
   110   177   176    1
   111   184   182    1
   112    48    49    1
   113   154   152   ar
   114   151   148   ar
   115    62    63    1
   116   144   143    2
   117   179   182    1
   118   179   178    1
   119   182   183    1
   120    49    50    1
   121   175   174    2
   122    82    81    1
   123    82    83    1
   124   176   173    1
   125   178   174   am
   126   174   173    1
   127   143   142    1
   128   152   150   ar
   129   148   150   ar
   130   148   146   ar
   131    96    94   ar
   132    50    51    1
   133   173   172    1
   134   142   145    1
   135   142   141    1
   136    83    84    2
   137    83    89   am
   138   150   149   ar
   139    51    52    2
   140   145   146    1
   141    94    95   ar
   142    94    93    1
   143   146   147   ar
   144    89    90    1
   145    52    54    1
   146    52    53    1
   147    93    90    1
   148   149   147   ar
   149    90    91    1
   150   103   102    1
   151    91    97   am
   152    91    92    2
   153   102   104    1
   154   102   101    1
   155    97    98    1
   156   137   136    2
   157   101    98    1
   158    98    99    1
   159   100    99    2
   160   136   135    1
   161   139   138    1
   162    99   105   am
   163   135   138    1
   164   135   134    1
   165   131   133   ar
   166   131   129   ar
   167   133   132   ar
   168   138   140    1
   169   129   128   ar
   170   129   127   ar
   171   105   106    1
   172   128   126   ar
   173   132   130   ar
   174   127   130   ar
   175   127   125   ar
   176   126   125   ar
   177   106   107    1
   178   106   109    1
   179   125   124    1
   180   110   109    1
   181   107   108    2
   182   109   111    1
   183   124   121    1
   184   121   122    1
   185   121   120    1
   186   122   123    2
   187   120   114   am
   188     6     5    1
   189     6     7    1
   190   118   117   ar
   191     5     2    1
   192   114   113    1
   193   114   115    2
   194     7     1    1
   195   117   119   ar
   196   117   116    1
   197   113   116    1
   198   113   112    1
   199     4     3    2
   200     2     3    1
   201     2     1    1
