@<TRIPOS>MOLECULE
tmp/4f46B00.pdb
 142 139 0 0 0
SMALL
GASTEIGER

@<TRIPOS>ATOM
      1  N       -428.6900 -933.8950   27.6260 N.3    79  LEU79      -0.1231
      2  CA      -428.0720 -933.3950   28.8510 C.3    79  LEU79       0.1693
      3  C       -426.6470 -933.9200   28.9060 C.2    79  LEU79       0.2592
      4  O       -426.4240 -935.1180   29.0680 O.2    79  LEU79      -0.2718
      5  CB      -428.8250 -933.8690   30.0810 C.3    79  LEU79       0.0284
      6  CG      -428.2820 -933.4120   31.4400 C.3    79  LEU79       0.0019
      7  CD1     -428.3230 -931.8840   31.5220 C.3    79  LEU79       0.0001
      8  CD2     -429.0160 -934.0410   32.6200 C.3    79  LEU79       0.0001
      9  N       -425.7010 -933.0020   28.8110 N.am   80  LEU80      -0.1966
     10  CA      -424.3030 -933.3020   29.0540 C.3    80  LEU80       0.1728
     11  C       -424.0530 -933.0460   30.5430 C.2    80  LEU80       0.2616
     12  O       -424.8680 -932.4070   31.2210 O.2    80  LEU80      -0.2715
     13  CB      -423.4220 -932.3780   28.2220 C.3    80  LEU80       0.0311
     14  CG      -423.7290 -932.4280   26.7230 C.3    80  LEU80       0.0022
     15  CD1     -422.8950 -931.3970   25.9740 C.3    80  LEU80       0.0001
     16  CD2     -423.5680 -933.8320   26.1550 C.3    80  LEU80       0.0001
     17  N       -422.9270 -933.5230   31.0360 N.am   81  TRP81      -0.1960
     18  CA      -422.6120 -933.3360   32.4480 C.3    81  TRP81       0.1771
     19  C       -421.1310 -933.4680   32.6650 C.2    81  TRP81       0.2620
     20  O       -420.4210 -934.0460   31.8390 O.2    81  TRP81      -0.2715
     21  CB      -423.3940 -934.3450   33.3050 C.3    81  TRP81       0.0590
     22  CG      -423.0910 -935.7840   32.9800 C.ar   81  TRP81       0.0006
     23  CD1     -423.7810 -936.6250   32.1080 C.ar   81  TRP81       0.0946
     24  CD2     -421.9920 -936.5890   33.4890 C.ar   81  TRP81       0.0152
     25  NE1     -423.2080 -937.8550   32.0640 N.ar   81  TRP81      -0.2442
     26  CE2     -422.1320 -937.9070   32.8730 C.ar   81  TRP81       0.0810
     27  CE3     -420.9590 -936.3730   34.4000 C.ar   81  TRP81       0.0012
     28  CZ2     -421.2460 -938.9280   33.1290 C.ar   81  TRP81       0.0191
     29  CZ3     -420.0720 -937.4090   34.6460 C.ar   81  TRP81       0.0001
     30  CH2     -420.2160 -938.6640   34.0350 C.ar   81  TRP81       0.0015
     31  N       -420.6610 -932.9360   33.7850 N.am   82  SER82      -0.1936
     32  CA      -419.2510 -933.0530   34.1330 C.3    82  SER82       0.2055
     33  C       -419.1370 -933.1170   35.6500 C.2    82  SER82       0.2642
     34  O       -419.6380 -932.2400   36.3550 O.2    82  SER82      -0.2714
     35  CB      -418.4570 -931.8870   33.5190 C.3    82  SER82       0.2130
     36  OG      -417.0510 -932.1380   33.4870 O.3    82  SER82      -0.2179
     37  N       -418.5420 -934.2020   36.1420 N.am   83  ARG83      -0.1977
     38  CA      -418.2480 -934.3740   37.5630 C.3    83  ARG83       0.1597
     39  C       -419.4760 -934.3570   38.4740 C.2    83  ARG83       0.2287
     40  O       -419.3740 -934.0140   39.6540 O.2    83  ARG83      -0.2864
     41  CB      -417.2280 -933.3170   38.0270 C.3    83  ARG83       0.0334
     42  CG      -415.8010 -933.5650   37.5610 C.3    83  ARG83       0.0492
     43  CD      -415.5740 -933.1710   36.1080 C.3    83  ARG83       0.2205
     44  NE      -414.2330 -933.5300   35.6270 N.pl3  83  ARG83      -0.0865
     45  CZ      -413.1170 -932.8390   35.8560 C.cat  83  ARG83       0.5346
     46  NH1     -411.9610 -933.2660   35.3500 N.pl3  83  ARG83       0.1354
     47  NH2     -413.1350 -931.7280   36.5850 N.pl3  83  ARG83       0.1354
     48  N       -422.1800 -937.0160   37.9830 N.3    85  LYS85      -0.1245
     49  CA      -422.7990 -938.1540   37.3350 C.3    85  LYS85       0.1561
     50  C       -424.1150 -938.5790   37.9910 C.2    85  LYS85       0.2260
     51  O       -425.1160 -938.7610   37.3110 O.2    85  LYS85      -0.2867
     52  CB      -421.8210 -939.3280   37.3710 C.3    85  LYS85       0.0271
     53  CG      -422.2800 -940.5440   36.5920 C.3    85  LYS85       0.0035
     54  CD      -421.1410 -941.5280   36.4110 C.3    85  LYS85       0.0206
     55  CE      -421.6550 -942.8960   36.0000 C.3    85  LYS85       0.1093
     56  NZ      -420.5810 -943.7030   35.3650 N.3    85  LYS85      -0.1314
     57  N       -425.6500 -939.3640   27.7420 N.3   101  LEU101     -0.1231
     58  CA      -424.9730 -940.3390   26.9140 C.3   101  LEU101      0.1693
     59  C       -425.2300 -941.7610   27.4260 C.2   101  LEU101      0.2591
     60  O       -425.3780 -942.6930   26.6550 O.2   101  LEU101     -0.2718
     61  CB      -423.4710 -940.0230   26.8960 C.3   101  LEU101      0.0284
     62  CG      -422.5560 -941.0110   26.1830 C.3   101  LEU101      0.0019
     63  CD1     -422.9860 -941.2540   24.7490 C.3   101  LEU101      0.0001
     64  CD2     -421.1170 -940.5090   26.2290 C.3   101  LEU101      0.0001
     65  N       -425.3100 -941.9040   28.7490 N.am  102  GLU102     -0.1979
     66  CA      -425.4380 -943.2040   29.3790 C.3   102  GLU102      0.1602
     67  C       -426.8650 -943.7520   29.2490 C.2   102  GLU102      0.2287
     68  O       -427.1340 -944.8890   29.6220 O.2   102  GLU102     -0.2864
     69  CB      -425.0000 -943.1090   30.8400 C.3   102  GLU102      0.0415
     70  CG      -423.5200 -942.7890   31.0110 C.3   102  GLU102      0.1163
     71  CD      -423.1680 -941.3180   30.8000 C.2   102  GLU102      0.3649
     72  OE1     -424.0310 -940.4360   30.9930 O.co2 102  GLU102     -0.2457
     73  OE2     -421.9950 -941.0210   30.4610 O.co2 102  GLU102     -0.2457
     74  N       -421.2830 -948.0960   30.6110 N.3   111  ASP111     -0.1225
     75  CA      -421.2880 -947.2680   31.8210 C.3   111  ASP111      0.1805
     76  C       -420.6800 -948.0250   33.0010 C.2   111  ASP111      0.2597
     77  O       -421.1170 -949.1360   33.3140 O.2   111  ASP111     -0.2718
     78  CB      -422.7190 -946.8290   32.1640 C.3   111  ASP111      0.1424
     79  CG      -422.7690 -945.7170   33.2040 C.2   111  ASP111      0.3668
     80  OD1     -421.7780 -944.9740   33.3670 O.co2 111  ASP111     -0.2456
     81  OD2     -423.8180 -945.5860   33.8660 O.co2 111  ASP111     -0.2456
     82  N       -419.6580 -947.4280   33.6250 N.am  112  ASP112     -0.1974
     83  CA      -419.0150 -947.9630   34.8360 C.3   112  ASP112      0.1709
     84  C       -418.1640 -949.2190   34.6350 C.2   112  ASP112      0.2293
     85  O       -417.7400 -949.8310   35.6210 O.2   112  ASP112     -0.2864
     86  CB      -420.0540 -948.2090   35.9440 C.3   112  ASP112      0.1436
     87  CG      -420.6890 -946.9260   36.4490 C.2   112  ASP112      0.3671
     88  OD1     -419.9780 -945.9010   36.5540 O.co2 112  ASP112     -0.2456
     89  OD2     -421.8960 -946.9470   36.7680 O.co2 112  ASP112     -0.2456
     90  N       -414.9100 -943.7940   25.0700 N.3   145  TRP145     -0.1241
     91  CA      -415.6650 -942.6390   25.5570 C.3   145  TRP145      0.1605
     92  C       -415.4600 -941.3990   24.7410 C.2   145  TRP145      0.2264
     93  O       -416.4100 -940.6510   24.5040 O.2   145  TRP145     -0.2867
     94  CB      -415.4180 -942.3800   27.0410 C.3   145  TRP145      0.0550
     95  CG      -416.0720 -943.4380   27.8940 C.ar  145  TRP145      0.0003
     96  CD1     -415.4580 -944.4080   28.6690 C.ar  145  TRP145      0.0946
     97  CD2     -417.5070 -943.6830   28.0380 C.ar  145  TRP145      0.0152
     98  NE1     -416.3840 -945.2090   29.2840 N.ar  145  TRP145     -0.2442
     99  CE2     -417.6410 -944.8140   28.9530 C.ar  145  TRP145      0.0810
    100  CE3     -418.6580 -943.0710   27.5410 C.ar  145  TRP145      0.0012
    101  CZ2     -418.8740 -945.3170   29.3160 C.ar  145  TRP145      0.0191
    102  CZ3     -419.8920 -943.5860   27.9120 C.ar  145  TRP145      0.0001
    103  CH2     -420.0010 -944.6730   28.7880 C.ar  145  TRP145      0.0015
    104  N       -418.6650 -939.8840   22.8670 N.3   149  SER149     -0.1217
    105  CA      -418.9780 -938.5360   23.3400 C.3   149  SER149      0.1889
    106  C       -418.9590 -937.5420   22.1920 C.2   149  SER149      0.2288
    107  O       -419.7930 -936.6360   22.1270 O.2   149  SER149     -0.2866
    108  CB      -418.0070 -938.0830   24.4250 C.3   149  SER149      0.2089
    109  OG      -418.1890 -938.8660   25.5990 O.3   149  SER149     -0.2183
    110  N       -411.6650 -931.9890   31.0770 N.3   176  SER176     -0.1202
    111  CA      -412.6770 -933.0400   31.1910 C.3   176  SER176      0.2020
    112  C       -413.1490 -933.4700   29.8050 C.2   176  SER176      0.2619
    113  O       -412.8970 -932.7650   28.8250 O.2   176  SER176     -0.2717
    114  CB      -413.8740 -932.5340   31.9940 C.3   176  SER176      0.2103
    115  OG      -414.5570 -931.4700   31.3350 O.3   176  SER176     -0.2182
    116  N       -413.8420 -934.6040   29.7220 N.am  177  THR177     -0.1938
    117  CA      -414.4580 -935.0170   28.4450 C.3   177  THR177      0.2028
    118  C       -415.4440 -933.9730   27.9370 C.2   177  THR177      0.2642
    119  O       -415.4700 -933.6690   26.7330 O.2   177  THR177     -0.2714
    120  CB      -415.1840 -936.3650   28.5490 C.3   177  THR177      0.1808
    121  OG1     -414.2520 -937.3860   28.9260 O.3   177  THR177     -0.2208
    122  CG2     -415.8190 -936.7240   27.2060 C.3   177  THR177      0.0379
    123  N       -416.2600 -933.4150   28.8320 N.am  178  PHE178     -0.1973
    124  CA      -417.1270 -932.3160   28.4360 C.3   178  PHE178      0.1639
    125  C       -416.3200 -931.1710   27.8300 C.2   178  PHE178      0.2290
    126  O       -416.6350 -930.6910   26.7370 O.2   178  PHE178     -0.2864
    127  CB      -417.9650 -931.7750   29.5950 C.3   178  PHE178      0.0560
    128  CG      -418.6890 -930.5080   29.2560 C.ar  178  PHE178     -0.0200
    129  CD1     -419.7130 -930.5100   28.3170 C.ar  178  PHE178     -0.0042
    130  CD2     -418.3640 -929.3070   29.8710 C.ar  178  PHE178     -0.0042
    131  CE1     -420.3570 -929.3480   27.9820 C.ar  178  PHE178     -0.0003
    132  CE2     -419.0200 -928.1420   29.5440 C.ar  178  PHE178     -0.0003
    133  CZ      -420.0110 -928.1560   28.5840 C.ar  178  PHE178     -0.0000
    134  N       -416.6240 -932.5890   24.1270 N.3   182  GLU182     -0.1245
    135  CA      -418.0060 -932.2490   23.8100 C.3   182  GLU182      0.1567
    136  C       -418.2160 -930.7920   23.3890 C.2   182  GLU182      0.2260
    137  O       -418.8770 -930.5470   22.3940 O.2   182  GLU182     -0.2867
    138  CB      -418.9340 -932.6790   24.9440 C.3   182  GLU182      0.0388
    139  CG      -418.9280 -934.1820   25.1060 C.3   182  GLU182      0.1160
    140  CD      -419.8270 -934.6870   26.2170 C.2   182  GLU182      0.3649
    141  OE1     -420.0290 -933.9700   27.2020 O.co2 182  GLU182     -0.2457
    142  OE2     -420.3180 -935.8250   26.1020 O.co2 182  GLU182     -0.2457
@<TRIPOS>BOND
     1   107   106    2
     2   106   105    1
     3   137   136    2
     4   104   105    1
     5   105   108    1
     6   136   135    1
     7   135   134    1
     8   135   138    1
     9   108   109    1
    10    93    92    2
    11    92    91    1
    12    63    62    1
    13   138   139    1
    14    90    91    1
    15   139   140    1
    16    91    94    1
    17    15    14    1
    18   142   140   ar
    19    16    14    1
    20    62    64    1
    21    62    61    1
    22   140   141   ar
    23    60    59    2
    24    14    13    1
    25   119   118    2
    26   126   125    2
    27    61    58    1
    28    58    59    1
    29    58    57    1
    30    94    95    1
    31   122   120    1
    32    59    65   am
    33   100   102   ar
    34   100    97   ar
    35     1     2    1
    36   125   124    1
    37    95    97   ar
    38    95    96   ar
    39   102   103   ar
    40   118   117    1
    41   118   123   am
    42   131   129   ar
    43   131   133   ar
    44    97    99   ar
    45    13    10    1
    46   129   128   ar
    47   124   123    1
    48   124   127    1
    49   117   120    1
    50   117   116    1
    51   120   121    1
    52   133   132   ar
    53    96    98   ar
    54    65    66    1
    55   103   101   ar
    56     9     3   am
    57     9    10    1
    58   113   112    2
    59     2     3    1
    60     2     5    1
    61     3     4    2
    62    99    98   ar
    63    99   101   ar
    64    10    11    1
    65    67    66    1
    66    67    68    2
    67   128   127    1
    68   128   130   ar
    69    66    69    1
    70   132   130   ar
    71   116   112   am
    72   112   111    1
    73     5     6    1
    74    73    71   ar
    75    11    17   am
    76    11    12    2
    77    74    75    1
    78    71    72   ar
    79    71    70    1
    80    69    70    1
    81    17    18    1
    82   110   111    1
    83   111   114    1
    84   115   114    1
    85     6     7    1
    86     6     8    1
    87    75    78    1
    88    75    76    1
    89    20    19    2
    90    25    23   ar
    91    25    26   ar
    92    23    22   ar
    93    78    79    1
    94    18    19    1
    95    18    21    1
    96    19    31   am
    97    26    28   ar
    98    26    24   ar
    99    22    21    1
   100    22    24   ar
   101    76    77    2
   102    76    82   am
   103    28    30   ar
   104    79    80   ar
   105    79    81   ar
   106    36    35    1
   107    24    27   ar
   108    35    32    1
   109    82    83    1
   110    31    32    1
   111    30    29   ar
   112    32    33    1
   113    27    29   ar
   114    84    83    1
   115    84    85    2
   116    83    86    1
   117    46    45    1
   118    56    55    1
   119    44    45    2
   120    44    43    1
   121    33    37   am
   122    33    34    2
   123    45    47    1
   124    86    87    1
   125    55    54    1
   126    43    42    1
   127    37    38    1
   128    54    53    1
   129    87    88   ar
   130    87    89   ar
   131    53    52    1
   132    51    50    2
   133    49    52    1
   134    49    48    1
   135    49    50    1
   136    42    41    1
   137    38    41    1
   138    38    39    1
   139    39    40    2
