@<TRIPOS>MOLECULE
tmp/4f49D00.pdb
 157 155 0 0 0
SMALL
GASTEIGER

@<TRIPOS>ATOM
      1  N         52.8040  -51.7060   15.6120 N.3    28  LEU28      -0.1245
      2  CA        52.6950  -50.2870   15.2860 C.3    28  LEU28       0.1561
      3  C         53.6830  -49.8370   14.1960 C.2    28  LEU28       0.2260
      4  O         54.1110  -50.6360   13.3750 O.2    28  LEU28      -0.2867
      5  CB        52.7840  -49.4250   16.5520 C.3    28  LEU28       0.0270
      6  CG        53.8720  -49.6780   17.5870 C.3    28  LEU28       0.0019
      7  CD1       55.2670  -49.5200   17.0000 C.3    28  LEU28       0.0001
      8  CD2       53.6400  -48.7120   18.7480 C.3    28  LEU28       0.0001
      9  N         55.6050  -48.0350   23.7790 N.3    42  HIS42      -0.1241
     10  CA        54.5500  -48.9060   24.2790 C.3    42  HIS42       0.1621
     11  C         54.3820  -50.1680   23.4350 C.2    42  HIS42       0.2264
     12  O         53.6320  -51.0640   23.8160 O.2    42  HIS42      -0.2867
     13  CB        53.2200  -48.1660   24.5120 C.3    42  HIS42       0.0745
     14  CG        52.5610  -47.6560   23.2720 C.ar   42  HIS42       0.0817
     15  ND1       52.4120  -46.3100   23.0120 N.ar   42  HIS42      -0.2268
     16  CD2       51.9510  -48.3070   22.2550 C.ar   42  HIS42       0.1154
     17  CE1       51.7650  -46.1550   21.8710 C.ar   42  HIS42       0.1986
     18  NE2       51.4710  -47.3520   21.3920 N.ar   42  HIS42      -0.2212
     19  N         48.5480  -53.4480   27.0940 N.3    48  THR48      -0.1218
     20  CA        48.4310  -52.0010   26.9470 C.3    48  THR48       0.1862
     21  C         47.0450  -51.4600   27.3250 C.2    48  THR48       0.2287
     22  O         46.7280  -50.3150   27.0140 O.2    48  THR48      -0.2866
     23  CB        48.7590  -51.5500   25.4950 C.3    48  THR48       0.1770
     24  OG1       48.1300  -52.4310   24.5530 O.3    48  THR48      -0.2211
     25  CG2       50.2490  -51.5500   25.2560 C.3    48  THR48       0.0375
     26  N         51.2800  -49.4650   32.6070 N.3    52  ILE52      -0.1245
     27  CA        52.5130  -50.1400   32.2320 C.3    52  ILE52       0.1561
     28  C         53.6490  -49.6860   33.1400 C.2    52  ILE52       0.2260
     29  O         53.7970  -48.4870   33.3890 O.2    52  ILE52      -0.2867
     30  CB        52.9120  -49.7980   30.7750 C.3    52  ILE52       0.0252
     31  CG1       51.6980  -49.9110   29.8500 C.3    52  ILE52       0.0019
     32  CG2       54.0130  -50.7130   30.2960 C.3    52  ILE52       0.0019
     33  CD1       51.9900  -49.5890   28.4050 C.3    52  ILE52       0.0001
     34  N         43.5880  -39.9040   14.2890 N.3   139  PHE139     -0.1227
     35  CA        44.2700  -41.1890   14.3680 C.3   139  PHE139      0.1736
     36  C         43.3170  -42.2540   14.9250 C.2   139  PHE139      0.2595
     37  O         42.5100  -41.9830   15.8260 O.2   139  PHE139     -0.2718
     38  CB        45.5050  -41.0940   15.2760 C.3   139  PHE139      0.0547
     39  CG        46.5840  -40.1640   14.7720 C.ar  139  PHE139     -0.0202
     40  CD1       47.3740  -40.5100   13.6750 C.ar  139  PHE139     -0.0042
     41  CD2       46.8170  -38.9520   15.4030 C.ar  139  PHE139     -0.0042
     42  CE1       48.3530  -39.6660   13.2250 C.ar  139  PHE139     -0.0003
     43  CE2       47.8080  -38.1070   14.9620 C.ar  139  PHE139     -0.0003
     44  CZ        48.5830  -38.4610   13.8730 C.ar  139  PHE139     -0.0000
     45  N         43.4000  -43.4630   14.3850 N.am  140  ILE140     -0.1966
     46  CA        42.5770  -44.5590   14.8830 C.3   140  ILE140      0.1727
     47  C         43.5240  -45.6770   15.3090 C.2   140  ILE140      0.2616
     48  O         44.7420  -45.4920   15.3110 O.2   140  ILE140     -0.2715
     49  CB        41.5550  -45.0560   13.8260 C.3   140  ILE140      0.0290
     50  CG1       42.2630  -45.5230   12.5490 C.3   140  ILE140      0.0022
     51  CG2       40.5530  -43.9520   13.4900 C.3   140  ILE140      0.0023
     52  CD1       41.3430  -45.6650   11.3440 C.3   140  ILE140      0.0001
     53  N         42.9750  -46.8260   15.6750 N.am  141  ALA141     -0.1963
     54  CA        43.8000  -47.9580   16.0830 C.3   141  ALA141      0.1728
     55  C         44.8130  -48.2920   14.9920 C.2   141  ALA141      0.2617
     56  O         44.5630  -48.0600   13.8100 O.2   141  ALA141     -0.2715
     57  CB        42.9130  -49.1720   16.3950 C.3   141  ALA141      0.0334
     58  N         45.9690  -48.8080   15.3950 N.am  142  GLY142     -0.1940
     59  CA        47.0110  -49.1690   14.4550 C.3   142  GLY142      0.2014
     60  C         47.8530  -48.0280   13.8840 C.2   142  GLY142      0.2640
     61  O         48.7300  -48.2560   13.0570 O.2   142  GLY142     -0.2714
     62  N         47.6150  -46.7990   14.3160 N.am  143  THR143     -0.1936
     63  CA        48.3120  -45.6670   13.7170 C.3   143  THR143      0.2028
     64  C         49.4710  -45.1600   14.5480 C.2   143  THR143      0.2642
     65  O         50.1300  -44.2170   14.1470 O.2   143  THR143     -0.2714
     66  CB        47.3760  -44.4690   13.4620 C.3   143  THR143      0.1808
     67  OG1       46.8080  -44.0120   14.7060 O.3   143  THR143     -0.2208
     68  CG2       46.2760  -44.8520   12.4830 C.3   143  THR143      0.0379
     69  N         49.7070  -45.7450   15.7130 N.am  144  CYS144     -0.1967
     70  CA        50.8400  -45.3030   16.5250 C.3   144  CYS144      0.1712
     71  C         52.1380  -45.4070   15.7340 C.2   144  CYS144      0.2296
     72  O         52.3030  -46.3000   14.9200 O.2   144  CYS144     -0.2864
     73  CB        50.9360  -46.0920   17.8190 C.3   144  CYS144      0.0983
     74  SG        49.8740  -45.4260   19.1030 S.3   144  CYS144     -0.0798
     75  N         53.4040  -40.3850   16.5530 N.3   162  HIS162     -0.1226
     76  CA        52.1280  -40.5360   17.2320 C.3   162  HIS162      0.1752
     77  C         52.0610  -41.6060   18.3170 C.2   162  HIS162      0.2596
     78  O         52.5450  -42.7440   18.1300 O.2   162  HIS162     -0.2718
     79  CB        51.0510  -40.8450   16.2240 C.3   162  HIS162      0.0759
     80  CG        49.7120  -40.9680   16.8540 C.ar  162  HIS162      0.0818
     81  ND1       49.1620  -39.9590   17.6090 N.ar  162  HIS162     -0.2268
     82  CD2       48.8360  -41.9920   16.8890 C.ar  162  HIS162      0.1154
     83  CE1       47.9910  -40.3510   18.0680 C.ar  162  HIS162      0.1986
     84  NE2       47.7740  -41.5820   17.6460 N.ar  162  HIS162     -0.2212
     85  N         51.4120  -41.2520   19.4280 N.am  163  HIS163     -0.1961
     86  CA        51.3640  -42.1400   20.6030 C.3   163  HIS163      0.1787
     87  C         49.9730  -42.5240   21.1060 C.2   163  HIS163      0.2620
     88  O         49.7420  -43.6970   21.4170 O.2   163  HIS163     -0.2715
     89  CB        52.1280  -41.5370   21.7860 C.3   163  HIS163      0.0785
     90  CG        53.6100  -41.6270   21.6500 C.ar  163  HIS163      0.0821
     91  ND1       54.3730  -42.5210   22.3720 N.ar  163  HIS163     -0.2267
     92  CD2       54.4760  -40.9290   20.8800 C.ar  163  HIS163      0.1154
     93  CE1       55.6440  -42.3730   22.0460 C.ar  163  HIS163      0.1986
     94  NE2       55.7350  -41.4080   21.1470 N.ar  163  HIS163     -0.2212
     95  N         49.0630  -41.5540   21.2340 N.am  164  LEU164     -0.1963
     96  CA        47.8050  -41.8360   21.9130 C.3   164  LEU164      0.1728
     97  C         46.6930  -40.8360   21.6700 C.2   164  LEU164      0.2616
     98  O         46.9080  -39.7430   21.1270 O.2   164  LEU164     -0.2715
     99  CB        48.0580  -41.9400   23.4210 C.3   164  LEU164      0.0311
    100  CG        48.3960  -40.6490   24.1630 C.3   164  LEU164      0.0022
    101  CD1       47.1400  -39.8820   24.5370 C.3   164  LEU164      0.0001
    102  CD2       49.1790  -40.9730   25.4010 C.3   164  LEU164      0.0001
    103  N         45.4930  -41.2150   22.1050 N.am  165  GLU165     -0.1963
    104  CA        44.3380  -40.3480   21.9670 C.3   165  GLU165      0.1733
    105  C         43.7750  -39.9930   23.3360 C.2   165  GLU165      0.2616
    106  O         43.6200  -40.8560   24.1960 O.2   165  GLU165     -0.2715
    107  CB        43.2710  -41.0100   21.0870 C.3   165  GLU165      0.0429
    108  CG        42.0460  -40.1270   20.8220 C.3   165  GLU165      0.1163
    109  CD        41.0290  -40.8030   19.9150 C.2   165  GLU165      0.3649
    110  OE1       41.4380  -41.4950   18.9640 O.co2 165  GLU165     -0.2457
    111  OE2       39.8140  -40.6500   20.1590 O.co2 165  GLU165     -0.2457
    112  N         43.4650  -38.7220   23.5430 N.am  166  LEU166     -0.1963
    113  CA        42.7840  -38.3080   24.7780 C.3   166  LEU166      0.1728
    114  C         41.2760  -38.5980   24.7040 C.2   166  LEU166      0.2616
    115  O         40.7330  -38.8970   23.6330 O.2   166  LEU166     -0.2715
    116  CB        43.0260  -36.8210   25.0560 C.3   166  LEU166      0.0311
    117  CG        44.5020  -36.4050   25.0050 C.3   166  LEU166      0.0022
    118  CD1       44.6320  -34.8980   25.0030 C.3   166  LEU166      0.0001
    119  CD2       45.2510  -36.9880   26.1710 C.3   166  LEU166      0.0001
    120  N         40.6050  -38.5100   25.8470 N.am  167  GLY167     -0.1955
    121  CA        39.1790  -38.7910   25.9170 C.3   167  GLY167      0.1869
    122  C         38.3290  -37.8980   25.0260 C.2   167  GLY167      0.2309
    123  O         37.2040  -38.2490   24.6680 O.2   167  GLY167     -0.2863
    124  N         44.7440  -35.6810   19.9430 N.3   171  HIS171     -0.1241
    125  CA        45.8420  -36.5850   19.7700 C.3   171  HIS171      0.1621
    126  C         47.1560  -36.0430   20.3000 C.2   171  HIS171      0.2264
    127  O         47.4450  -34.8520   20.2600 O.2   171  HIS171     -0.2867
    128  CB        45.9070  -37.0180   18.3110 C.3   171  HIS171      0.0745
    129  CG        44.7430  -37.8710   17.9080 C.ar  171  HIS171      0.0817
    130  ND1       43.6700  -37.3890   17.1840 N.ar  171  HIS171     -0.2268
    131  CD2       44.4670  -39.1740   18.1560 C.ar  171  HIS171      0.1154
    132  CE1       42.8000  -38.3610   16.9900 C.ar  171  HIS171      0.1986
    133  NE2       43.2570  -39.4570   17.5740 N.ar  171  HIS171     -0.2212
    134  N         52.7250  -41.5470   28.4900 N.3   186  ASP186     -0.1225
    135  CA        52.2830  -42.6380   27.6400 C.3   186  ASP186      0.1805
    136  C         51.6930  -43.8070   28.4550 C.2   186  ASP186      0.2598
    137  O         52.2950  -44.8670   28.6000 O.2   186  ASP186     -0.2718
    138  CB        53.4120  -43.0790   26.6980 C.3   186  ASP186      0.1424
    139  CG        54.6950  -43.4700   27.4320 C.2   186  ASP186      0.3668
    140  OD1       54.8240  -43.2210   28.6550 O.co2 186  ASP186     -0.2456
    141  OD2       55.5890  -44.0230   26.7560 O.co2 186  ASP186     -0.2456
    142  N         50.4940  -43.5850   28.9760 N.am  187  GLN187     -0.1966
    143  CA        49.7570  -44.5980   29.7130 C.3   187  GLN187      0.1718
    144  C         48.3580  -44.6720   29.1390 C.2   187  GLN187      0.2458
    145  O         47.8680  -43.6910   28.5820 O.2   187  GLN187     -0.2730
    146  CB        49.6870  -44.2170   31.1820 C.3   187  GLN187      0.0407
    147  CG        51.0250  -44.2960   31.8720 C.3   187  GLN187      0.0908
    148  CD        51.4750  -45.7270   32.0680 C.2   187  GLN187      0.2608
    149  OE1       50.6600  -46.6520   32.0760 O.2   187  GLN187     -0.2717
    150  NE2       52.7760  -45.9190   32.2320 N.am  187  GLN187     -0.0878
    151  N         47.7070  -45.8370   29.2510 N.am  188  PRO188     -0.2727
    152  CA        46.3780  -45.8990   28.6300 C.3   188  PRO188      0.1402
    153  C         45.3260  -45.1440   29.4360 C.2   188  PRO188      0.2269
    154  O         44.2620  -44.7960   28.8870 O.2   188  PRO188     -0.2865
    155  CB        46.0760  -47.3990   28.5770 C.3   188  PRO188      0.0296
    156  CG        46.9440  -48.0070   29.6260 C.3   188  PRO188      0.0237
    157  CD        48.1820  -47.1560   29.7040 C.3   188  PRO188      0.0939
@<TRIPOS>BOND
     1    52    50    1
     2    68    66    1
     3    50    49    1
     4    61    60    2
     5    42    40   ar
     6    42    44   ar
     7     4     3    2
     8    66    63    1
     9    66    67    1
    10    51    49    1
    11    40    39   ar
    12    63    62    1
    13    63    64    1
    14    56    55    2
    15    49    46    1
    16    44    43   ar
    17    60    62   am
    18    60    59    1
    19    65    64    2
    20     3     2    1
    21    34    35    1
    22    35    36    1
    23    35    38    1
    24    45    46    1
    25    45    36   am
    26    59    58    1
    27    64    69   am
    28    39    38    1
    29    39    41   ar
    30    46    47    1
    31    72    71    2
    32    36    37    2
    33    43    41   ar
    34    55    58   am
    35    55    54    1
    36     2     1    1
    37     2     5    1
    38    47    48    2
    39    47    53   am
    40    53    54    1
    41    69    70    1
    42    71    70    1
    43    54    57    1
    44    79    80    1
    45    79    76    1
    46    70    73    1
    47     5     6    1
    48    75    76    1
    49    80    82   ar
    50    80    81   ar
    51    82    84   ar
    52   132   130   ar
    53   132   133   ar
    54     7     6    1
    55   130   129   ar
    56    76    77    1
    57   133   131   ar
    58     6     8    1
    59    81    83   ar
    60    84    83   ar
    61    73    74    1
    62   129   131   ar
    63   129   128    1
    64    78    77    2
    65   128   125    1
    66    77    85   am
    67   110   109   ar
    68    85    86    1
    69   125   124    1
    70   125   126    1
    71   109   111   ar
    72   109   108    1
    73   127   126    2
    74    86    87    1
    75    86    89    1
    76   108   107    1
    77    92    94   ar
    78    92    90   ar
    79   107   104    1
    80    87    95   am
    81    87    88    2
    82    98    97    2
    83    94    93   ar
    84    95    96    1
    85    18    17   ar
    86    18    16   ar
    87    90    89    1
    88    90    91   ar
    89    97    96    1
    90    97   103   am
    91    17    15   ar
    92    96    99    1
    93   104   103    1
    94   104   105    1
    95    93    91   ar
    96    16    14   ar
    97    15    14   ar
    98    14    13    1
    99   105   112   am
   100   105   106    2
   101    99   100    1
   102    11    12    2
   103    11    10    1
   104   112   113    1
   105   115   114    2
   106     9    10    1
   107   100   101    1
   108   100   102    1
   109    10    13    1
   110    24    23    1
   111   123   122    2
   112   114   113    1
   113   114   120   am
   114   113   116    1
   115   118   117    1
   116   117   116    1
   117   117   119    1
   118   122   121    1
   119    25    23    1
   120    23    20    1
   121   120   121    1
   122   138   139    1
   123   138   135    1
   124   141   139   ar
   125    20    19    1
   126    20    21    1
   127    22    21    2
   128   139   140   ar
   129   135   136    1
   130   135   134    1
   131    33    31    1
   132   136   137    2
   133   136   142   am
   134   155   152    1
   135   155   156    1
   136   145   144    2
   137   152   151    1
   138   152   153    1
   139   154   153    2
   140   142   143    1
   141   144   151   am
   142   144   143    1
   143   151   157    1
   144   156   157    1
   145   143   146    1
   146    31    30    1
   147    32    30    1
   148    30    27    1
   149   146   147    1
   150   147   148    1
   151   148   149    2
   152   148   150   am
   153    27    26    1
   154    27    28    1
   155    28    29    2
