@<TRIPOS>MOLECULE
tmp/4f4fB00.pdb
 152 147 0 0 0
SMALL
GASTEIGER

@<TRIPOS>ATOM
      1  N         34.1540   47.2030   47.7380 N.3   111  ALA111     -0.1231
      2  CA        33.2850   46.3150   46.9500 C.3   111  ALA111      0.1694
      3  C         33.9980   45.0150   46.6200 C.2   111  ALA111      0.2592
      4  O         35.2430   44.9500   46.6030 O.2   111  ALA111     -0.2718
      5  CB        32.7710   47.0050   45.6990 C.3   111  ALA111      0.0304
      6  N         33.1940   43.9780   46.3960 N.am  112  PHE112     -0.1962
      7  CA        33.7100   42.6200   46.3660 C.3   112  PHE112      0.1771
      8  C         34.6540   42.3400   45.2100 C.2   112  PHE112      0.2619
      9  O         35.4710   41.4440   45.3460 O.2   112  PHE112     -0.2715
     10  CB        32.5900   41.5830   46.3830 C.3   112  PHE112      0.0574
     11  CG        32.1050   41.2000   45.0400 C.ar  112  PHE112     -0.0200
     12  CD1       31.2530   42.0220   44.3630 C.ar  112  PHE112     -0.0042
     13  CD2       32.4820   40.0170   44.4630 C.ar  112  PHE112     -0.0042
     14  CE1       30.7880   41.6760   43.1260 C.ar  112  PHE112     -0.0003
     15  CE2       32.0090   39.6670   43.2130 C.ar  112  PHE112     -0.0003
     16  CZ        31.1770   40.5000   42.5470 C.ar  112  PHE112     -0.0000
     17  N         34.5790   43.0850   44.0960 N.am  113  LYS113     -0.1977
     18  CA        35.5480   42.8360   43.0080 C.3   113  LYS113      0.1596
     19  C         37.0020   43.0690   43.4690 C.2   113  LYS113      0.2287
     20  O         37.9400   42.5890   42.8340 O.2   113  LYS113     -0.2864
     21  CB        35.2220   43.6560   41.7820 C.3   113  LYS113      0.0298
     22  CG        33.9090   43.2030   41.1710 C.3   113  LYS113      0.0038
     23  CD        33.4920   44.0790   40.0120 C.3   113  LYS113      0.0206
     24  CE        32.1830   43.5480   39.4280 C.3   113  LYS113      0.1093
     25  NZ        31.0760   43.9290   40.3360 N.3   113  LYS113     -0.1314
     26  N         31.8560   51.8090   39.0410 N.3   144  ASP144     -0.1239
     27  CA        32.3440   50.8480   40.0330 C.3   144  ASP144      0.1674
     28  C         33.5240   50.0060   39.5580 C.2   144  ASP144      0.2266
     29  O         34.5580   49.9570   40.2370 O.2   144  ASP144     -0.2867
     30  CB        31.2150   49.9140   40.5060 C.3   144  ASP144      0.1410
     31  CG        31.5200   49.1700   41.7850 C.2   144  ASP144      0.3668
     32  OD1       32.5460   49.3640   42.4180 O.co2 144  ASP144     -0.2456
     33  OD2       30.6450   48.4440   42.2640 O.co2 144  ASP144     -0.2456
     34  N         34.5310   40.1970   33.3950 N.3   222  SER222     -0.1217
     35  CA        34.0120   39.2390   34.2720 C.3   222  SER222      0.1889
     36  C         34.3950   37.8150   33.9230 C.2   222  SER222      0.2288
     37  O         34.3030   36.9680   34.7840 O.2   222  SER222     -0.2866
     38  CB        32.4660   39.4360   34.2650 C.3   222  SER222      0.2089
     39  OG        31.9490   39.6280   32.9250 O.3   222  SER222     -0.2183
     40  N         37.7150   34.1020   44.2200 N.3   231  GLN231     -0.1245
     41  CA        36.4510   34.1580   44.9580 C.3   231  GLN231      0.1566
     42  C         36.0400   32.8590   45.6520 C.2   231  GLN231      0.2260
     43  O         35.2250   32.8840   46.5490 O.2   231  GLN231     -0.2867
     44  CB        35.3450   34.6470   44.0290 C.3   231  GLN231      0.0367
     45  CG        35.6530   36.0260   43.4530 C.3   231  GLN231      0.0905
     46  CD        34.4360   36.6260   42.8320 C.2   231  GLN231      0.2608
     47  OE1       34.3130   36.5870   41.6210 O.2   231  GLN231     -0.2717
     48  NE2       33.3900   36.9960   43.7070 N.am  231  GLN231     -0.0878
     49  N         24.1290   38.0290   45.7930 N.3   254  PRO254     -0.2102
     50  CA        23.5800   39.0280   44.8910 C.3   254  PRO254      0.1504
     51  C         24.3750   38.9330   43.6040 C.2   254  PRO254      0.2576
     52  O         25.6030   39.0850   43.6320 O.2   254  PRO254     -0.2718
     53  CB        23.8140   40.3510   45.6140 C.3   254  PRO254      0.0282
     54  CG        24.2800   40.0250   46.9730 C.3   254  PRO254      0.0208
     55  CD        24.8180   38.6380   46.9550 C.3   254  PRO254      0.0893
     56  N         23.7100   38.5710   42.5180 N.am  255  THR255     -0.1939
     57  CA        24.3990   38.0900   41.3200 C.3   255  THR255      0.2028
     58  C         24.0640   38.9270   40.0960 C.2   255  THR255      0.2643
     59  O         22.9210   39.2610   39.8620 O.2   255  THR255     -0.2714
     60  CB        23.9750   36.6260   41.0210 C.3   255  THR255      0.1808
     61  OG1       24.5480   35.7680   41.9910 O.3   255  THR255     -0.2208
     62  CG2       24.4020   36.1460   39.6480 C.3   255  THR255      0.0379
     63  N         25.0840   39.2560   39.3310 N.am  256  GLY256     -0.1939
     64  CA        24.9220   39.8600   38.0060 C.3   256  GLY256      0.2014
     65  C         25.4450   38.9030   36.9670 C.2   256  GLY256      0.2639
     66  O         24.6710   38.1640   36.3620 O.2   256  GLY256     -0.2714
     67  N         26.7670   38.8760   36.7960 N.am  257  ASN257     -0.1958
     68  CA        27.3810   38.0190   35.7720 C.3   257  ASN257      0.1819
     69  C         27.8220   36.6270   36.2410 C.2   257  ASN257      0.2621
     70  O         28.4520   35.9220   35.4840 O.2   257  ASN257     -0.2715
     71  CB        28.5520   38.7280   35.1040 C.3   257  ASN257      0.1195
     72  CG        28.0820   39.7870   34.1180 C.2   257  ASN257      0.2630
     73  OD1       27.2540   39.5160   33.2340 O.2   257  ASN257     -0.2716
     74  ND2       28.5680   41.0130   34.3000 N.am  257  ASN257     -0.0877
     75  N         27.4650   36.2520   37.4660 N.am  258  PHE258     -0.1960
     76  CA        27.4600   34.8520   37.8860 C.3   258  PHE258      0.1771
     77  C         28.8320   34.3330   38.3130 C.2   258  PHE258      0.2620
     78  O         28.8980   33.2040   38.7970 O.2   258  PHE258     -0.2715
     79  CB        26.9160   33.9180   36.7900 C.3   258  PHE258      0.0574
     80  CG        26.1450   32.7260   37.3210 C.ar  258  PHE258     -0.0200
     81  CD1       24.8380   32.8780   37.7210 C.ar  258  PHE258     -0.0042
     82  CD2       26.7290   31.4530   37.4140 C.ar  258  PHE258     -0.0042
     83  CE1       24.1060   31.8110   38.2120 C.ar  258  PHE258     -0.0003
     84  CE2       25.9930   30.3750   37.9270 C.ar  258  PHE258     -0.0003
     85  CZ        24.6830   30.5690   38.3350 C.ar  258  PHE258     -0.0000
     86  N         29.8940   35.1280   38.1600 N.am  259  GLY259     -0.1940
     87  CA        31.2750   34.6710   38.5250 C.3   259  GLY259      0.2014
     88  C         31.4010   34.3790   40.0200 C.2   259  GLY259      0.2638
     89  O         32.0700   33.4180   40.4380 O.2   259  GLY259     -0.2714
     90  N         30.7490   35.2170   40.8100 N.am  260  ASP260     -0.1971
     91  CA        30.7170   35.0950   42.2620 C.3   260  ASP260      0.1709
     92  C         30.0770   33.8090   42.7250 C.2   260  ASP260      0.2293
     93  O         30.7340   32.9870   43.3860 O.2   260  ASP260     -0.2864
     94  CB        30.0800   36.3350   42.9470 C.3   260  ASP260      0.1436
     95  CG        28.7070   36.7840   42.3330 C.2   260  ASP260      0.3671
     96  OD1       28.3920   37.9940   42.7120 O.co2 260  ASP260     -0.2456
     97  OD2       27.9540   35.9990   41.5320 O.co2 260  ASP260     -0.2456
     98  N         25.2710   47.4950   39.7390 N.3   308  SER308     -0.1202
     99  CA        26.2340   46.4480   39.4240 C.3   308  SER308      0.2020
    100  C         25.5160   45.1680   38.9990 C.2   308  SER308      0.2618
    101  O         26.1290   44.3110   38.3890 O.2   308  SER308     -0.2717
    102  CB        27.1540   46.1320   40.6010 C.3   308  SER308      0.2103
    103  OG        27.9700   47.2610   40.9000 O.3   308  SER308     -0.2182
    104  N         24.2350   45.0310   39.3310 N.am  309  MET309     -0.1979
    105  CA        23.4480   43.8510   38.9370 C.3   309  MET309      0.1605
    106  C         22.5010   44.1240   37.7470 C.2   309  MET309      0.2287
    107  O         21.6690   43.2780   37.3890 O.2   309  MET309     -0.2864
    108  CB        22.7090   43.3000   40.1760 C.3   309  MET309      0.0413
    109  CG        23.6950   42.6560   41.1710 C.3   309  MET309      0.0598
    110  SD        23.0430   42.4740   42.8190 S.3   309  MET309     -0.1393
    111  CE        21.5460   41.5690   42.4020 C.3   309  MET309      0.0692
    112  N         28.8870   34.7690   32.9890 N.3   316  ASN316     -0.1240
    113  CA        29.4420   33.4550   33.4200 C.3   316  ASN316      0.1653
    114  C         28.4630   32.3020   33.5840 C.2   316  ASN316      0.2266
    115  O         28.8480   31.1990   33.9850 O.2   316  ASN316     -0.2867
    116  CB        30.2440   33.6380   34.6990 C.3   316  ASN316      0.1155
    117  CG        31.4620   34.5340   34.4830 C.2   316  ASN316      0.2627
    118  OD1       32.3820   34.1680   33.7750 O.2   316  ASN316     -0.2716
    119  ND2       31.4560   35.7020   35.0860 N.am  316  ASN316     -0.0877
    120  N         22.6940   46.1880   46.9170 N.3   387  HIS387     -0.1241
    121  CA        23.0770   44.8940   46.3620 C.3   387  HIS387      0.1621
    122  C         22.9990   43.8390   47.4450 C.2   387  HIS387      0.2264
    123  O         22.4020   42.7720   47.2620 O.2   387  HIS387     -0.2867
    124  CB        24.4820   44.9330   45.7720 C.3   387  HIS387      0.0745
    125  CG        24.6560   45.9680   44.6940 C.ar  387  HIS387      0.0817
    126  ND1       24.9730   47.2430   44.9640 N.ar  387  HIS387     -0.2268
    127  CD2       24.5660   45.8710   43.3180 C.ar  387  HIS387      0.1154
    128  CE1       25.0680   47.9290   43.8290 C.ar  387  HIS387      0.1986
    129  NE2       24.8390   47.0910   42.8130 N.ar  387  HIS387     -0.2212
    130  N         28.1290   42.5700   49.0500 N.3   410  THR410     -0.1203
    131  CA        29.0650   42.7970   47.9660 C.3   410  THR410      0.1994
    132  C         29.5630   44.2190   47.8740 C.2   410  THR410      0.2617
    133  O         30.4840   44.5020   47.0850 O.2   410  THR410     -0.2717
    134  CB        28.4260   42.3780   46.6280 C.3   410  THR410      0.1784
    135  OG1       27.1430   43.0120   46.4750 O.3   410  THR410     -0.2211
    136  CG2       28.2180   40.8700   46.6400 C.3   410  THR410      0.0376
    137  N         28.9480   45.1230   48.6420 N.am  411  ALA411     -0.1979
    138  CA        29.3700   46.5360   48.6670 C.3   411  ALA411      0.1597
    139  C         29.0330   47.2170   49.9850 C.2   411  ALA411      0.2287
    140  O         28.0610   46.8440   50.6560 O.2   411  ALA411     -0.2864
    141  CB        28.7240   47.3030   47.5150 C.3   411  ALA411      0.0319
    142  N         26.7430   53.3590   47.6730 N.3   416  PHE416     -0.1241
    143  CA        25.4690   53.6590   47.0370 C.3   416  PHE416      0.1605
    144  C         24.6060   54.4750   47.9960 C.2   416  PHE416      0.2264
    145  O         23.5290   54.0330   48.4130 O.2   416  PHE416     -0.2867
    146  CB        24.8510   52.3470   46.5530 C.3   416  PHE416      0.0534
    147  CG        25.7290   51.6390   45.5610 C.ar  416  PHE416     -0.0203
    148  CD1       25.7100   51.9930   44.2190 C.ar  416  PHE416     -0.0042
    149  CD2       26.6410   50.6850   45.9820 C.ar  416  PHE416     -0.0042
    150  CE1       26.5590   51.3960   43.3080 C.ar  416  PHE416     -0.0003
    151  CE2       27.4830   50.0630   45.0730 C.ar  416  PHE416     -0.0003
    152  CZ        27.4510   50.4300   43.7320 C.ar  416  PHE416     -0.0000
@<TRIPOS>BOND
     1    39    38    1
     2   112   113    1
     3    73    72    2
     4    34    35    1
     5   113   114    1
     6   113   116    1
     7   114   115    2
     8   118   117    2
     9    36    35    1
    10    36    37    2
    11    72    74   am
    12    72    71    1
    13    38    35    1
    14   117   116    1
    15   117   119   am
    16    71    68    1
    17    70    69    2
    18    68    69    1
    19    68    67    1
    20    69    75   am
    21    66    65    2
    22    79    80    1
    23    79    76    1
    24    67    65   am
    25    65    64    1
    26    80    82   ar
    27    80    81   ar
    28   107   106    2
    29    82    84   ar
    30    75    76    1
    31    81    83   ar
    32   106   105    1
    33    76    77    1
    34    84    85   ar
    35    64    63    1
    36    86    77   am
    37    86    87    1
    38    83    85   ar
    39    77    78    2
    40   101   100    2
    41    87    88    1
    42   105   104    1
    43   105   108    1
    44   100   104   am
    45   100    99    1
    46    26    27    1
    47    63    58   am
    48    99    98    1
    49    99   102    1
    50    24    23    1
    51    24    25    1
    52    28    27    1
    53    28    29    2
    54    62    60    1
    55    59    58    2
    56    23    22    1
    57    88    89    2
    58    88    90   am
    59    27    30    1
    60    58    57    1
    61   108   109    1
    62    30    31    1
    63   102   103    1
    64    90    91    1
    65    60    57    1
    66    60    61    1
    67    22    21    1
    68   109   110    1
    69    57    56    1
    70    97    95   ar
    71    47    46    2
    72    21    18    1
    73    31    33   ar
    74    31    32   ar
    75    91    92    1
    76    91    94    1
    77    95    96   ar
    78    95    94    1
    79   111   110    1
    80    56    51   am
    81    16    14   ar
    82    16    15   ar
    83    92    93    2
    84   129   127   ar
    85   129   128   ar
    86    46    45    1
    87    46    48   am
    88    20    19    2
    89    18    19    1
    90    18    17    1
    91    14    12   ar
    92    15    13   ar
    93   150   152   ar
    94   150   148   ar
    95   127   125   ar
    96    45    44    1
    97    51    52    2
    98    51    50    1
    99   152   151   ar
   100   128   126   ar
   101    44    41    1
   102    17     8   am
   103   148   147   ar
   104    40    41    1
   105    12    11   ar
   106    13    11   ar
   107   125   126   ar
   108   125   124    1
   109    50    53    1
   110    50    49    1
   111    41    42    1
   112    11    10    1
   113   151   149   ar
   114     8     9    2
   115     8     7    1
   116   147   149   ar
   117   147   146    1
   118    53    54    1
   119    42    43    2
   120     5     2    1
   121   124   121    1
   122    49    55    1
   123   121   120    1
   124   121   122    1
   125     7    10    1
   126     7     6    1
   127     6     3   am
   128   135   134    1
   129   146   143    1
   130     4     3    2
   131     3     2    1
   132   134   136    1
   133   134   131    1
   134     2     1    1
   135    55    54    1
   136   143   142    1
   137   143   144    1
   138   133   132    2
   139   123   122    2
   140   141   138    1
   141   132   131    1
   142   132   137   am
   143   131   130    1
   144   144   145    2
   145   137   138    1
   146   138   139    1
   147   139   140    2
