@<TRIPOS>MOLECULE
tmp/4f4pA00.pdb
 148 139 0 0 0
SMALL
GASTEIGER

@<TRIPOS>ATOM
      1  N         -0.9820   -3.8000    8.2940 N.3    13  LEU13      -0.1231
      2  CA        -1.6720   -3.2530    9.4680 C.3    13  LEU13       0.1693
      3  C         -2.3490   -1.9320    9.1040 C.2    13  LEU13       0.2592
      4  O         -3.5180   -1.7100    9.4310 O.2    13  LEU13      -0.2718
      5  CB        -0.6930   -3.0450   10.6270 C.3    13  LEU13       0.0284
      6  CG         0.1840   -4.2390   11.0230 C.3    13  LEU13       0.0019
      7  CD1        1.0190   -3.8970   12.2470 C.3    13  LEU13       0.0001
      8  CD2       -0.6350   -5.4840   11.2850 C.3    13  LEU13       0.0001
      9  N         -1.5990   -1.0620    8.4280 N.am   14  GLY14      -0.1957
     10  CA        -2.1390    0.1760    7.8630 C.3    14  GLY14       0.1869
     11  C         -1.5500    0.4440    6.4940 C.2    14  GLY14       0.2309
     12  O         -0.4580   -0.0270    6.1850 O.2    14  GLY14      -0.2863
     13  N          2.4170   -0.6690    6.7110 N.3    21  VAL21      -0.1245
     14  CA         3.0450   -1.2800    7.8910 C.3    21  VAL21       0.1561
     15  C          2.6510   -2.7570    7.9970 C.2    21  VAL21       0.2260
     16  O          1.4780   -3.0860    7.8480 O.2    21  VAL21      -0.2867
     17  CB         2.6070   -0.5730    9.2090 C.3    21  VAL21       0.0252
     18  CG1        3.5020   -0.9990   10.3780 C.3    21  VAL21       0.0019
     19  CG2        2.6330    0.9450    9.0550 C.3    21  VAL21       0.0019
     20  N          7.7690   -4.6560   13.7870 N.3    30  ALA30      -0.1245
     21  CA         6.8850   -3.9270   12.8730 C.3    30  ALA30       0.1562
     22  C          7.7210   -3.3320   11.7460 C.2    30  ALA30       0.2260
     23  O          8.8580   -2.9250   11.9820 O.2    30  ALA30      -0.2867
     24  CB         6.1580   -2.8260   13.6150 C.3    30  ALA30       0.0290
     25  N          7.7540   -0.6090    8.3980 N.3    32  LYS32      -0.1245
     26  CA         7.2210    0.4370    7.5240 C.3    32  LYS32       0.1561
     27  C          7.8540    0.2940    6.1320 C.2    32  LYS32       0.2260
     28  O          9.0710    0.1390    6.0190 O.2    32  LYS32      -0.2867
     29  CB         7.4980    1.8280    8.1170 C.3    32  LYS32       0.0271
     30  CG         6.6630    2.9560    7.5010 C.3    32  LYS32       0.0035
     31  CD         6.9610    4.3220    8.1430 C.3    32  LYS32       0.0206
     32  CE         6.3150    4.4680    9.5260 C.3    32  LYS32       0.1093
     33  NZ         6.4370    5.8510   10.0770 N.3    32  LYS32      -0.1314
     34  N          9.6180    3.8350   20.7980 N.3    58  VAL58      -0.1245
     35  CA         9.7680    2.6290   19.9800 C.3    58  VAL58       0.1561
     36  C         11.2360    2.4910   19.5650 C.2    58  VAL58       0.2260
     37  O         11.8330    3.4190   19.0050 O.2    58  VAL58      -0.2867
     38  CB         8.8410    2.6390   18.7370 C.3    58  VAL58       0.0252
     39  CG1        9.2390    1.5580   17.7320 C.3    58  VAL58       0.0019
     40  CG2        7.3890    2.4590   19.1640 C.3    58  VAL58       0.0019
     41  N         11.4070   -2.1610   13.4730 N.3    73  MET73      -0.1230
     42  CA        11.4380   -1.7510   14.8810 C.3    73  MET73       0.1702
     43  C         10.7690   -2.8180   15.7200 C.2    73  MET73       0.2592
     44  O         10.0580   -3.6650   15.1880 O.2    73  MET73      -0.2718
     45  CB        10.6500   -0.4540   15.0820 C.3    73  MET73       0.0401
     46  CG        11.1690    0.7500   14.3310 C.3    73  MET73       0.0596
     47  SD         9.8230    1.7760   13.7050 S.3    73  MET73      -0.1393
     48  CE         9.1840    0.7330   12.4040 C.3    73  MET73       0.0692
     49  N         10.9900   -2.7620   17.0330 N.am   74  GLU74      -0.1966
     50  CA        10.2450   -3.5870   17.9870 C.3    74  GLU74       0.1733
     51  C          8.7400   -3.4570   17.7740 C.2    74  GLU74       0.2616
     52  O          8.2550   -2.4000   17.3830 O.2    74  GLU74      -0.2715
     53  CB        10.5730   -3.1900   19.4320 C.3    74  GLU74       0.0429
     54  CG        11.6590   -4.0180   20.0840 C.3    74  GLU74       0.1163
     55  CD        11.7200   -3.8080   21.5870 C.2    74  GLU74       0.3649
     56  OE1       11.4530   -4.7680   22.3370 O.co2  74  GLU74      -0.2457
     57  OE2       12.0240   -2.6760   22.0180 O.co2  74  GLU74      -0.2457
     58  N          8.0070   -4.5340   18.0430 N.am   75  MET75      -0.1963
     59  CA         6.5510   -4.5270   17.8860 C.3    75  MET75       0.1736
     60  C          5.8820   -3.9420   19.1280 C.2    75  MET75       0.2616
     61  O          6.2860   -4.2350   20.2530 O.2    75  MET75      -0.2715
     62  CB         6.0450   -5.9480   17.6310 C.3    75  MET75       0.0427
     63  CG         4.5330   -6.1100   17.5740 C.3    75  MET75       0.0599
     64  SD         3.7200   -5.0890   16.3430 S.3    75  MET75      -0.1393
     65  CE         4.0490   -6.0120   14.8560 C.3    75  MET75       0.0692
     66  N          4.8890   -3.0800   18.9070 N.am   76  ALA76      -0.1963
     67  CA         3.9110   -2.7210   19.9380 C.3    76  ALA76       0.1728
     68  C          2.5720   -3.3220   19.5070 C.2    76  ALA76       0.2616
     69  O          1.8630   -2.7600   18.6700 O.2    76  ALA76      -0.2715
     70  CB         3.8180   -1.2260   20.1080 C.3    76  ALA76       0.0334
     71  N          2.2440   -4.4660   20.1010 N.am   77  GLU77      -0.1963
     72  CA         1.1860   -5.3410   19.6090 C.3    77  GLU77       0.1733
     73  C         -0.2130   -4.7190   19.5280 C.2    77  GLU77       0.2616
     74  O         -0.9720   -5.0390   18.6090 O.2    77  GLU77      -0.2715
     75  CB         1.1300   -6.6100   20.4660 C.3    77  GLU77       0.0429
     76  CG         2.4360   -7.4430   20.4670 C.3    77  GLU77       0.1163
     77  CD         2.6130   -8.3440   19.2420 C.2    77  GLU77       0.3649
     78  OE1        1.8330   -8.2420   18.2700 O.co2  77  GLU77      -0.2457
     79  OE2        3.5460   -9.1720   19.2620 O.co2  77  GLU77      -0.2457
     80  N         -0.5620   -3.8550   20.4830 N.am   78  LEU78      -0.1963
     81  CA        -1.9380   -3.3240   20.5710 C.3    78  LEU78       0.1728
     82  C         -2.1490   -2.1230   19.6600 C.2    78  LEU78       0.2617
     83  O         -3.2700   -1.6790   19.4700 O.2    78  LEU78      -0.2715
     84  CB        -2.3150   -2.9470   22.0100 C.3    78  LEU78       0.0311
     85  CG        -2.6780   -4.0470   23.0200 C.3    78  LEU78       0.0022
     86  CD1       -1.7400   -5.2290   22.9820 C.3    78  LEU78       0.0001
     87  CD2       -2.6710   -3.4530   24.4040 C.3    78  LEU78       0.0001
     88  N         -1.0730   -1.5640   19.1320 N.am   79  GLY79      -0.1941
     89  CA        -1.1870   -0.5570   18.0930 C.3    79  GLY79       0.1998
     90  C         -1.4920    0.8410   18.5890 C.2    79  GLY79       0.2480
     91  O         -1.3190    1.1360   19.7850 O.2    79  GLY79      -0.2729
     92  N         -1.9270    1.7190   17.6610 N.am   80  PRO80      -0.2726
     93  CA        -2.1090    3.1400   17.9420 C.3    80  PRO80       0.1402
     94  C         -3.0660    3.4070   19.1060 C.2    80  PRO80       0.2269
     95  O         -4.1430    2.8210   19.1870 O.2    80  PRO80      -0.2865
     96  CB        -2.6440    3.7000   16.6210 C.3    80  PRO80       0.0296
     97  CG        -2.1620    2.7440   15.5880 C.3    80  PRO80       0.0237
     98  CD        -2.2260    1.4070   16.2500 C.3    80  PRO80       0.0939
     99  N         -6.8390    4.5150   18.3320 N.3    83  LYS83      -0.1245
    100  CA        -7.7330    3.4200   17.9410 C.3    83  LYS83       0.1561
    101  C         -8.0280    2.5110   19.1120 C.2    83  LYS83       0.2260
    102  O         -9.1550    2.0650   19.2910 O.2    83  LYS83      -0.2867
    103  CB        -7.0910    2.5440   16.8820 C.3    83  LYS83       0.0271
    104  CG        -6.8640    3.1860   15.5350 C.3    83  LYS83       0.0035
    105  CD        -5.8060    2.3910   14.7640 C.3    83  LYS83       0.0206
    106  CE        -6.2310    0.9370   14.4930 C.3    83  LYS83       0.1093
    107  NZ        -5.0910   -0.0170   14.6360 N.3    83  LYS83      -0.1314
    108  N         -2.3760    9.1430   17.6370 N.3   123  ARG123     -0.1231
    109  CA        -2.1470    8.1640   16.5610 C.3   123  ARG123      0.1694
    110  C         -0.7060    7.6540   16.5220 C.2   123  ARG123      0.2592
    111  O         -0.4720    6.5410   16.0800 O.2   123  ARG123     -0.2718
    112  CB        -2.5160    8.7520   15.1960 C.3   123  ARG123      0.0321
    113  CG        -1.3510    9.3270   14.4100 C.3   123  ARG123      0.0489
    114  CD        -1.8220   10.0560   13.1620 C.3   123  ARG123      0.2205
    115  NE        -1.8970   11.4970   13.3870 N.pl3 123  ARG123     -0.0865
    116  CZ        -0.9310   12.3680   13.0970 C.cat 123  ARG123      0.5346
    117  NH1       -1.1160   13.6590   13.3590 N.pl3 123  ARG123      0.1354
    118  NH2        0.2160   11.9640   12.5480 N.pl3 123  ARG123      0.1354
    119  N          0.2460    8.4740   16.9770 N.am  124  ASN124     -0.1974
    120  CA         1.6700    8.1090   16.9950 C.3   124  ASN124      0.1688
    121  C          2.1860    7.5540   18.3220 C.2   124  ASN124      0.2292
    122  O          3.3930    7.4550   18.5200 O.2   124  ASN124     -0.2864
    123  CB         2.5100    9.3040   16.5510 C.3   124  ASN124      0.1181
    124  CG         2.2680    9.6530   15.1020 C.2   124  ASN124      0.2629
    125  OD1        1.8740    8.7930   14.3230 O.2   124  ASN124     -0.2716
    126  ND2        2.4950   10.9040   14.7300 N.am  124  ASN124     -0.0877
    127  N          1.9990    4.0780   20.5240 N.3   126  LEU126     -0.1245
    128  CA         1.6540    2.6950   20.3240 C.3   126  LEU126      0.1561
    129  C          1.6330    2.0040   21.6660 C.2   126  LEU126      0.2260
    130  O          2.3480    2.3920   22.5840 O.2   126  LEU126     -0.2867
    131  CB         2.6430    2.0340   19.3660 C.3   126  LEU126      0.0270
    132  CG         2.8410    2.7760   18.0400 C.3   126  LEU126      0.0019
    133  CD1        3.8140    2.0190   17.1630 C.3   126  LEU126      0.0001
    134  CD2        1.5300    2.9850   17.3040 C.3   126  LEU126      0.0001
    135  N          6.0850    6.7390   18.8610 N.3   136  SER136     -0.1202
    136  CA         6.4090    6.2590   17.5310 C.3   136  SER136      0.2020
    137  C          6.4680    7.4480   16.5800 C.2   136  SER136      0.2618
    138  O          6.2450    8.5890   16.9800 O.2   136  SER136     -0.2717
    139  CB         5.3270    5.2680   17.0780 C.3   136  SER136      0.2103
    140  OG         5.5200    4.8310   15.7430 O.3   136  SER136     -0.2182
    141  N          6.7860    7.1670   15.3240 N.am  137  ASP137     -0.1973
    142  CA         6.7210    8.1480   14.2390 C.3   137  ASP137      0.1709
    143  C          7.6460    9.3370   14.4010 C.2   137  ASP137      0.2293
    144  O          7.2140   10.4180   14.7990 O.2   137  ASP137     -0.2864
    145  CB         5.2750    8.5980   13.9870 C.3   137  ASP137      0.1436
    146  CG         4.9560    8.7090   12.5070 C.2   137  ASP137      0.3671
    147  OD1        5.8720    9.0460   11.7210 O.co2 137  ASP137     -0.2456
    148  OD2        3.7950    8.4500   12.1300 O.co2 137  ASP137     -0.2456
@<TRIPOS>BOND
     1    28    27    2
     2    27    26    1
     3    12    11    2
     4    11    10    1
     5    13    14    1
     6    30    29    1
     7    30    31    1
     8    26    29    1
     9    26    25    1
    10    16    15    2
    11    10     9    1
    12    14    15    1
    13    14    17    1
    14    31    32    1
    15     1     2    1
    16     9     3   am
    17    19    17    1
    18     3     4    2
    19     3     2    1
    20    17    18    1
    21     2     5    1
    22    32    33    1
    23     5     6    1
    24     6     8    1
    25     6     7    1
    26   147   146   ar
    27    22    23    2
    28    22    21    1
    29   148   146   ar
    30    48    47    1
    31   146   145    1
    32   118   116    1
    33    21    24    1
    34    21    20    1
    35   116   117    1
    36   116   115    2
    37   114   115    1
    38   114   113    1
    39    41    42    1
    40    47    46    1
    41   145   142    1
    42   142   143    1
    43   142   141    1
    44   125   124    2
    45    46    45    1
    46   143   144    2
    47   113   112    1
    48   106   107    1
    49   106   105    1
    50   126   124   am
    51   105   104    1
    52    65    64    1
    53    42    45    1
    54    42    43    1
    55   124   123    1
    56    44    43    2
    57   112   109    1
    58   141   137   am
    59   104   103    1
    60    97    98    1
    61    97    96    1
    62    43    49   am
    63   140   139    1
    64   111   110    2
    65    98    92    1
    66    64    63    1
    67   110   109    1
    68   110   119   am
    69   123   120    1
    70   109   108    1
    71   137   138    2
    72   137   136    1
    73    96    93    1
    74   103   100    1
    75   119   120    1
    76   120   121    1
    77    49    50    1
    78   139   136    1
    79   133   132    1
    80   134   132    1
    81    52    51    2
    82   136   135    1
    83    63    62    1
    84    62    59    1
    85    92    93    1
    86    92    90   am
    87    39    38    1
    88    51    50    1
    89    51    58   am
    90    59    58    1
    91    59    60    1
    92   100    99    1
    93   100   101    1
    94    93    94    1
    95    50    53    1
    96   132   131    1
    97    89    90    1
    98    89    88    1
    99    78    77   ar
   100   121   122    2
   101    90    91    2
   102    74    73    2
   103    69    68    2
   104    38    40    1
   105    38    35    1
   106    66    60   am
   107    66    67    1
   108    37    36    2
   109    94    95    2
   110   101   102    2
   111    60    61    2
   112    88    82   am
   113    77    79   ar
   114    77    76    1
   115   131   128    1
   116    53    54    1
   117    83    82    2
   118    68    67    1
   119    68    71   am
   120    73    72    1
   121    73    80   am
   122    36    35    1
   123    72    71    1
   124    72    75    1
   125    82    81    1
   126    67    70    1
   127    35    34    1
   128    54    55    1
   129   128   127    1
   130   128   129    1
   131    75    76    1
   132    80    81    1
   133    81    84    1
   134    55    57   ar
   135    55    56   ar
   136   129   130    2
   137    84    85    1
   138    86    85    1
   139    85    87    1
