@<TRIPOS>MOLECULE
tmp/4f4sJ00.pdb
 96 91 0 0 0
SMALL
GASTEIGER

@<TRIPOS>ATOM
      1  N         11.5880   41.9650   35.9840 N.3    18  LEU18      -0.1245
      2  CA        12.6010   41.5300   35.0120 C.3    18  LEU18       0.1561
      3  C         12.0170   40.6820   33.8710 C.2    18  LEU18       0.2260
      4  O         12.6450   40.5440   32.8060 O.2    18  LEU18      -0.2867
      5  CB        13.7310   40.7580   35.7010 C.3    18  LEU18       0.0270
      6  CG        14.9070   41.6040   36.2370 C.3    18  LEU18       0.0019
      7  CD1       15.6430   40.8770   37.3580 C.3    18  LEU18       0.0001
      8  CD2       15.8690   41.9570   35.1080 C.3    18  LEU18       0.0001
      9  N         14.6060   41.1980   19.1460 N.3    29  PHE29      -0.1241
     10  CA        15.4630   40.3180   18.3370 C.3    29  PHE29       0.1605
     11  C         14.6860   39.4930   17.3080 C.2    29  PHE29       0.2264
     12  O         15.1990   39.2190   16.2130 O.2    29  PHE29      -0.2867
     13  CB        16.3720   39.4450   19.2130 C.3    29  PHE29       0.0534
     14  CG        17.6480   40.1360   19.6040 C.ar   29  PHE29      -0.0203
     15  CD1       17.7060   40.9360   20.7430 C.ar   29  PHE29      -0.0042
     16  CD2       18.7800   40.0310   18.7980 C.ar   29  PHE29      -0.0042
     17  CE1       18.8810   41.6170   21.0810 C.ar   29  PHE29      -0.0003
     18  CE2       19.9650   40.6900   19.1400 C.ar   29  PHE29      -0.0003
     19  CZ        20.0120   41.4810   20.2860 C.ar   29  PHE29      -0.0000
     20  N         19.7080   47.1420   18.5240 N.3    51  ILE51      -0.1245
     21  CA        20.6080   47.4160   19.6530 C.3    51  ILE51       0.1561
     22  C         19.9920   48.4560   20.5830 C.2    51  ILE51       0.2260
     23  O         19.8900   48.2140   21.7870 O.2    51  ILE51      -0.2867
     24  CB        22.0280   47.8290   19.2020 C.3    51  ILE51       0.0252
     25  CG1       22.6860   46.7030   18.3790 C.3    51  ILE51       0.0019
     26  CG2       22.8880   48.2340   20.4110 C.3    51  ILE51       0.0019
     27  CD1       22.9000   45.3980   19.1310 C.3    51  ILE51       0.0001
     28  N         16.6880   46.9120   22.3130 N.3    54  PHE54      -0.1227
     29  CA        16.9510   45.9600   23.3920 C.3    54  PHE54       0.1736
     30  C         17.5740   46.6710   24.6190 C.2    54  PHE54       0.2595
     31  O         17.2000   46.3710   25.7600 O.2    54  PHE54      -0.2718
     32  CB        17.7770   44.7560   22.8880 C.3    54  PHE54       0.0547
     33  CG        19.1600   44.6640   23.4610 C.ar   54  PHE54      -0.0202
     34  CD1       19.3550   44.2660   24.7840 C.ar   54  PHE54      -0.0042
     35  CD2       20.2710   44.9420   22.6750 C.ar   54  PHE54      -0.0042
     36  CE1       20.6300   44.1860   25.3250 C.ar   54  PHE54      -0.0003
     37  CE2       21.5520   44.8550   23.2090 C.ar   54  PHE54      -0.0003
     38  CZ        21.7330   44.4780   24.5340 C.ar   54  PHE54      -0.0000
     39  N         18.4690   47.6390   24.3870 N.am   55  ALA55      -0.1966
     40  CA        19.0460   48.4120   25.4950 C.3    55  ALA55       0.1728
     41  C         17.9690   49.1520   26.3060 C.2    55  ALA55       0.2616
     42  O         17.9890   49.1420   27.5330 O.2    55  ALA55      -0.2715
     43  CB        20.1180   49.3830   24.9960 C.3    55  ALA55       0.0334
     44  N         17.0250   49.7860   25.6250 N.am   56  LEU56      -0.1977
     45  CA        15.9750   50.5210   26.3280 C.3    56  LEU56       0.1596
     46  C         15.0010   49.5880   27.0830 C.2    56  LEU56       0.2287
     47  O         14.5660   49.9060   28.1910 O.2    56  LEU56      -0.2864
     48  CB        15.2580   51.4660   25.3650 C.3    56  LEU56       0.0297
     49  CG        16.1220   52.6270   24.8250 C.3    56  LEU56       0.0022
     50  CD1       15.4310   53.2820   23.6330 C.3    56  LEU56       0.0001
     51  CD2       16.4760   53.6600   25.8990 C.3    56  LEU56       0.0001
     52  N         15.8150   46.5090   28.1560 N.3    58  GLU58      -0.1231
     53  CA        16.7030   45.9960   29.1890 C.3    58  GLU58       0.1699
     54  C         16.7930   46.9430   30.3960 C.2    58  GLU58       0.2592
     55  O         16.8060   46.4860   31.5440 O.2    58  GLU58      -0.2718
     56  CB        18.0930   45.7760   28.5980 C.3    58  GLU58       0.0402
     57  CG        19.1280   45.3050   29.5960 C.3    58  GLU58       0.1161
     58  CD        19.1870   43.8040   29.6990 C.2    58  GLU58       0.3649
     59  OE1       18.6970   43.2700   30.7070 O.co2  58  GLU58      -0.2457
     60  OE2       19.7150   43.1610   28.7680 O.co2  58  GLU58      -0.2457
     61  N         16.8480   48.2500   30.1350 N.am   59  ALA59      -0.1980
     62  CA        16.9750   49.2480   31.2090 C.3    59  ALA59       0.1597
     63  C         15.8400   49.1580   32.2430 C.2    59  ALA59       0.2287
     64  O         16.0510   49.4710   33.4210 O.2    59  ALA59      -0.2864
     65  CB        17.0740   50.6560   30.6390 C.3    59  ALA59       0.0319
     66  N         14.5080   46.4020   33.2890 N.3    61  GLY61      -0.1210
     67  CA        14.9860   45.3240   34.1540 C.3    61  GLY61       0.1956
     68  C         16.0960   45.7740   35.0890 C.2    61  GLY61       0.2611
     69  O         16.1210   45.3850   36.2690 O.2    61  GLY61      -0.2717
     70  N         17.0260   46.5680   34.5560 N.am   62  LEU62      -0.1979
     71  CA        18.0580   47.2120   35.3670 C.3    62  LEU62       0.1596
     72  C         17.4610   47.9830   36.5550 C.2    62  LEU62       0.2287
     73  O         17.9370   47.8360   37.6750 O.2    62  LEU62      -0.2864
     74  CB        18.9600   48.1280   34.5040 C.3    62  LEU62       0.0297
     75  CG        20.0150   48.9850   35.2350 C.3    62  LEU62       0.0022
     76  CD1       20.9510   48.1290   36.0720 C.3    62  LEU62       0.0001
     77  CD2       20.8170   49.8230   34.2550 C.3    62  LEU62       0.0001
     78  N         16.2720   45.4890   39.2340 N.3    65  LEU65      -0.1245
     79  CA        17.3980   44.8760   39.9290 C.3    65  LEU65       0.1561
     80  C         18.0730   45.8540   40.8950 C.2    65  LEU65       0.2260
     81  O         18.5090   45.4620   41.9760 O.2    65  LEU65      -0.2867
     82  CB        18.4130   44.3380   38.9130 C.3    65  LEU65       0.0270
     83  CG        19.4450   43.3510   39.4740 C.3    65  LEU65       0.0019
     84  CD1       18.7940   42.0300   39.8840 C.3    65  LEU65       0.0001
     85  CD2       20.5630   43.1270   38.4620 C.3    65  LEU65       0.0001
     86  N         18.6750   45.2230   44.7490 N.3    69  PHE69      -0.1241
     87  CA        19.9650   45.3500   45.4440 C.3    69  PHE69       0.1605
     88  C         19.9320   46.3890   46.5680 C.2    69  PHE69       0.2264
     89  O         20.6040   46.2180   47.5820 O.2    69  PHE69      -0.2867
     90  CB        21.1100   45.6510   44.4670 C.3    69  PHE69       0.0534
     91  CG        21.5080   44.4830   43.5910 C.ar   69  PHE69      -0.0203
     92  CD1       21.1770   43.1720   43.9300 C.ar   69  PHE69      -0.0042
     93  CD2       22.2510   44.6980   42.4280 C.ar   69  PHE69      -0.0042
     94  CE1       21.5590   42.1050   43.1210 C.ar   69  PHE69      -0.0003
     95  CE2       22.6380   43.6320   41.6160 C.ar   69  PHE69      -0.0003
     96  CZ        22.2930   42.3340   41.9670 C.ar   69  PHE69      -0.0000
@<TRIPOS>BOND
     1    12    11    2
     2    11    10    1
     3    10     9    1
     4    10    13    1
     5    25    27    1
     6    25    24    1
     7    20    21    1
     8    16    18   ar
     9    16    14   ar
    10    18    19   ar
    11    24    21    1
    12    24    26    1
    13    13    14    1
    14    14    15   ar
    15    21    22    1
    16    19    17   ar
    17    22    23    2
    18    15    17   ar
    19    28    29    1
    20    35    37   ar
    21    35    33   ar
    22    32    29    1
    23    32    33    1
    24    37    38   ar
    25    29    30    1
    26    33    34   ar
    27    50    49    1
    28    39    30   am
    29    39    40    1
    30    38    36   ar
    31    30    31    2
    32    34    36   ar
    33    49    48    1
    34    49    51    1
    35    43    40    1
    36    48    45    1
    37    40    41    1
    38    44    41   am
    39    44    45    1
    40    41    42    2
    41    45    46    1
    42    46    47    2
    43    52    53    1
    44    56    53    1
    45    56    57    1
    46    60    58   ar
    47    53    54    1
    48    57    58    1
    49    58    59   ar
    50    61    54   am
    51    61    62    1
    52    54    55    2
    53    65    62    1
    54    62    63    1
    55    63    64    2
    56     4     3    2
    57    66    67    1
    58     3     2    1
    59    67    68    1
    60    77    75    1
    61    74    75    1
    62    74    71    1
    63    70    68   am
    64    70    71    1
    65     2     5    1
    66     2     1    1
    67    68    69    2
    68     8     6    1
    69    75    76    1
    70    71    72    1
    71     5     6    1
    72     6     7    1
    73    72    73    2
    74    85    83    1
    75    82    83    1
    76    82    79    1
    77    78    79    1
    78    83    84    1
    79    79    80    1
    80    80    81    2
    81    95    96   ar
    82    95    93   ar
    83    96    94   ar
    84    93    91   ar
    85    94    92   ar
    86    91    92   ar
    87    91    90    1
    88    90    87    1
    89    86    87    1
    90    87    88    1
    91    88    89    2
