@<TRIPOS>MOLECULE
tmp/4f4yA00.pdb
 152 148 0 0 0
SMALL
GASTEIGER

@<TRIPOS>ATOM
      1  N          7.0830    7.5710   64.0150 N.3     7  ASP7       -0.1225
      2  CA         7.3630    8.1270   62.6980 C.3     7  ASP7        0.1805
      3  C          8.2940    7.1760   61.9270 C.2     7  ASP7        0.2598
      4  O          9.4550    7.0270   62.2870 O.2     7  ASP7       -0.2718
      5  CB         8.0390    9.4740   62.9300 C.3     7  ASP7        0.1424
      6  CG         8.0320   10.3590   61.7150 C.2     7  ASP7        0.3668
      7  OD1        8.3340    9.8660   60.6280 O.co2   7  ASP7       -0.2456
      8  OD2        7.7380   11.5600   61.8550 O.co2   7  ASP7       -0.2456
      9  N          7.7970    6.5440   60.8670 N.am    8  PHE8       -0.1962
     10  CA         8.4960    5.4070   60.2420 C.3     8  PHE8        0.1771
     11  C          9.6460    5.8020   59.3090 C.2     8  PHE8        0.2620
     12  O          9.3780    6.1510   58.1800 O.2     8  PHE8       -0.2715
     13  CB         7.5340    4.5700   59.3730 C.3     8  PHE8        0.0574
     14  CG         6.2220    4.2270   60.0170 C.ar    8  PHE8       -0.0200
     15  CD1        5.1200    3.9510   59.2220 C.ar    8  PHE8       -0.0042
     16  CD2        6.0840    4.1460   61.3930 C.ar    8  PHE8       -0.0042
     17  CE1        3.9130    3.6250   59.7850 C.ar    8  PHE8       -0.0003
     18  CE2        4.8830    3.8240   61.9590 C.ar    8  PHE8       -0.0003
     19  CZ         3.7930    3.5620   61.1570 C.ar    8  PHE8       -0.0000
     20  N         10.9030    5.6580   59.7260 N.am    9  ASP9       -0.1957
     21  CA        12.0600    6.0450   58.8850 C.3     9  ASP9        0.1840
     22  C         11.9150    5.7490   57.3850 C.2     9  ASP9        0.2622
     23  O         11.4900    4.6680   57.0050 O.2     9  ASP9       -0.2715
     24  CB        13.3420    5.3830   59.3880 C.3     9  ASP9        0.1450
     25  CG        13.5660    5.5870   60.8670 C.2     9  ASP9        0.3671
     26  OD1       13.9760    4.6210   61.5410 O.co2   9  ASP9       -0.2456
     27  OD2       13.3430    6.7130   61.3530 O.co2   9  ASP9       -0.2456
     28  N         12.2810    6.7270   56.5580 N.am   10  TYR10      -0.1960
     29  CA        12.1900    6.6770   55.0890 C.3    10  TYR10       0.1771
     30  C         11.1500    5.7160   54.5060 C.2    10  TYR10       0.2620
     31  O         11.4410    4.9590   53.5870 O.2    10  TYR10      -0.2715
     32  CB        13.5730    6.4590   54.4610 C.3    10  TYR10       0.0574
     33  CG        14.2560    5.1480   54.8250 C.ar   10  TYR10      -0.0198
     34  CD1       14.3920    4.1320   53.8870 C.ar   10  TYR10      -0.0009
     35  CD2       14.7800    4.9370   56.0930 C.ar   10  TYR10      -0.0009
     36  CE1       15.0180    2.9430   54.2050 C.ar   10  TYR10       0.0417
     37  CE2       15.4050    3.7480   56.4230 C.ar   10  TYR10       0.0417
     38  CZ        15.5190    2.7560   55.4740 C.ar   10  TYR10       0.1957
     39  OH        16.1330    1.5690   55.7930 O.3    10  TYR10      -0.2866
     40  N          9.9250    5.8170   55.0240 N.am   11  PHE11      -0.1960
     41  CA         8.9020    4.7620   54.9530 C.3    11  PHE11       0.1771
     42  C          8.8040    3.9480   53.6680 C.2    11  PHE11       0.2619
     43  O          9.0870    2.7490   53.6830 O.2    11  PHE11      -0.2715
     44  CB         7.5120    5.3090   55.3140 C.3    11  PHE11       0.0574
     45  CG         6.4810    4.2330   55.5590 C.ar   11  PHE11      -0.0200
     46  CD1        6.8550    2.9950   56.0650 C.ar   11  PHE11      -0.0042
     47  CD2        5.1420    4.4620   55.2800 C.ar   11  PHE11      -0.0042
     48  CE1        5.9180    2.0140   56.2960 C.ar   11  PHE11      -0.0003
     49  CE2        4.1940    3.4770   55.5060 C.ar   11  PHE11      -0.0003
     50  CZ         4.5850    2.2500   56.0140 C.ar   11  PHE11      -0.0000
     51  N          8.3750    4.5790   52.5780 N.am   12  PHE12      -0.1974
     52  CA         8.1180    3.8520   51.3270 C.3    12  PHE12       0.1639
     53  C          9.3470    3.0590   50.8830 C.2    12  PHE12       0.2290
     54  O          9.2620    1.8500   50.5840 O.2    12  PHE12      -0.2864
     55  CB         7.6870    4.7950   50.1990 C.3    12  PHE12       0.0560
     56  CG         6.3650    5.4870   50.4310 C.ar   12  PHE12      -0.0200
     57  CD1        5.6750    5.3530   51.6260 C.ar   12  PHE12      -0.0042
     58  CD2        5.8070    6.2690   49.4300 C.ar   12  PHE12      -0.0042
     59  CE1        4.4730    6.0000   51.8190 C.ar   12  PHE12      -0.0003
     60  CE2        4.6010    6.9090   49.6160 C.ar   12  PHE12      -0.0003
     61  CZ         3.9350    6.7780   50.8130 C.ar   12  PHE12      -0.0000
     62  N          7.3000    8.3520   41.7560 N.3    32  VAL32      -0.1245
     63  CA         5.9650    8.3220   41.2050 C.3    32  VAL32       0.1561
     64  C          6.0710    8.6540   39.7290 C.2    32  VAL32       0.2260
     65  O          6.2950    9.8010   39.3810 O.2    32  VAL32      -0.2867
     66  CB         5.0910    9.3850   41.8800 C.3    32  VAL32       0.0252
     67  CG1        3.6510    9.3220   41.3460 C.3    32  VAL32       0.0019
     68  CG2        5.1390    9.2170   43.3900 C.3    32  VAL32       0.0019
     69  N         10.1680   12.1460   42.8980 N.3    43  VAL43      -0.1231
     70  CA        10.6970   11.3410   43.9850 C.3    43  VAL43       0.1692
     71  C          9.7630   11.4090   45.1850 C.2    43  VAL43       0.2592
     72  O          9.5640   12.4760   45.7630 O.2    43  VAL43      -0.2718
     73  CB        12.1270   11.8010   44.3950 C.3    43  VAL43       0.0266
     74  CG1       12.5780   11.0880   45.6500 C.3    43  VAL43       0.0020
     75  CG2       13.1060   11.5630   43.2670 C.3    43  VAL43       0.0020
     76  N          9.1860   10.2710   45.5520 N.am   44  ALA44      -0.1966
     77  CA         8.3250   10.2000   46.7210 C.3    44  ALA44       0.1728
     78  C          9.1940   10.0950   47.9540 C.2    44  ALA44       0.2616
     79  O          8.9590   10.7750   48.9580 O.2    44  ALA44      -0.2715
     80  CB         7.3880    8.9970   46.6300 C.3    44  ALA44       0.0334
     81  N         10.1980    9.2290   47.8920 N.am   45  THR45      -0.1951
     82  CA        11.1190    9.1350   49.0200 C.3    45  THR45       0.1897
     83  C         12.4060    8.4340   48.6180 C.2    45  THR45       0.2313
     84  O         12.5050    7.9010   47.5260 O.2    45  THR45      -0.2863
     85  CB        10.4880    8.3950   50.2170 C.3    45  THR45       0.1794
     86  OG1       11.2500    8.6580   51.4010 O.3    45  THR45      -0.2208
     87  CG2       10.4560    6.9070   49.9650 C.3    45  THR45       0.0378
     88  N         18.6030    6.5320   53.0080 N.3    48  TYR48      -0.1241
     89  CA        19.6440    7.4930   53.3710 C.3    48  TYR48       0.1605
     90  C         20.8790    7.4170   52.4870 C.2    48  TYR48       0.2264
     91  O         21.5800    8.4050   52.3330 O.2    48  TYR48      -0.2867
     92  CB        19.9960    7.4090   54.8560 C.3    48  TYR48       0.0534
     93  CG        18.9180    8.0490   55.6920 C.ar   48  TYR48      -0.0201
     94  CD1       19.0470    9.3570   56.1330 C.ar   48  TYR48      -0.0009
     95  CD2       17.7420    7.3650   55.9960 C.ar   48  TYR48      -0.0009
     96  CE1       18.0530    9.9600   56.8790 C.ar   48  TYR48       0.0417
     97  CE2       16.7480    7.9580   56.7400 C.ar   48  TYR48       0.0417
     98  CZ        16.9060    9.2560   57.1820 C.ar   48  TYR48       0.1957
     99  OH        15.9220    9.8640   57.9210 O.3    48  TYR48      -0.2866
    100  N         19.9990    9.6720   49.8430 N.3    51  ARG51      -0.1245
    101  CA        19.9520   11.0400   50.3510 C.3    51  ARG51       0.1563
    102  C         21.3580   11.6250   50.5230 C.2    51  ARG51       0.2260
    103  O         21.5480   12.8370   50.4160 O.2    51  ARG51      -0.2867
    104  CB        19.1790   11.1150   51.6710 C.3    51  ARG51       0.0307
    105  CG        17.6910   10.8200   51.5410 C.3    51  ARG51       0.0489
    106  CD        16.9750   11.0130   52.8680 C.3    51  ARG51       0.2205
    107  NE        15.6730   10.3570   52.8900 N.pl3  51  ARG51      -0.0865
    108  CZ        14.8210   10.4230   53.9070 C.cat  51  ARG51       0.5346
    109  NH1       15.1330   11.1310   54.9810 N.pl3  51  ARG51       0.1354
    110  NH2       13.6580    9.7810   53.8500 N.pl3  51  ARG51       0.1354
    111  N         13.2390   14.2520   48.6010 N.3    57  ALA57      -0.1231
    112  CA        11.8420   13.9800   48.2980 C.3    57  ALA57       0.1694
    113  C         11.2480   15.1970   47.6300 C.2    57  ALA57       0.2592
    114  O         11.5950   16.3290   47.9660 O.2    57  ALA57      -0.2718
    115  CB        11.0710   13.6440   49.5650 C.3    57  ALA57       0.0304
    116  N         10.3620   14.9570   46.6710 N.am   58  GLY58      -0.1957
    117  CA         9.6940   16.0260   45.9560 C.3    58  GLY58       0.1869
    118  C         10.3820   16.3510   44.6470 C.2    58  GLY58       0.2309
    119  O          9.8110   17.0160   43.7820 O.2    58  GLY58      -0.2863
    120  N          6.4470    3.7080   42.9270 N.3    76  MET76      -0.1245
    121  CA         5.7060    3.6990   44.1790 C.3    76  MET76       0.1570
    122  C          4.5910    2.6640   44.1360 C.2    76  MET76       0.2261
    123  O          3.8630    2.5650   43.1510 O.2    76  MET76      -0.2867
    124  CB         5.1120    5.0770   44.4590 C.3    76  MET76       0.0387
    125  CG         4.6900    5.2630   45.9010 C.3    76  MET76       0.0595
    126  SD         3.8500    6.8150   46.1540 S.3    76  MET76      -0.1393
    127  CE         2.5830    6.7020   44.8910 C.3    76  MET76       0.0692
    128  N         -0.6840    7.7940   57.1430 N.3   104  ILE104     -0.1231
    129  CA        -0.0630    6.5360   56.7460 C.3   104  ILE104      0.1692
    130  C          1.3110    6.3760   57.3750 C.2   104  ILE104      0.2592
    131  O          1.7890    5.2650   57.6040 O.2   104  ILE104     -0.2718
    132  CB         0.0850    6.4450   55.2010 C.3   104  ILE104      0.0266
    133  CG1        0.3390    5.0070   54.7570 C.3   104  ILE104      0.0019
    134  CG2        1.1990    7.3510   54.6830 C.3   104  ILE104      0.0020
    135  CD1        0.5480    4.8820   53.2680 C.3   104  ILE104      0.0001
    136  N          1.9370    7.5000   57.6820 N.am  105  ASP105     -0.1974
    137  CA         3.3160    7.4670   58.0920 C.3   105  ASP105      0.1709
    138  C          3.5120    7.6250   59.5910 C.2   105  ASP105      0.2293
    139  O          4.5460    7.2440   60.1320 O.2   105  ASP105     -0.2864
    140  CB         4.1070    8.5350   57.3460 C.3   105  ASP105      0.1436
    141  CG         5.5470    8.5190   57.7230 C.2   105  ASP105      0.3671
    142  OD1        6.2950    7.6720   57.1900 O.co2 105  ASP105     -0.2456
    143  OD2        5.9150    9.3090   58.5970 O.co2 105  ASP105     -0.2456
    144  N         15.8860   11.6210   63.7250 N.3   160  LYS160     -0.1245
    145  CA        15.8530   10.6630   62.6150 C.3   160  LYS160      0.1561
    146  C         17.2440   10.3350   62.0700 C.2   160  LYS160      0.2260
    147  O         18.1180   11.1990   62.0510 O.2   160  LYS160     -0.2867
    148  CB        14.9780   11.2060   61.4790 C.3   160  LYS160      0.0271
    149  CG        13.5290   11.4220   61.8700 C.3   160  LYS160      0.0035
    150  CD        12.6970   11.9030   60.6910 C.3   160  LYS160      0.0206
    151  CE        11.2220   12.0850   61.0900 C.3   160  LYS160      0.1093
    152  NZ        10.3650   12.4230   59.9120 N.3   160  LYS160     -0.1314
@<TRIPOS>BOND
     1    65    64    2
     2    64    63    1
     3    63    62    1
     4    63    66    1
     5    67    66    1
     6    66    68    1
     7    69    70    1
     8   120   121    1
     9   123   122    2
    10    75    73    1
    11   119   118    2
    12    70    73    1
    13    70    71    1
    14   122   121    1
    15   121   124    1
    16    73    74    1
    17   124   125    1
    18   118   117    1
    19   127   126    1
    20    71    76   am
    21    71    72    2
    22    76    77    1
    23   125   126    1
    24   117   116    1
    25    80    77    1
    26   116   113   am
    27    77    78    1
    28    84    83    2
    29   113   114    2
    30   113   112    1
    31    81    78   am
    32    81    82    1
    33    78    79    2
    34   112   111    1
    35   112   115    1
    36    83    82    1
    37    82    85    1
    38    58    60   ar
    39    58    56   ar
    40    60    61   ar
    41   100   101    1
    42    87    85    1
    43    55    56    1
    44    55    52    1
    45    85    86    1
    46   101   102    1
    47   101   104    1
    48   103   102    2
    49    56    57   ar
    50    54    53    2
    51    61    59   ar
    52    53    52    1
    53    52    51    1
    54   105   104    1
    55   105   106    1
    56    57    59   ar
    57    91    90    2
    58    90    89    1
    59    51    42   am
    60   106   107    1
    61   107   108    2
    62    88    89    1
    63   135   133    1
    64    89    92    1
    65    31    30    2
    66    42    43    2
    67    42    41    1
    68   110   108    1
    69    34    36   ar
    70    34    33   ar
    71   108   109    1
    72    36    38   ar
    73    32    33    1
    74    32    29    1
    75    30    40   am
    76    30    29    1
    77   134   132    1
    78   133   132    1
    79    33    35   ar
    80    92    93    1
    81    41    40    1
    82    41    44    1
    83    29    28    1
    84   132   129    1
    85    47    49   ar
    86    47    45   ar
    87    44    45    1
    88    38    39    1
    89    38    37   ar
    90    49    50   ar
    91    45    46   ar
    92    93    95   ar
    93    93    94   ar
    94    95    97   ar
    95    50    48   ar
    96    46    48   ar
    97    35    37   ar
    98    94    96   ar
    99    28    22   am
   100    97    98   ar
   101   129   128    1
   102   129   130    1
   103    96    98   ar
   104    23    22    2
   105    98    99    1
   106   142   141   ar
   107   140   141    1
   108   140   137    1
   109   130   131    2
   110   130   136   am
   111    22    21    1
   112   136   137    1
   113   141   143   ar
   114   137   138    1
   115    12    11    2
   116    21    24    1
   117    21    20    1
   118    15    17   ar
   119    15    14   ar
   120    11    20   am
   121    11    10    1
   122    13    14    1
   123    13    10    1
   124    24    25    1
   125   138   139    2
   126    17    19   ar
   127   152   151    1
   128    14    16   ar
   129    10     9    1
   130     7     6   ar
   131   150   151    1
   132   150   149    1
   133    25    27   ar
   134    25    26   ar
   135     9     3   am
   136    19    18   ar
   137    16    18   ar
   138   148   149    1
   139   148   145    1
   140     6     8   ar
   141     6     5    1
   142     3     4    2
   143     3     2    1
   144   147   146    2
   145   146   145    1
   146   145   144    1
   147     2     5    1
   148     2     1    1
