@<TRIPOS>MOLECULE
tmp/4f56A00.pdb
 144 143 0 0 0
SMALL
GASTEIGER

@<TRIPOS>ATOM
      1  N        -18.8730    5.5960  -17.1070 N.3    36  ARG36      -0.1245
      2  CA       -18.2000    6.8330  -16.7280 C.3    36  ARG36       0.1563
      3  C        -18.2590    7.9150  -17.8060 C.2    36  ARG36       0.2260
      4  O        -17.8510    9.0500  -17.5680 O.2    36  ARG36      -0.2867
      5  CB       -16.7690    6.5210  -16.2620 C.3    36  ARG36       0.0307
      6  CG       -16.8150    5.7540  -14.9530 C.3    36  ARG36       0.0489
      7  CD       -15.5150    5.1450  -14.4410 C.3    36  ARG36       0.2205
      8  NE       -15.8280    4.4950  -13.1640 N.pl3  36  ARG36      -0.0865
      9  CZ       -16.3070    3.2570  -13.0320 C.cat  36  ARG36       0.5346
     10  NH1      -16.5940    2.7930  -11.8240 N.pl3  36  ARG36       0.1354
     11  NH2      -16.5020    2.4750  -14.0980 N.pl3  36  ARG36       0.1354
     12  N        -21.8920    3.2150   -9.9070 N.3    48  GLN48      -0.1245
     13  CA       -21.1880    2.9270   -8.6420 C.3    48  GLN48       0.1566
     14  C        -22.0020    3.2290   -7.3850 C.2    48  GLN48       0.2260
     15  O        -21.7280    2.6530   -6.3270 O.2    48  GLN48      -0.2867
     16  CB       -19.7790    3.5570   -8.5710 C.3    48  GLN48       0.0367
     17  CG       -19.7040    4.9950   -8.1090 C.3    48  GLN48       0.0905
     18  CD       -19.8340    5.9590   -9.2620 C.2    48  GLN48       0.2608
     19  OE1      -20.0890    5.5550  -10.4030 O.2    48  GLN48      -0.2717
     20  NE2      -19.6520    7.2450   -8.9790 N.am   48  GLN48      -0.0878
     21  N        -24.7750    0.0100   -7.8200 N.3    51  ALA51      -0.1245
     22  CA       -24.2360   -1.3420   -7.8930 C.3    51  ALA51       0.1562
     23  C        -23.4460   -1.6300   -6.6140 C.2    51  ALA51       0.2260
     24  O        -22.2190   -1.7110   -6.6190 O.2    51  ALA51      -0.2867
     25  CB       -23.3570   -1.5060   -9.1390 C.3    51  ALA51       0.0290
     26  N        -17.9790   -9.9760  -13.9880 N.3   123  HIS123     -0.1241
     27  CA       -18.9040   -9.2020  -13.1600 C.3   123  HIS123      0.1621
     28  C        -20.3250   -9.7180  -13.2030 C.2   123  HIS123      0.2264
     29  O        -21.2230   -9.0540  -12.7000 O.2   123  HIS123     -0.2867
     30  CB       -18.8510   -7.7050  -13.5170 C.3   123  HIS123      0.0745
     31  CG       -17.5320   -7.0450  -13.2030 C.ar  123  HIS123      0.0817
     32  ND1      -17.1590   -5.8670  -13.7520 N.ar  123  HIS123     -0.2268
     33  CD2      -16.5010   -7.4240  -12.3530 C.ar  123  HIS123      0.1154
     34  CE1      -15.9420   -5.5340  -13.2940 C.ar  123  HIS123      0.1986
     35  NE2      -15.5420   -6.4880  -12.4420 N.ar  123  HIS123     -0.2212
     36  N        -24.9430  -10.0220  -10.4050 N.3   185  VAL185     -0.1231
     37  CA       -23.9880   -9.0240  -10.8430 C.3   185  VAL185      0.1692
     38  C        -23.0550   -8.7130   -9.6600 C.2   185  VAL185      0.2592
     39  O        -23.5080   -8.5870   -8.5170 O.2   185  VAL185     -0.2718
     40  CB       -24.7110   -7.7380  -11.3300 C.3   185  VAL185      0.0266
     41  CG1      -23.7000   -6.6240  -11.6070 C.3   185  VAL185      0.0020
     42  CG2      -25.5600   -8.0080  -12.5870 C.3   185  VAL185      0.0020
     43  N        -21.7500   -8.6060   -9.9210 N.am  186  VAL186     -0.1966
     44  CA       -20.7900   -8.3020   -8.8630 C.3   186  VAL186      0.1727
     45  C        -20.8370   -6.7970   -8.5850 C.2   186  VAL186      0.2616
     46  O        -20.7230   -5.9580   -9.4900 O.2   186  VAL186     -0.2715
     47  CB       -19.3450   -8.7430   -9.2380 C.3   186  VAL186      0.0290
     48  CG1      -18.3630   -8.3950   -8.1180 C.3   186  VAL186      0.0023
     49  CG2      -19.2820  -10.2300   -9.5890 C.3   186  VAL186      0.0023
     50  N        -21.0800   -6.4700   -7.3290 N.am  187  TRP187     -0.1960
     51  CA       -21.1800   -5.0960   -6.8830 C.3   187  TRP187      0.1771
     52  C        -19.9470   -4.6440   -6.1610 C.2   187  TRP187      0.2620
     53  O        -19.1180   -5.4390   -5.7350 O.2   187  TRP187     -0.2715
     54  CB       -22.3920   -4.9740   -5.9700 C.3   187  TRP187      0.0590
     55  CG       -23.6850   -5.0800   -6.7310 C.ar  187  TRP187      0.0006
     56  CD1      -23.8920   -4.8170   -8.0800 C.ar  187  TRP187      0.0946
     57  CD2      -25.0050   -5.4270   -6.1920 C.ar  187  TRP187      0.0152
     58  NE1      -25.2380   -4.9800   -8.4170 N.ar  187  TRP187     -0.2442
     59  CE2      -25.9520   -5.3460   -7.3210 C.ar  187  TRP187      0.0810
     60  CE3      -25.4850   -5.8180   -4.9310 C.ar  187  TRP187      0.0012
     61  CZ2      -27.3130   -5.6280   -7.1660 C.ar  187  TRP187      0.0191
     62  CZ3      -26.8670   -6.0790   -4.7920 C.ar  187  TRP187      0.0001
     63  CH2      -27.7500   -5.9940   -5.8820 C.ar  187  TRP187      0.0015
     64  N        -19.8110   -3.3380   -6.0490 N.am  188  PHE188     -0.1960
     65  CA       -18.7480   -2.7560   -5.2690 C.3   188  PHE188      0.1771
     66  C        -18.7340   -3.2730   -3.8420 C.2   188  PHE188      0.2620
     67  O        -19.7690   -3.2880   -3.1590 O.2   188  PHE188     -0.2715
     68  CB       -18.8710   -1.2410   -5.3080 C.3   188  PHE188      0.0574
     69  CG       -18.3040   -0.6450   -6.5520 C.ar  188  PHE188     -0.0200
     70  CD1      -16.9280   -0.6300   -6.7510 C.ar  188  PHE188     -0.0042
     71  CD2      -19.1320   -0.1580   -7.5490 C.ar  188  PHE188     -0.0042
     72  CE1      -16.3830   -0.0940   -7.9060 C.ar  188  PHE188     -0.0003
     73  CE2      -18.6020    0.3780   -8.7050 C.ar  188  PHE188     -0.0003
     74  CZ       -17.2200    0.4160   -8.8830 C.ar  188  PHE188     -0.0000
     75  N        -17.5480   -3.6920   -3.4090 N.am  189  GLY189     -0.1940
     76  CA       -17.3580   -4.2320   -2.0790 C.3   189  GLY189      0.2014
     77  C        -17.5180   -5.7340   -2.0420 C.2   189  GLY189      0.2639
     78  O        -17.2280   -6.3670   -1.0150 O.2   189  GLY189     -0.2714
     79  N        -17.9730   -6.3150   -3.1520 N.am  190  GLU190     -0.1963
     80  CA       -18.2130   -7.7480   -3.2160 C.3   190  GLU190      0.1733
     81  C        -17.0950   -8.4680   -3.9430 C.2   190  GLU190      0.2616
     82  O        -16.4180   -7.8830   -4.7990 O.2   190  GLU190     -0.2715
     83  CB       -19.5480   -8.0330   -3.9020 C.3   190  GLU190      0.0429
     84  CG       -20.7530   -7.4550   -3.1760 C.3   190  GLU190      0.1163
     85  CD       -22.0560   -7.8620   -3.8220 C.2   190  GLU190      0.3649
     86  OE1      -23.0750   -7.8700   -3.0950 O.co2 190  GLU190     -0.2457
     87  OE2      -22.0690   -8.1720   -5.0430 O.co2 190  GLU190     -0.2457
     88  N        -16.9080   -9.7430   -3.5990 N.am  191  ASN191     -0.1958
     89  CA       -15.8870  -10.5920   -4.2210 C.3   191  ASN191      0.1819
     90  C        -16.2970  -11.1290   -5.5760 C.2   191  ASN191      0.2621
     91  O        -17.4040  -11.6400   -5.7310 O.2   191  ASN191     -0.2715
     92  CB       -15.6330  -11.8210   -3.3630 C.3   191  ASN191      0.1195
     93  CG       -14.7980  -11.5330   -2.1320 C.2   191  ASN191      0.2630
     94  OD1      -14.4000  -10.3920   -1.8480 O.2   191  ASN191     -0.2716
     95  ND2      -14.5260  -12.5860   -1.3900 N.am  191  ASN191     -0.0877
     96  N        -15.3840  -11.0750   -6.5370 N.am  192  LEU192     -0.1977
     97  CA       -15.5930  -11.7750   -7.8040 C.3   192  LEU192      0.1596
     98  C        -15.5490  -13.2590   -7.4840 C.2   192  LEU192      0.2287
     99  O        -14.9870  -13.6620   -6.4570 O.2   192  LEU192     -0.2864
    100  CB       -14.5110  -11.3920   -8.8260 C.3   192  LEU192      0.0297
    101  CG       -14.6880  -10.0290   -9.5280 C.3   192  LEU192      0.0022
    102  CD1      -14.5860   -8.8180   -8.5980 C.3   192  LEU192      0.0001
    103  CD2      -13.7300   -9.8690  -10.6890 C.3   192  LEU192      0.0001
    104  N        -11.9620  -16.3240  -11.0050 N.3   197  LEU197     -0.1245
    105  CA       -10.6330  -15.7310  -10.8100 C.3   197  LEU197      0.1561
    106  C         -9.4950  -16.7200  -11.0690 C.2   197  LEU197      0.2260
    107  O         -8.4620  -16.3480  -11.6330 O.2   197  LEU197     -0.2867
    108  CB       -10.5120  -15.0750   -9.4370 C.3   197  LEU197      0.0270
    109  CG       -11.2170  -13.7160   -9.3370 C.3   197  LEU197      0.0019
    110  CD1      -11.0330  -13.1060   -7.9470 C.3   197  LEU197      0.0001
    111  CD2      -10.7540  -12.7460  -10.4180 C.3   197  LEU197      0.0001
    112  N         -9.9200    1.6000  -14.0680 N.3   218  VAL218     -0.1231
    113  CA        -9.9770    2.1320  -12.6900 C.3   218  VAL218      0.1692
    114  C        -10.6760    1.1910  -11.7040 C.2   218  VAL218      0.2592
    115  O        -10.5590    1.3660  -10.4970 O.2   218  VAL218     -0.2718
    116  CB       -10.6520    3.5260  -12.5900 C.3   218  VAL218      0.0266
    117  CG1       -9.9130    4.5540  -13.4230 C.3   218  VAL218      0.0020
    118  CG2      -12.1370    3.4660  -12.9720 C.3   218  VAL218      0.0020
    119  N        -11.4130    0.2120  -12.2180 N.am  219  VAL219     -0.1966
    120  CA       -12.0810   -0.7660  -11.3690 C.3   219  VAL219      0.1727
    121  C        -11.2180   -2.0070  -11.1920 C.2   219  VAL219      0.2616
    122  O        -10.7710   -2.6140  -12.1670 O.2   219  VAL219     -0.2715
    123  CB       -13.5040   -1.1130  -11.8860 C.3   219  VAL219      0.0290
    124  CG1      -14.1170   -2.2350  -11.0590 C.3   219  VAL219      0.0023
    125  CG2      -14.4090    0.1240  -11.8220 C.3   219  VAL219      0.0023
    126  N        -10.9840   -2.3560   -9.9280 N.am  220  TYR220     -0.1960
    127  CA       -10.1670   -3.4960   -9.5300 C.3   220  TYR220      0.1756
    128  C        -11.0520   -4.6650   -9.1270 C.2   220  TYR220      0.2461
    129  O        -12.1950   -4.4500   -8.7220 O.2   220  TYR220     -0.2730
    130  CB        -9.2480   -3.0850   -8.3560 C.3   220  TYR220      0.0574
    131  CG        -8.1420   -2.1190   -8.7510 C.ar  220  TYR220     -0.0198
    132  CD1       -8.4300   -0.8070   -9.1370 C.ar  220  TYR220     -0.0009
    133  CD2       -6.8080   -2.5230   -8.7500 C.ar  220  TYR220     -0.0009
    134  CE1       -7.4200    0.0730   -9.4970 C.ar  220  TYR220      0.0417
    135  CE2       -5.7990   -1.6540   -9.1110 C.ar  220  TYR220      0.0417
    136  CZ        -6.1020   -0.3610   -9.4790 C.ar  220  TYR220      0.1957
    137  OH        -5.0740    0.4860   -9.8370 O.3   220  TYR220     -0.2866
    138  N        -10.5360   -5.9110   -9.2250 N.am  221  PRO221     -0.2727
    139  CA        -9.1940   -6.3000   -9.6810 C.3   221  PRO221      0.1402
    140  C         -8.9730   -6.2300  -11.2010 C.2   221  PRO221      0.2269
    141  O         -7.8160   -6.3310  -11.6450 O.2   221  PRO221     -0.2865
    142  CB        -9.0720   -7.7620   -9.2260 C.3   221  PRO221      0.0296
    143  CG       -10.4700   -8.2520   -9.1630 C.3   221  PRO221      0.0237
    144  CD       -11.3060   -7.0680   -8.7460 C.3   221  PRO221      0.0939
@<TRIPOS>BOND
     1     3     4    2
     2     3     2    1
     3     1     2    1
     4     2     5    1
     5     5     6    1
     6     6     7    1
     7     7     8    1
     8    11     9    1
     9   112   113    1
    10    26    27    1
    11    32    34   ar
    12    32    31   ar
    13    30    31    1
    14    30    27    1
    15   117   116    1
    16    34    35   ar
    17    31    33   ar
    18    28    27    1
    19    28    29    2
    20     8     9    2
    21     9    10    1
    22   118   116    1
    23   113   116    1
    24   113   114    1
    25    42    40    1
    26    35    33   ar
    27   119   114   am
    28   119   120    1
    29   122   121    2
    30   123   125    1
    31   123   120    1
    32   123   124    1
    33   114   115    2
    34   141   140    2
    35   107   106    2
    36    41    40    1
    37   120   121    1
    38    40    37    1
    39   140   139    1
    40   121   126   am
    41   106   105    1
    42   104   105    1
    43    37    36    1
    44    37    38    1
    45   105   108    1
    46   103   101    1
    47   111   109    1
    48    19    18    2
    49   126   127    1
    50    43    38   am
    51    43    44    1
    52    12    13    1
    53   137   136    1
    54   139   142    1
    55   139   138    1
    56    38    39    2
    57    49    47    1
    58   127   128    1
    59   127   130    1
    60   101   100    1
    61   101   102    1
    62   134   136   ar
    63   134   132   ar
    64    46    45    2
    65   136   135   ar
    66   108   109    1
    67   109   110    1
    68    18    20   am
    69    18    17    1
    70    47    44    1
    71    47    48    1
    72   142   143    1
    73   138   128   am
    74   138   144    1
    75   143   144    1
    76    25    22    1
    77   132   131   ar
    78   128   129    2
    79   135   133   ar
    80    74    73   ar
    81    74    72   ar
    82    44    45    1
    83   100    97    1
    84   131   133   ar
    85   131   130    1
    86    73    71   ar
    87    13    16    1
    88    13    14    1
    89    45    50   am
    90    16    17    1
    91    58    56   ar
    92    58    59   ar
    93    56    55   ar
    94    72    70   ar
    95    22    21    1
    96    22    23    1
    97    97    98    1
    98    97    96    1
    99    71    69   ar
   100    98    99    2
   101    14    15    2
   102    50    51    1
   103    59    61   ar
   104    59    57   ar
   105    61    63   ar
   106    51    52    1
   107    51    54    1
   108    70    69   ar
   109    55    57   ar
   110    55    54    1
   111    24    23    2
   112    69    68    1
   113    96    90   am
   114    57    60   ar
   115    52    64   am
   116    52    53    2
   117    64    65    1
   118    63    62   ar
   119    91    90    2
   120    90    89    1
   121    68    65    1
   122    65    66    1
   123    87    85   ar
   124    60    62   ar
   125    82    81    2
   126    89    88    1
   127    89    92    1
   128    81    88   am
   129    81    80    1
   130    83    80    1
   131    83    84    1
   132    66    75   am
   133    66    67    2
   134    85    84    1
   135    85    86   ar
   136    75    76    1
   137    92    93    1
   138    80    79    1
   139    79    77   am
   140    93    94    2
   141    93    95   am
   142    76    77    1
   143    77    78    2
