@<TRIPOS>MOLECULE
tmp/4f5bA00.pdb
 86 83 0 0 0
SMALL
GASTEIGER

@<TRIPOS>ATOM
      1  N         -7.5880   13.4090   -4.8390 N.3    15  ARG15      -0.1245
      2  CA        -7.6840   14.5840   -5.6960 C.3    15  ARG15       0.1563
      3  C         -8.7820   14.4080   -6.7490 C.2    15  ARG15       0.2260
      4  O         -9.6260   15.2930   -6.9300 O.2    15  ARG15      -0.2867
      5  CB        -6.3220   14.8340   -6.3620 C.3    15  ARG15       0.0307
      6  CG        -6.2290   16.0940   -7.2020 C.3    15  ARG15       0.0489
      7  CD        -4.9140   16.1730   -7.9720 C.3    15  ARG15       0.2205
      8  NE        -3.7860   15.6400   -7.1890 N.pl3  15  ARG15      -0.0865
      9  CZ        -3.1720   14.4600   -7.3740 C.cat  15  ARG15       0.5346
     10  NH1       -2.1930   14.0990   -6.5510 N.pl3  15  ARG15       0.1354
     11  NH2       -3.5080   13.6130   -8.3540 N.pl3  15  ARG15       0.1354
     12  N         -8.4170   18.6140    2.3530 N.3    35  ARG35      -0.1245
     13  CA        -8.1110   17.1650    2.3040 C.3    35  ARG35       0.1563
     14  C         -6.6480   16.9550    2.5890 C.2    35  ARG35       0.2260
     15  O         -5.8980   17.9460    2.5690 O.2    35  ARG35      -0.2867
     16  CB        -8.5000   16.5650    0.9540 C.3    35  ARG35       0.0307
     17  CG        -7.8030   17.2010   -0.2390 C.3    35  ARG35       0.0489
     18  CD        -8.2310   16.6320   -1.5580 C.3    35  ARG35       0.2205
     19  NE        -7.6130   17.4070   -2.6380 N.pl3  35  ARG35      -0.0865
     20  CZ        -6.3890   17.1630   -3.1230 C.cat  35  ARG35       0.5346
     21  NH1       -5.8820   17.9080   -4.0980 N.pl3  35  ARG35       0.1354
     22  NH2       -5.6670   16.1720   -2.6410 N.pl3  35  ARG35       0.1354
     23  N         -2.9600   15.9800    1.4050 N.3    37  SER37      -0.1202
     24  CA        -2.2680   15.9250    0.1200 C.3    37  SER37       0.2020
     25  C         -1.8930   14.4800   -0.2000 C.2    37  SER37       0.2619
     26  O         -1.3970   13.7450    0.6540 O.2    37  SER37      -0.2717
     27  CB        -1.0080   16.7740    0.1710 C.3    37  SER37       0.2103
     28  OG        -0.2570   16.6290   -1.0360 O.3    37  SER37      -0.2182
     29  N         -2.1040   14.1000   -1.4510 N.am   38  GLU38      -0.1965
     30  CA        -1.7210   12.7700   -1.9090 C.3    38  GLU38       0.1733
     31  C         -0.2360   12.7120   -2.2060 C.2    38  GLU38       0.2617
     32  O          0.3760   11.6370   -2.1750 O.2    38  GLU38      -0.2715
     33  CB        -2.4480   12.4680   -3.2150 C.3    38  GLU38       0.0429
     34  CG        -3.9000   12.2460   -3.0770 C.3    38  GLU38       0.1163
     35  CD        -4.4230   11.4790   -4.2620 C.2    38  GLU38       0.3649
     36  OE1       -5.1070   12.0540   -5.1020 O.co2  38  GLU38      -0.2457
     37  OE2       -4.1010   10.2890   -4.3690 O.co2  38  GLU38      -0.2457
     38  N          0.3500   13.8660   -2.5060 N.am   39  THR39      -0.1937
     39  CA         1.7500   13.8810   -2.9800 C.3    39  THR39       0.2028
     40  C          2.7690   14.3480   -1.9690 C.2    39  THR39       0.2642
     41  O          3.9450   13.9720   -2.0790 O.2    39  THR39      -0.2714
     42  CB         1.9180   14.6870   -4.2750 C.3    39  THR39       0.1808
     43  OG1        1.3260   15.9770   -4.1200 O.3    39  THR39      -0.2208
     44  CG2        1.2560   13.9720   -5.4280 C.3    39  THR39       0.0379
     45  N          2.3740   15.1640   -0.9910 N.am   40  VAL40      -0.1977
     46  CA         3.3080   15.6030    0.0380 C.3    40  VAL40       0.1596
     47  C          2.8500   15.0760    1.4050 C.2    40  VAL40       0.2287
     48  O          1.8240   15.5120    1.9370 O.2    40  VAL40      -0.2864
     49  CB         3.4880   17.1640    0.0420 C.3    40  VAL40       0.0276
     50  CG1        4.4300   17.5850    1.1340 C.3    40  VAL40       0.0022
     51  CG2        4.0070   17.6460   -1.2970 C.3    40  VAL40       0.0022
     52  N         -4.3780   19.9030    1.3260 N.3    45  ALA45      -0.1245
     53  CA        -4.6840   20.5760    0.0700 C.3    45  ALA45       0.1562
     54  C         -6.0320   21.2250    0.2190 C.2    45  ALA45       0.2260
     55  O         -6.9560   20.6700    0.8430 O.2    45  ALA45      -0.2867
     56  CB        -4.7030   19.5900   -1.0700 C.3    45  ALA45       0.0290
     57  N         -6.2140   23.4470   -7.0440 N.3    61  HIS61      -0.1226
     58  CA        -5.6820   22.8170   -5.8220 C.3    61  HIS61       0.1752
     59  C         -4.5140   23.6320   -5.2720 C.2    61  HIS61       0.2596
     60  O         -3.5820   23.9760   -6.0030 O.2    61  HIS61      -0.2718
     61  CB        -5.2220   21.3740   -6.0980 C.3    61  HIS61       0.0759
     62  CG        -6.2930   20.5160   -6.7010 C.ar   61  HIS61       0.0818
     63  ND1       -7.2680   19.8840   -5.9530 N.ar   61  HIS61      -0.2268
     64  CD2       -6.5450   20.1980   -7.9940 C.ar   61  HIS61       0.1154
     65  CE1       -8.0750   19.2190   -6.7610 C.ar   61  HIS61       0.1986
     66  NE2       -7.6610   19.3920   -8.0020 N.ar   61  HIS61      -0.2212
     67  N         -4.5480   23.8940   -3.9630 N.am   62  TYR62      -0.1962
     68  CA        -3.4620   24.6330   -3.3150 C.3    62  TYR62       0.1771
     69  C         -2.8830   23.7760   -2.2270 C.2    62  TYR62       0.2619
     70  O         -3.6190   23.2050   -1.4230 O.2    62  TYR62      -0.2715
     71  CB        -4.0130   25.9140   -2.7050 C.3    62  TYR62       0.0574
     72  CG        -4.6600   26.7870   -3.7520 C.ar   62  TYR62      -0.0198
     73  CD1       -6.0300   26.7860   -3.9390 C.ar   62  TYR62      -0.0009
     74  CD2       -3.8690   27.5630   -4.6100 C.ar   62  TYR62      -0.0009
     75  CE1       -6.6260   27.5850   -4.9290 C.ar   62  TYR62       0.0417
     76  CE2       -4.4410   28.3410   -5.5780 C.ar   62  TYR62       0.0417
     77  CZ        -5.8030   28.3500   -5.7410 C.ar   62  TYR62       0.1957
     78  OH        -6.3160   29.1410   -6.7410 O.3    62  TYR62      -0.2866
     79  N         -1.5660   23.7350   -2.1680 N.am   63  LEU63      -0.1977
     80  CA        -0.8710   22.9680   -1.1750 C.3    63  LEU63       0.1596
     81  C         -0.7510   23.7200    0.1330 C.2    63  LEU63       0.2287
     82  O         -0.2170   24.8420    0.1680 O.2    63  LEU63      -0.2864
     83  CB         0.5000   22.6110   -1.7170 C.3    63  LEU63       0.0297
     84  CG         1.3130   21.6030   -0.9380 C.3    63  LEU63       0.0022
     85  CD1        0.6640   20.2060   -0.8280 C.3    63  LEU63       0.0001
     86  CD2        2.7010   21.5030   -1.5790 C.3    63  LEU63       0.0001
@<TRIPOS>BOND
     1    11     9    1
     2    66    64   ar
     3    66    65   ar
     4    64    62   ar
     5     7     6    1
     6     7     8    1
     7     9     8    2
     8     9    10    1
     9     6     5    1
    10    57    58    1
    11     4     3    2
    12    65    63   ar
    13     3     2    1
    14    78    77    1
    15    62    61    1
    16    62    63   ar
    17     5     2    1
    18    61    58    1
    19    60    59    2
    20    58    59    1
    21    77    76   ar
    22    77    75   ar
    23     2     1    1
    24    76    74   ar
    25    44    42    1
    26    59    67   am
    27    36    35   ar
    28    75    73   ar
    29    74    72   ar
    30    37    35   ar
    31    42    43    1
    32    42    39    1
    33    35    34    1
    34    21    20    1
    35    67    68    1
    36    73    72   ar
    37    72    71    1
    38    68    71    1
    39    68    69    1
    40    33    34    1
    41    33    30    1
    42    20    22    1
    43    20    19    2
    44    39    38    1
    45    39    40    1
    46    19    18    1
    47    38    31   am
    48    69    79   am
    49    69    70    2
    50    31    32    2
    51    31    30    1
    52    79    80    1
    53    41    40    2
    54    40    45   am
    55    30    29    1
    56    83    80    1
    57    83    84    1
    58    86    84    1
    59    18    17    1
    60    29    25   am
    61    51    49    1
    62    80    81    1
    63    56    53    1
    64    28    27    1
    65    45    46    1
    66    84    85    1
    67    17    16    1
    68    25    24    1
    69    25    26    2
    70    46    49    1
    71    46    47    1
    72    49    50    1
    73    53    54    1
    74    53    52    1
    75    24    27    1
    76    24    23    1
    77    81    82    2
    78    54    55    2
    79    16    13    1
    80    47    48    2
    81    13    12    1
    82    13    14    1
    83    15    14    2
