@<TRIPOS>MOLECULE
tmp/4f5eA00.pdb
 87 87 0 0 0
SMALL
GASTEIGER

@<TRIPOS>ATOM
      1  N         -3.0700    3.1340    2.8000 N.3    12  SER12      -0.1202
      2  CA        -3.9320    2.1260    2.1990 C.3    12  SER12       0.2020
      3  C         -4.6460    1.3320    3.2880 C.2    12  SER12       0.2618
      4  O         -5.8300    1.0210    3.1710 O.2    12  SER12      -0.2717
      5  CB        -3.1190    1.1910    1.3030 C.3    12  SER12       0.2103
      6  OG        -3.9620    0.2970    0.6010 O.3    12  SER12      -0.2182
      7  N         -3.9160    1.0170    4.3520 N.am   13  TYR13      -0.1975
      8  CA        -4.4570    0.2650    5.4750 C.3    13  TYR13       0.1639
      9  C         -5.6080    1.0270    6.1260 C.2    13  TYR13       0.2290
     10  O         -6.6690    0.4610    6.3860 O.2    13  TYR13      -0.2864
     11  CB        -3.3460   -0.0140    6.4890 C.3    13  TYR13       0.0560
     12  CG        -3.7440   -0.9030    7.6460 C.ar   13  TYR13      -0.0198
     13  CD1       -4.2790   -2.1660    7.4300 C.ar   13  TYR13      -0.0009
     14  CD2       -3.5540   -0.4890    8.9560 C.ar   13  TYR13      -0.0009
     15  CE1       -4.6330   -2.9830    8.4890 C.ar   13  TYR13       0.0417
     16  CE2       -3.9010   -1.2950   10.0190 C.ar   13  TYR13       0.0417
     17  CZ        -4.4400   -2.5420    9.7830 C.ar   13  TYR13       0.1957
     18  OH        -4.7880   -3.3500   10.8440 O.3    13  TYR13      -0.2866
     19  N         -8.4390    1.8700    3.1690 N.3    16  GLY16      -0.1210
     20  CA        -9.0700    0.6990    2.5890 C.3    16  GLY16       0.1956
     21  C         -9.6220   -0.3130    3.5740 C.2    16  GLY16       0.2611
     22  O        -10.3550   -1.2210    3.1800 O.2    16  GLY16      -0.2717
     23  N         -9.2830   -0.1650    4.8520 N.am   17  TYR17      -0.1976
     24  CA        -9.7020   -1.1300    5.8630 C.3    17  TYR17       0.1639
     25  C        -10.1750   -0.4730    7.1610 C.2    17  TYR17       0.2290
     26  O        -11.3710   -0.4410    7.4540 O.2    17  TYR17      -0.2864
     27  CB        -8.5590   -2.1040    6.1560 C.3    17  TYR17       0.0560
     28  CG        -8.9110   -3.1740    7.1610 C.ar   17  TYR17      -0.0198
     29  CD1       -8.2880   -3.2260    8.4020 C.ar   17  TYR17      -0.0009
     30  CD2       -9.8720   -4.1300    6.8700 C.ar   17  TYR17      -0.0009
     31  CE1       -8.6110   -4.2050    9.3220 C.ar   17  TYR17       0.0417
     32  CE2      -10.2010   -5.1100    7.7800 C.ar   17  TYR17       0.0417
     33  CZ        -9.5690   -5.1440    9.0040 C.ar   17  TYR17       0.1957
     34  OH        -9.8980   -6.1200    9.9130 O.3    17  TYR17      -0.2866
     35  N        -16.4620   -7.8090    6.7090 N.3    90  TYR90      -0.1227
     36  CA       -15.1180   -8.2910    7.0370 C.3    90  TYR90       0.1736
     37  C        -15.1350   -9.3600    8.1330 C.2    90  TYR90       0.2596
     38  O        -15.9270   -9.2860    9.0710 O.2    90  TYR90      -0.2718
     39  CB       -14.2300   -7.1300    7.4940 C.3    90  TYR90       0.0548
     40  CG       -14.2140   -5.9420    6.5590 C.ar   90  TYR90      -0.0200
     41  CD1      -13.2970   -5.8640    5.5200 C.ar   90  TYR90      -0.0009
     42  CD2      -15.1090   -4.8920    6.7230 C.ar   90  TYR90      -0.0009
     43  CE1      -13.2760   -4.7780    4.6650 C.ar   90  TYR90       0.0417
     44  CE2      -15.0950   -3.8020    5.8730 C.ar   90  TYR90       0.0417
     45  CZ       -14.1770   -3.7500    4.8470 C.ar   90  TYR90       0.1957
     46  OH       -14.1620   -2.6670    4.0010 O.3    90  TYR90      -0.2866
     47  N        -14.2490  -10.3460    8.0270 N.am   91  SER91      -0.1952
     48  CA       -14.1300  -11.3550    9.0760 C.3    91  SER91       0.1924
     49  C        -13.1830  -10.8850   10.1840 C.2    91  SER91       0.2314
     50  O        -12.0550  -10.4810    9.9100 O.2    91  SER91      -0.2863
     51  CB       -13.6590  -12.6930    8.4990 C.3    91  SER91       0.2116
     52  OG       -12.3010  -12.6380    8.0950 O.3    91  SER91      -0.2180
     53  N         -5.9830   -8.8380   15.9270 N.3   110  GLU110     -0.1231
     54  CA        -5.4300   -9.1640   14.6130 C.3   110  GLU110      0.1699
     55  C         -4.1380   -8.4100   14.3060 C.2   110  GLU110      0.2592
     56  O         -3.8940   -7.3250   14.8340 O.2   110  GLU110     -0.2718
     57  CB        -6.4620   -8.8990   13.5150 C.3   110  GLU110      0.0402
     58  CG        -6.8670   -7.4450   13.3880 C.3   110  GLU110      0.1161
     59  CD        -7.9490   -7.2330   12.3480 C.2   110  GLU110      0.3649
     60  OE1       -7.7390   -6.4190   11.4250 O.co2 110  GLU110     -0.2457
     61  OE2       -9.0150   -7.8750   12.4520 O.co2 110  GLU110     -0.2457
     62  N         -3.3150   -8.9990   13.4440 N.am  111  TYR111     -0.1976
     63  CA        -2.0800   -8.3660   12.9930 C.3   111  TYR111      0.1639
     64  C         -2.3630   -7.2880   11.9510 C.2   111  TYR111      0.2290
     65  O         -3.3770   -7.3360   11.2610 O.2   111  TYR111     -0.2864
     66  CB        -1.1410   -9.4100   12.3830 C.3   111  TYR111      0.0560
     67  CG        -0.4830  -10.3310   13.3870 C.ar  111  TYR111     -0.0198
     68  CD1        0.6540   -9.9340   14.0780 C.ar  111  TYR111     -0.0009
     69  CD2       -0.9850  -11.6030   13.6290 C.ar  111  TYR111     -0.0009
     70  CE1        1.2640  -10.7710   14.9910 C.ar  111  TYR111      0.0417
     71  CE2       -0.3810  -12.4480   14.5410 C.ar  111  TYR111      0.0417
     72  CZ         0.7430  -12.0270   15.2180 C.ar  111  TYR111      0.1957
     73  OH         1.3480  -12.8650   16.1270 O.3   111  TYR111     -0.2866
     74  N         -1.9710   -6.3720    8.5900 N.3   113  THR113     -0.1204
     75  CA        -1.6770   -7.1150    7.3670 C.3   113  THR113      0.1979
     76  C         -0.5420   -6.5330    6.5080 C.2   113  THR113      0.2459
     77  O          0.2700   -7.2890    5.9650 O.2   113  THR113     -0.2732
     78  CB        -2.9410   -7.2560    6.4970 C.3   113  THR113      0.1783
     79  OG1       -4.0750   -7.5460    7.3260 O.3   113  THR113     -0.2211
     80  CG2       -2.7640   -8.3560    5.4640 C.3   113  THR113      0.0376
     81  N         -0.4930   -5.1950    6.3600 N.am  114  PRO114     -0.2728
     82  CA         0.5430   -4.6070    5.5020 C.3   114  PRO114      0.1401
     83  C          1.9580   -5.0200    5.8990 C.2   114  PRO114      0.2269
     84  O          2.8650   -4.9030    5.0800 O.2   114  PRO114     -0.2865
     85  CB         0.3570   -3.1050    5.7160 C.3   114  PRO114      0.0296
     86  CG        -1.1100   -2.9540    6.0280 C.3   114  PRO114      0.0237
     87  CD        -1.4550   -4.1830    6.8410 C.3   114  PRO114      0.0939
@<TRIPOS>BOND
     1     6     5    1
     2     5     2    1
     3     2     1    1
     4     2     3    1
     5    20    19    1
     6    20    21    1
     7     4     3    2
     8    22    21    2
     9     3     7   am
    10    21    23   am
    11    46    45    1
    12     7     8    1
    13    43    45   ar
    14    43    41   ar
    15    45    44   ar
    16    23    24    1
    17    84    83    2
    18    80    78    1
    19     8     9    1
    20     8    11    1
    21    82    85    1
    22    82    83    1
    23    82    81    1
    24    41    40   ar
    25    85    86    1
    26    24    27    1
    27    24    25    1
    28    44    42   ar
    29    77    76    2
    30    86    87    1
    31     9    10    2
    32    27    28    1
    33    81    76   am
    34    81    87    1
    35    11    12    1
    36    78    79    1
    37    78    75    1
    38    76    75    1
    39    40    42   ar
    40    40    39    1
    41    35    36    1
    42    30    28   ar
    43    30    32   ar
    44    36    39    1
    45    36    37    1
    46    25    26    2
    47    28    29   ar
    48    75    74    1
    49    13    12   ar
    50    13    15   ar
    51    12    14   ar
    52    32    33   ar
    53    47    37   am
    54    47    48    1
    55    52    51    1
    56    37    38    2
    57    29    31   ar
    58    15    17   ar
    59    51    48    1
    60    14    16   ar
    61    33    31   ar
    62    33    34    1
    63    48    49    1
    64    17    16   ar
    65    17    18    1
    66    50    49    2
    67    65    64    2
    68    60    59   ar
    69    64    63    1
    70    59    61   ar
    71    59    58    1
    72    66    63    1
    73    66    67    1
    74    63    62    1
    75    67    69   ar
    76    67    68   ar
    77    58    57    1
    78    62    55   am
    79    57    54    1
    80    69    71   ar
    81    68    70   ar
    82    55    54    1
    83    55    56    2
    84    71    72   ar
    85    54    53    1
    86    70    72   ar
    87    72    73    1
