@<TRIPOS>MOLECULE
tmp/4f5iB00.pdb
 81 76 0 0 0
SMALL
GASTEIGER

@<TRIPOS>ATOM
      1  N         43.0980   88.1010   69.0270 N.3    17  ILE17      -0.1245
      2  CA        41.7030   87.6970   69.1390 C.3    17  ILE17       0.1561
      3  C         41.5060   86.2690   68.6510 C.2    17  ILE17       0.2260
      4  O         40.7860   85.4820   69.2680 O.2    17  ILE17      -0.2867
      5  CB        40.7930   88.6020   68.2900 C.3    17  ILE17       0.0252
      6  CG1       40.7640   90.0230   68.8600 C.3    17  ILE17       0.0019
      7  CG2       39.3950   88.0230   68.2080 C.3    17  ILE17       0.0019
      8  CD1       40.3100   91.0710   67.8470 C.3    17  ILE17       0.0001
      9  N         42.8180   83.7540   71.0110 N.3    20  LEU20      -0.1231
     10  CA        41.9710   83.6850   72.1950 C.3    20  LEU20       0.1693
     11  C         40.6880   82.9130   71.8850 C.2    20  LEU20       0.2591
     12  O         40.1950   82.1630   72.7280 O.2    20  LEU20      -0.2718
     13  CB        41.6570   85.0900   72.7310 C.3    20  LEU20       0.0284
     14  CG        40.9200   85.2410   74.0770 C.3    20  LEU20       0.0019
     15  CD1       41.6770   84.5640   75.2250 C.3    20  LEU20       0.0001
     16  CD2       40.6980   86.7110   74.3980 C.3    20  LEU20       0.0001
     17  N         40.1690   83.0880   70.6700 N.am   21  ALA21      -0.1980
     18  CA        38.9750   82.3770   70.2140 C.3    21  ALA21       0.1597
     19  C         39.2250   80.8750   70.1090 C.2    21  ALA21       0.2287
     20  O         38.3930   80.0600   70.5170 O.2    21  ALA21      -0.2864
     21  CB        38.5130   82.9270   68.8770 C.3    21  ALA21       0.0319
     22  N         39.1260   79.5010   73.4840 N.3    24  PHE24      -0.1227
     23  CA        37.7420   79.3810   73.9380 C.3    24  PHE24       0.1736
     24  C         37.0360   78.1370   73.4060 C.2    24  PHE24       0.2595
     25  O         36.3460   77.4350   74.1550 O.2    24  PHE24      -0.2718
     26  CB        36.9210   80.6120   73.5520 C.3    24  PHE24       0.0547
     27  CG        35.5300   80.5960   74.1160 C.ar   24  PHE24      -0.0202
     28  CD1       35.2690   81.1380   75.3570 C.ar   24  PHE24      -0.0042
     29  CD2       34.4870   80.0190   73.4140 C.ar   24  PHE24      -0.0042
     30  CE1       33.9930   81.1170   75.8870 C.ar   24  PHE24      -0.0003
     31  CE2       33.1920   79.9920   73.9370 C.ar   24  PHE24      -0.0003
     32  CZ        32.9460   80.5470   75.1730 C.ar   24  PHE24      -0.0000
     33  N         37.1920   77.8830   72.1110 N.am   25  ARG25      -0.1980
     34  CA        36.5330   76.7480   71.4750 C.3    25  ARG25       0.1597
     35  C         37.1260   75.4240   71.9440 C.2    25  ARG25       0.2287
     36  O         36.4430   74.4090   71.9700 O.2    25  ARG25      -0.2864
     37  CB        36.5940   76.8510   69.9380 C.3    25  ARG25       0.0334
     38  CG        35.7060   77.9490   69.3360 C.3    25  ARG25       0.0492
     39  CD        35.6990   77.9000   67.8040 C.3    25  ARG25       0.2205
     40  NE        36.9660   78.3690   67.2480 N.pl3  25  ARG25      -0.0865
     41  CZ        37.1770   79.6210   66.8500 C.cat  25  ARG25       0.5346
     42  NH1       36.1970   80.5160   66.9250 N.pl3  25  ARG25       0.1354
     43  NH2       38.3620   79.9770   66.3700 N.pl3  25  ARG25       0.1354
     44  N         31.9580   83.8830   77.7880 N.3    34  ASP34      -0.1239
     45  CA        32.6310   84.6260   76.7440 C.3    34  ASP34       0.1674
     46  C         32.2040   86.0860   76.7410 C.2    34  ASP34       0.2266
     47  O         31.1580   86.4260   76.2140 O.2    34  ASP34      -0.2867
     48  CB        32.3130   83.9900   75.3950 C.3    34  ASP34       0.1410
     49  CG        33.0490   84.6500   74.2530 C.2    34  ASP34       0.3668
     50  OD1       33.8000   85.6270   74.5050 O.co2  34  ASP34      -0.2456
     51  OD2       32.8640   84.1900   73.1060 O.co2  34  ASP34      -0.2456
     52  N         34.3410   88.3540   75.3890 N.3    36  GLY36      -0.1210
     53  CA        35.2280   88.9690   74.4150 C.3    36  GLY36       0.1956
     54  C         34.6000   89.1830   73.0530 C.2    36  GLY36       0.2611
     55  O         35.2100   89.7860   72.1660 O.2    36  GLY36      -0.2717
     56  N         33.3780   88.6950   72.8700 N.am   37  VAL37      -0.1979
     57  CA        32.7460   88.7490   71.5370 C.3    37  VAL37       0.1595
     58  C         32.5530   90.1940   71.0670 C.2    37  VAL37       0.2287
     59  O         32.4140   91.1060   71.8830 O.2    37  VAL37      -0.2864
     60  CB        31.3830   87.9970   71.5040 C.3    37  VAL37       0.0276
     61  CG1       31.5830   86.5140   71.7280 C.3    37  VAL37       0.0022
     62  CG2       30.4520   88.5520   72.5500 C.3    37  VAL37       0.0022
     63  N         36.2280   84.8080   79.9260 N.3   371  TYR371     -0.1241
     64  CA        37.0970   85.3380   78.8750 C.3   371  TYR371      0.1605
     65  C         36.7930   86.8010   78.5850 C.2   371  TYR371      0.2264
     66  O         35.6670   87.1500   78.1840 O.2   371  TYR371     -0.2867
     67  CB        36.9100   84.5410   77.5960 C.3   371  TYR371      0.0534
     68  CG        37.5070   83.1440   77.6120 C.ar  371  TYR371     -0.0201
     69  CD1       38.5860   82.8230   76.7830 C.ar  371  TYR371     -0.0009
     70  CD2       36.9900   82.1490   78.4350 C.ar  371  TYR371     -0.0009
     71  CE1       39.1250   81.5530   76.7630 C.ar  371  TYR371      0.0417
     72  CE2       37.5330   80.8610   78.4280 C.ar  371  TYR371      0.0417
     73  CZ        38.6050   80.5730   77.5860 C.ar  371  TYR371      0.1957
     74  OH        39.1600   79.3100   77.5530 O.3   371  TYR371     -0.2866
     75  N         38.8660   90.4520   76.7190 N.3   373  VAL373     -0.1245
     76  CA        39.9960   90.7860   75.8710 C.3   373  VAL373      0.1561
     77  C         41.1230   91.3570   76.7460 C.2   373  VAL373      0.2260
     78  O         40.8730   91.8330   77.8600 O.2   373  VAL373     -0.2867
     79  CB        39.5930   91.7400   74.7160 C.3   373  VAL373      0.0252
     80  CG1       40.8160   92.1940   73.9650 C.3   373  VAL373      0.0019
     81  CG2       38.6530   91.0290   73.7550 C.3   373  VAL373      0.0019
@<TRIPOS>BOND
     1    43    41    1
     2    41    42    1
     3    41    40    2
     4    40    39    1
     5    39    38    1
     6     8     6    1
     7     7     5    1
     8     5     6    1
     9     5     2    1
    10     3     2    1
    11     3     4    2
    12    21    18    1
    13     1     2    1
    14    38    37    1
    15    37    34    1
    16    19    18    1
    17    19    20    2
    18    18    17    1
    19    17    11   am
    20     9    10    1
    21    58    57    1
    22    58    59    2
    23    34    35    1
    24    34    33    1
    25    60    57    1
    26    60    61    1
    27    60    62    1
    28    57    56    1
    29    11    10    1
    30    11    12    2
    31    35    36    2
    32    33    24   am
    33    55    54    2
    34    10    13    1
    35    13    14    1
    36    56    54   am
    37    54    53    1
    38    51    49   ar
    39    24    23    1
    40    24    25    2
    41    29    31   ar
    42    29    27   ar
    43    22    23    1
    44    26    23    1
    45    26    27    1
    46    81    79    1
    47    31    32   ar
    48    80    79    1
    49    14    16    1
    50    14    15    1
    51    27    28   ar
    52    49    50   ar
    53    49    48    1
    54    53    52    1
    55    79    76    1
    56    32    30   ar
    57    28    30   ar
    58    48    45    1
    59    76    75    1
    60    76    77    1
    61    47    46    2
    62    46    45    1
    63    45    44    1
    64    77    78    2
    65    71    69   ar
    66    71    73   ar
    67    69    68   ar
    68    74    73    1
    69    73    72   ar
    70    67    68    1
    71    67    64    1
    72    68    70   ar
    73    66    65    2
    74    72    70   ar
    75    65    64    1
    76    64    63    1
