@<TRIPOS>MOLECULE
tmp/4f5sA00.pdb
 147 140 0 0 0
SMALL
GASTEIGER

@<TRIPOS>ATOM
      1  N         22.7320   23.7070  123.4950 N.3   400  TYR400     -0.1241
      2  CA        23.5850   22.5640  123.1870 C.3   400  TYR400      0.1605
      3  C         23.3470   21.4400  124.1840 C.2   400  TYR400      0.2264
      4  O         23.1160   20.2880  123.7690 O.2   400  TYR400     -0.2867
      5  CB        25.0610   22.9630  123.1720 C.3   400  TYR400      0.0534
      6  CG        26.0550   21.9110  122.7170 C.ar  400  TYR400     -0.0201
      7  CD1       25.8230   21.1080  121.5870 C.ar  400  TYR400     -0.0009
      8  CD2       27.2870   21.7780  123.3680 C.ar  400  TYR400     -0.0009
      9  CE1       26.7630   20.1870  121.1640 C.ar  400  TYR400      0.0417
     10  CE2       28.2250   20.8720  122.9640 C.ar  400  TYR400      0.0417
     11  CZ        27.9770   20.0660  121.8560 C.ar  400  TYR400      0.1957
     12  OH        28.9770   19.1600  121.4320 O.3   400  TYR400     -0.2866
     13  N         21.8290   17.4410  123.4590 N.3   404  ASN404     -0.1240
     14  CA        22.3590   16.2040  124.0030 C.3   404  ASN404      0.1653
     15  C         21.3730   15.6220  125.0410 C.2   404  ASN404      0.2266
     16  O         21.3140   14.4340  125.2950 O.2   404  ASN404     -0.2867
     17  CB        23.7350   16.4730  124.6620 C.3   404  ASN404      0.1155
     18  CG        24.7170   17.2220  123.7350 C.2   404  ASN404      0.2627
     19  OD1       24.5650   17.2340  122.5380 O.2   404  ASN404     -0.2716
     20  ND2       25.7080   17.8410  124.3010 N.am  404  ASN404     -0.0877
     21  N         29.6470   -3.5070  119.7870 N.3   501  PHE501     -0.1241
     22  CA        30.6300   -2.4490  119.8590 C.3   501  PHE501      0.1605
     23  C         31.3420   -2.3140  118.5430 C.2   501  PHE501      0.2264
     24  O         31.6320   -3.3140  117.9240 O.2   501  PHE501     -0.2867
     25  CB        31.6400   -2.7160  120.9890 C.3   501  PHE501      0.0534
     26  CG        32.7380   -1.7060  121.0560 C.ar  501  PHE501     -0.0203
     27  CD1       32.4930   -0.4250  121.4980 C.ar  501  PHE501     -0.0042
     28  CD2       34.0120   -2.0380  120.6470 C.ar  501  PHE501     -0.0042
     29  CE1       33.4900    0.4850  121.5680 C.ar  501  PHE501     -0.0003
     30  CE2       35.0160   -1.1450  120.7240 C.ar  501  PHE501     -0.0003
     31  CZ        34.7820    0.1030  121.1720 C.ar  501  PHE501     -0.0000
     32  N         34.1410    5.4610  117.4810 N.3   506  PHE506     -0.1241
     33  CA        34.5420    6.1420  118.6850 C.3   506  PHE506      0.1605
     34  C         36.0040    6.4230  118.6310 C.2   506  PHE506      0.2264
     35  O         36.6130    6.5570  119.6580 O.2   506  PHE506     -0.2867
     36  CB        34.2250    5.2960  119.9110 C.3   506  PHE506      0.0534
     37  CG        32.7610    5.0030  120.1210 C.ar  506  PHE506     -0.0203
     38  CD1       32.2880    3.6890  120.0450 C.ar  506  PHE506     -0.0042
     39  CD2       31.8670    5.9950  120.4320 C.ar  506  PHE506     -0.0042
     40  CE1       30.9180    3.3640  120.2570 C.ar  506  PHE506     -0.0003
     41  CE2       30.4490    5.6770  120.6960 C.ar  506  PHE506     -0.0003
     42  CZ        30.0010    4.3740  120.5770 C.ar  506  PHE506     -0.0000
     43  N         38.8030    9.1490  116.9380 N.3   508  PHE508     -0.1241
     44  CA        38.8110   10.5630  116.6360 C.3   508  PHE508      0.1605
     45  C         40.2250   10.9450  116.1830 C.2   508  PHE508      0.2264
     46  O         41.2060   10.3810  116.6510 O.2   508  PHE508     -0.2867
     47  CB        38.3750   11.3640  117.8680 C.3   508  PHE508      0.0534
     48  CG        36.9790   10.9930  118.3980 C.ar  508  PHE508     -0.0203
     49  CD1       35.8280   11.6120  117.8870 C.ar  508  PHE508     -0.0042
     50  CD2       36.8120   10.0160  119.3700 C.ar  508  PHE508     -0.0042
     51  CE1       34.5380   11.2840  118.3330 C.ar  508  PHE508     -0.0003
     52  CE2       35.4430    9.6720  119.8740 C.ar  508  PHE508     -0.0003
     53  CZ        34.3230   10.2830  119.3230 C.ar  508  PHE508     -0.0000
     54  N         30.4690   15.0800  117.4380 N.3   524  LYS524     -0.1245
     55  CA        30.2560   14.6750  118.8220 C.3   524  LYS524      0.1561
     56  C         28.8830   14.1390  119.0740 C.2   524  LYS524      0.2260
     57  O         28.7780   13.2050  119.8610 O.2   524  LYS524     -0.2867
     58  CB        30.4290   15.8520  119.7360 C.3   524  LYS524      0.0271
     59  CG        31.8270   16.1640  120.0320 C.3   524  LYS524      0.0035
     60  CD        31.9720   17.6190  120.4720 C.3   524  LYS524      0.0206
     61  CE        33.1860   18.1940  119.6970 C.3   524  LYS524      0.1093
     62  NZ        33.6870   19.4900  120.1370 N.3   524  LYS524     -0.1314
     63  N         28.4500   10.5120  118.0600 N.3   527  ALA527     -0.1231
     64  CA        29.1480    9.5460  118.9160 C.3   527  ALA527      0.1694
     65  C         28.2910    9.4180  120.1800 C.2   527  ALA527      0.2591
     66  O         28.1710    8.3520  120.7820 O.2   527  ALA527     -0.2718
     67  CB        30.5510   10.0380  119.2100 C.3   527  ALA527      0.0304
     68  N         27.6650   10.5030  120.5820 N.am  528  LEU528     -0.1980
     69  CA        26.7150   10.4020  121.6440 C.3   528  LEU528      0.1596
     70  C         25.6390    9.3590  121.3610 C.2   528  LEU528      0.2287
     71  O         25.3310    8.5560  122.2490 O.2   528  LEU528     -0.2864
     72  CB        26.0890   11.7640  121.9570 C.3   528  LEU528      0.0297
     73  CG        25.2450   11.7010  123.2300 C.3   528  LEU528      0.0022
     74  CD1       26.1040   11.2630  124.3850 C.3   528  LEU528      0.0001
     75  CD2       24.6080   13.0490  123.5680 C.3   528  LEU528      0.0001
     76  N         27.0710    5.7740  121.1640 N.3   531  LEU531     -0.1245
     77  CA        27.2290    5.3140  122.5570 C.3   531  LEU531      0.1561
     78  C         25.9270    4.8020  123.1600 C.2   531  LEU531      0.2260
     79  O         25.9540    3.7740  123.8150 O.2   531  LEU531     -0.2867
     80  CB        27.8300    6.4260  123.4150 C.3   531  LEU531      0.0270
     81  CG        28.0410    6.2190  124.9040 C.3   531  LEU531      0.0019
     82  CD1       29.0620    5.1450  125.0580 C.3   531  LEU531      0.0001
     83  CD2       28.4730    7.5680  125.5360 C.3   531  LEU531      0.0001
     84  N         31.0400   10.5200  131.3300 N.3   546  VAL546     -0.1231
     85  CA        31.5910   10.3570  129.9660 C.3   546  VAL546      0.1692
     86  C         31.7390   11.6480  129.1510 C.2   546  VAL546      0.2591
     87  O         32.7780   11.9390  128.6080 O.2   546  VAL546     -0.2718
     88  CB        30.7940    9.3480  129.1500 C.3   546  VAL546      0.0266
     89  CG1       31.5330    9.0640  127.8210 C.3   546  VAL546      0.0020
     90  CG2       30.6640    8.0580  129.9300 C.3   546  VAL546      0.0020
     91  N         30.6710   12.3950  129.0430 N.am  547  MET547     -0.1979
     92  CA        30.7010   13.6750  128.3780 C.3   547  MET547      0.1605
     93  C         31.8860   14.5880  128.9100 C.2   547  MET547      0.2287
     94  O         32.6750   15.1120  128.1190 O.2   547  MET547     -0.2864
     95  CB        29.2660   14.2890  128.3870 C.3   547  MET547      0.0413
     96  CG        28.1070   13.3430  127.7310 C.3   547  MET547      0.0598
     97  SD        26.2510   13.8730  127.7480 S.3   547  MET547     -0.1393
     98  CE        26.3690   15.4710  126.9510 C.3   547  MET547      0.0692
     99  N         35.0860   13.2560  127.9620 N.3   550  PHE550     -0.1227
    100  CA        35.2740   13.4520  126.5360 C.3   550  PHE550      0.1736
    101  C         35.6820   14.8760  126.1870 C.2   550  PHE550      0.2595
    102  O         36.5970   15.0430  125.3780 O.2   550  PHE550     -0.2718
    103  CB        34.0580   12.9720  125.7100 C.3   550  PHE550      0.0547
    104  CG        34.2020   13.2080  124.2080 C.ar  550  PHE550     -0.0202
    105  CD1       34.9210   12.3740  123.4250 C.ar  550  PHE550     -0.0042
    106  CD2       33.6260   14.3090  123.5940 C.ar  550  PHE550     -0.0042
    107  CE1       35.0710   12.5810  122.0420 C.ar  550  PHE550     -0.0003
    108  CE2       33.7720   14.5160  122.2000 C.ar  550  PHE550     -0.0003
    109  CZ        34.5020   13.6370  121.4470 C.ar  550  PHE550     -0.0000
    110  N         35.0150   15.8950  126.7520 N.am  551  VAL551     -0.1980
    111  CA        35.4480   17.3060  126.6170 C.3   551  VAL551      0.1595
    112  C         36.9500   17.5100  126.9180 C.2   551  VAL551      0.2287
    113  O         37.6630   18.0400  126.0810 O.2   551  VAL551     -0.2864
    114  CB        34.5810   18.3100  127.4940 C.3   551  VAL551      0.0276
    115  CG1       35.1520   19.6890  127.4380 C.3   551  VAL551      0.0022
    116  CG2       33.1290   18.3570  127.0310 C.3   551  VAL551      0.0022
    117  N         40.4820    6.5760  126.6780 N.3   574  LEU574     -0.1231
    118  CA        39.0460    6.9580  126.7970 C.3   574  LEU574      0.1693
    119  C         38.0630    5.7950  126.6430 C.2   574  LEU574      0.2591
    120  O         37.1810    5.5540  127.5110 O.2   574  LEU574     -0.2718
    121  CB        38.7010    7.9270  125.6880 C.3   574  LEU574      0.0284
    122  CG        37.5560    8.8040  126.1630 C.3   574  LEU574      0.0019
    123  CD1       38.1690    9.9110  127.0730 C.3   574  LEU574      0.0001
    124  CD2       36.7620    9.3510  124.9830 C.3   574  LEU574      0.0001
    125  N         38.2280    5.0730  125.5430 N.am  575  VAL575     -0.1980
    126  CA        37.4150    3.8910  125.2950 C.3   575  VAL575      0.1595
    127  C         37.4300    2.9900  126.5450 C.2   575  VAL575      0.2287
    128  O         36.3480    2.6440  127.0830 O.2   575  VAL575     -0.2864
    129  CB        37.8570    3.1890  123.9830 C.3   575  VAL575      0.0276
    130  CG1       37.1630    1.8800  123.7780 C.3   575  VAL575      0.0022
    131  CG2       37.6700    4.1520  122.7440 C.3   575  VAL575      0.0022
    132  N         35.4940    4.2480  129.6950 N.3   578  THR578     -0.1203
    133  CA        34.1040    4.3110  129.3430 C.3   578  THR578      0.1994
    134  C         33.5030    2.9290  129.4080 C.2   578  THR578      0.2617
    135  O         32.4910    2.7140  130.0910 O.2   578  THR578     -0.2717
    136  CB        33.9820    4.8760  127.8850 C.3   578  THR578      0.1784
    137  OG1       34.8010    6.0450  127.7990 O.3   578  THR578     -0.2211
    138  CG2       32.5410    5.2440  127.4540 C.3   578  THR578      0.0376
    139  N         34.1160    1.9900  128.6960 N.am  579  GLN579     -0.1979
    140  CA        33.7670    0.5490  128.8050 C.3   579  GLN579      0.1601
    141  C         33.6920    0.0090  130.2420 C.2   579  GLN579      0.2287
    142  O         32.9020   -0.9080  130.5590 O.2   579  GLN579     -0.2864
    143  CB        34.7740   -0.2840  128.0320 C.3   579  GLN579      0.0394
    144  CG        34.5430   -0.3290  126.5170 C.3   579  GLN579      0.0908
    145  CD        35.6320   -1.0930  125.7420 C.2   579  GLN579      0.2608
    146  OE1       36.7500   -1.1960  126.1960 O.2   579  GLN579     -0.2717
    147  NE2       35.3050   -1.5690  124.5490 N.am  579  GLN579     -0.0878
@<TRIPOS>BOND
     1    45    44    1
     2    45    46    2
     3    44    43    1
     4    44    47    1
     5    54    55    1
     6    32    33    1
     7    47    48    1
     8    49    51   ar
     9    49    48   ar
    10    24    23    2
    11    63    64    1
    12    51    53   ar
    13    48    50   ar
    14    23    22    1
    15    34    33    1
    16    34    35    2
    17    33    36    1
    18    55    56    1
    19    55    58    1
    20    64    67    1
    21    64    65    1
    22    56    57    2
    23    53    52   ar
    24    50    52   ar
    25    61    62    1
    26    61    60    1
    27    58    59    1
    28    21    22    1
    29    22    25    1
    30    36    37    1
    31    59    60    1
    32    38    37   ar
    33    38    40   ar
    34    37    39   ar
    35    65    68   am
    36    65    66    2
    37    40    42   ar
    38    39    41   ar
    39    42    41   ar
    40    68    69    1
    41    28    30   ar
    42    28    26   ar
    43    30    31   ar
    44    25    26    1
    45    26    27   ar
    46    76    77    1
    47     9     7   ar
    48     9    11   ar
    49    31    29   ar
    50    70    69    1
    51    70    71    2
    52    12    11    1
    53   109   107   ar
    54   109   108   ar
    55    27    29   ar
    56     7     6   ar
    57    69    72    1
    58    11    10   ar
    59    72    73    1
    60   107   105   ar
    61   108   106   ar
    62    19    18    2
    63    77    78    1
    64    77    80    1
    65     6     5    1
    66     6     8   ar
    67   131   129    1
    68    10     8   ar
    69    78    79    2
    70     5     2    1
    71     2     1    1
    72     2     3    1
    73    73    75    1
    74    73    74    1
    75    80    81    1
    76   105   104   ar
    77    13    14    1
    78   106   104   ar
    79    18    20   am
    80    18    17    1
    81     4     3    2
    82   130   129    1
    83   129   126    1
    84    14    17    1
    85    14    15    1
    86   104   103    1
    87   147   145   am
    88    81    82    1
    89    81    83    1
    90   124   122    1
    91    15    16    2
    92   126   125    1
    93   126   127    1
    94   102   101    2
    95   125   119   am
    96   121   122    1
    97   121   118    1
    98   103   100    1
    99   145   146    2
   100   145   144    1
   101   113   112    2
   102   122   123    1
   103   101   100    1
   104   101   110   am
   105   144   143    1
   106   100    99    1
   107   127   128    2
   108   111   110    1
   109   111   112    1
   110   111   114    1
   111   119   118    1
   112   119   120    2
   113   117   118    1
   114    98    97    1
   115   116   114    1
   116   115   114    1
   117   138   136    1
   118    96    97    1
   119    96    95    1
   120   137   136    1
   121    89    88    1
   122   136   133    1
   123   143   140    1
   124    94    93    2
   125    92    95    1
   126    92    93    1
   127    92    91    1
   128    87    86    2
   129   139   140    1
   130   139   134   am
   131   140   141    1
   132    91    86   am
   133    88    90    1
   134    88    85    1
   135    86    85    1
   136   133   134    1
   137   133   132    1
   138   134   135    2
   139    85    84    1
   140   141   142    2
