@<TRIPOS>MOLECULE
tmp/4f5uA00.pdb
 80 77 0 0 0
SMALL
GASTEIGER

@<TRIPOS>ATOM
      1  N        -15.7280   57.6350   79.6670 N.3     6  GLU6       -0.1245
      2  CA       -14.4510   57.0830   79.2690 C.3     6  GLU6        0.1567
      3  C        -13.9290   57.8700   78.0690 C.2     6  GLU6        0.2260
      4  O        -12.7860   58.2830   78.0530 O.2     6  GLU6       -0.2867
      5  CB       -14.5670   55.5930   78.9790 C.3     6  GLU6        0.0388
      6  CG       -13.2410   54.8450   79.0410 C.3     6  GLU6        0.1160
      7  CD       -13.3810   53.3440   78.7460 C.2     6  GLU6        0.3649
      8  OE1      -12.3650   52.6270   78.8980 O.co2   6  GLU6       -0.2457
      9  OE2      -14.4930   52.8740   78.3570 O.co2   6  GLU6       -0.2457
     10  N         -7.1880   52.7580   65.9360 N.3    26  ALA26      -0.1245
     11  CA        -8.1650   51.7540   66.3680 C.3    26  ALA26       0.1562
     12  C         -9.0760   51.3640   65.2130 C.2    26  ALA26       0.2260
     13  O         -9.2770   50.1640   64.9340 O.2    26  ALA26      -0.2867
     14  CB        -8.9900   52.2290   67.5530 C.3    26  ALA26       0.0290
     15  N        -15.8990   52.9740   75.8120 N.3    66  LEU66      -0.1231
     16  CA       -15.1960   53.3390   74.6200 C.3    66  LEU66       0.1693
     17  C        -15.5600   52.3580   73.5390 C.2    66  LEU66       0.2592
     18  O        -15.8880   52.7230   72.4150 O.2    66  LEU66      -0.2718
     19  CB       -13.7100   53.2970   74.8710 C.3    66  LEU66       0.0284
     20  CG       -13.2800   54.5190   75.6530 C.3    66  LEU66       0.0019
     21  CD1      -11.7490   54.4580   75.8080 C.3    66  LEU66       0.0001
     22  CD2      -13.7320   55.7500   74.9570 C.3    66  LEU66       0.0001
     23  N        -15.5440   51.0940   73.8910 N.am   67  HIS67      -0.1976
     24  CA       -15.8910   50.1410   72.8960 C.3    67  HIS67       0.1656
     25  C        -17.2910   50.2500   72.3540 C.2    67  HIS67       0.2291
     26  O        -17.4590   50.1630   71.1480 O.2    67  HIS67      -0.2864
     27  CB       -15.4600   48.7390   73.2740 C.3    67  HIS67       0.0771
     28  CG       -14.2170   48.3760   72.5620 C.ar   67  HIS67       0.0820
     29  ND1      -14.0390   48.7170   71.2340 N.ar   67  HIS67      -0.2267
     30  CD2      -13.0630   47.8120   72.9740 C.ar   67  HIS67       0.1154
     31  CE1      -12.8380   48.3340   70.8420 C.ar   67  HIS67       0.1986
     32  NE2      -12.2270   47.7820   71.8790 N.ar   67  HIS67      -0.2212
     33  N        -17.0290   53.0490   70.0880 N.3    70  PHE70      -0.1241
     34  CA       -16.2640   52.9000   68.8760 C.3    70  PHE70       0.1605
     35  C        -16.8460   51.8420   68.0000 C.2    70  PHE70       0.2264
     36  O        -16.7550   51.9550   66.7870 O.2    70  PHE70      -0.2867
     37  CB       -14.8080   52.5980   69.1710 C.3    70  PHE70       0.0534
     38  CG       -14.2040   53.5590   70.1070 C.ar   70  PHE70      -0.0203
     39  CD1      -13.6380   53.1310   71.2860 C.ar   70  PHE70      -0.0042
     40  CD2      -14.2390   54.9100   69.8390 C.ar   70  PHE70      -0.0042
     41  CE1      -13.0770   54.0460   72.1540 C.ar   70  PHE70      -0.0003
     42  CE2      -13.6730   55.8180   70.7120 C.ar   70  PHE70      -0.0003
     43  CZ       -13.1080   55.3950   71.8600 C.ar   70  PHE70      -0.0000
     44  N         -7.9080   46.4250   71.1060 N.3   247  GLY247     -0.1210
     45  CA        -8.3780   47.5580   70.3460 C.3   247  GLY247      0.1956
     46  C         -8.9010   48.6120   71.2860 C.2   247  GLY247      0.2612
     47  O         -9.5270   49.5680   70.8720 O.2   247  GLY247     -0.2717
     48  N         -8.6030   48.4650   72.5730 N.am  248  ASP248     -0.1959
     49  CA        -8.9120   49.5470   73.5020 C.3   248  ASP248      0.1840
     50  C         -7.6830   50.4540   73.5080 C.2   248  ASP248      0.2622
     51  O         -7.0200   50.5500   74.4920 O.2   248  ASP248     -0.2715
     52  CB        -9.1710   49.0050   74.9100 C.3   248  ASP248      0.1450
     53  CG       -10.1530   47.8270   74.9320 C.2   248  ASP248      0.3671
     54  OD1      -11.1360   47.8590   74.1630 O.co2 248  ASP248     -0.2456
     55  OD2       -9.9240   46.8450   75.6970 O.co2 248  ASP248     -0.2456
     56  N         -7.3820   51.0640   72.3770 N.am  249  LEU249     -0.1963
     57  CA        -6.1780   51.8550   72.1670 C.3   249  LEU249      0.1728
     58  C         -6.0550   53.1270   72.9690 C.2   249  LEU249      0.2616
     59  O         -4.9270   53.5770   73.2920 O.2   249  LEU249     -0.2715
     60  CB        -6.0700   52.2420   70.7080 C.3   249  LEU249      0.0311
     61  CG        -5.2830   51.2180   69.8780 C.3   249  LEU249      0.0022
     62  CD1       -5.8350   49.7780   69.9100 C.3   249  LEU249      0.0001
     63  CD2       -5.2250   51.7440   68.4720 C.3   249  LEU249      0.0001
     64  N         -7.1990   53.7250   73.2720 N.am  250  LEU250     -0.1963
     65  CA        -7.1890   54.9460   74.0480 C.3   250  LEU250      0.1728
     66  C         -6.7820   54.5930   75.4230 C.2   250  LEU250      0.2616
     67  O         -5.9270   55.2270   75.9760 O.2   250  LEU250     -0.2715
     68  CB        -8.5500   55.6090   74.0550 C.3   250  LEU250      0.0311
     69  CG        -8.8380   55.9720   72.6080 C.3   250  LEU250      0.0022
     70  CD1      -10.2380   56.5490   72.5390 C.3   250  LEU250      0.0001
     71  CD2       -7.7990   56.9570   72.1190 C.3   250  LEU250      0.0001
     72  N         -7.3750   53.5360   75.9580 N.am  251  GLU251     -0.1977
     73  CA        -7.0820   53.1290   77.3130 C.3   251  GLU251      0.1602
     74  C         -5.6680   52.6750   77.2930 C.2   251  GLU251      0.2287
     75  O         -4.8680   52.9990   78.1540 O.2   251  GLU251     -0.2864
     76  CB        -7.9750   51.9800   77.7210 C.3   251  GLU251      0.0415
     77  CG        -8.0280   51.8620   79.2000 C.3   251  GLU251      0.1163
     78  CD        -9.0470   50.8890   79.6650 C.2   251  GLU251      0.3649
     79  OE1       -9.7690   50.3340   78.8100 O.co2 251  GLU251     -0.2457
     80  OE2       -9.1120   50.6720   80.8960 O.co2 251  GLU251     -0.2457
@<TRIPOS>BOND
     1    13    12    2
     2    12    11    1
     3    10    11    1
     4    11    14    1
     5    36    35    2
     6    35    34    1
     7    63    61    1
     8    34    37    1
     9    34    33    1
    10    37    38    1
    11    40    38   ar
    12    40    42   ar
    13    61    62    1
    14    61    60    1
    15    38    39   ar
    16    45    44    1
    17    45    46    1
    18    60    57    1
    19    42    43   ar
    20    31    29   ar
    21    31    32   ar
    22    47    46    2
    23    26    25    2
    24    29    28   ar
    25    39    41   ar
    26    46    48   am
    27    43    41   ar
    28    32    30   ar
    29    71    69    1
    30    57    56    1
    31    57    58    1
    32    25    24    1
    33    56    50   am
    34    18    17    2
    35    70    69    1
    36    28    30   ar
    37    28    27    1
    38    48    49    1
    39    69    68    1
    40    24    27    1
    41    24    23    1
    42    58    64   am
    43    58    59    2
    44    64    65    1
    45    49    50    1
    46    49    52    1
    47    50    51    2
    48    17    23   am
    49    17    16    1
    50    65    68    1
    51    65    66    1
    52    54    53   ar
    53    16    19    1
    54    16    15    1
    55    19    20    1
    56    52    53    1
    57    53    55   ar
    58    22    20    1
    59    66    72   am
    60    66    67    2
    61    20    21    1
    62    72    73    1
    63    74    73    1
    64    74    75    2
    65    73    76    1
    66    76    77    1
    67     4     3    2
    68     3     2    1
    69     9     7   ar
    70     7     8   ar
    71     7     6    1
    72    79    78   ar
    73     5     6    1
    74     5     2    1
    75    77    78    1
    76     2     1    1
    77    78    80   ar
