@<TRIPOS>MOLECULE
tmp/4f5uA04.pdb
 126 117 0 0 0
SMALL
GASTEIGER

@<TRIPOS>ATOM
      1  N          8.5940   45.1160   62.6500 N.3   190  LEU190     -0.1245
      2  CA         9.0770   44.4790   63.8170 C.3   190  LEU190      0.1561
      3  C          8.1610   44.8010   65.0160 C.2   190  LEU190      0.2260
      4  O          7.6920   43.9160   65.7100 O.2   190  LEU190     -0.2867
      5  CB        10.5000   44.9370   64.0820 C.3   190  LEU190      0.0270
      6  CG        11.0230   44.5320   65.4430 C.3   190  LEU190      0.0019
      7  CD1       10.9700   43.0340   65.5680 C.3   190  LEU190      0.0001
      8  CD2       12.4410   45.0770   65.5560 C.3   190  LEU190      0.0001
      9  N          6.0930   42.3820   67.1600 N.3   194  LYS194     -0.1245
     10  CA         6.1900   42.3520   68.6070 C.3   194  LYS194      0.1561
     11  C          4.8350   42.4730   69.2280 C.2   194  LYS194      0.2260
     12  O          4.4710   41.6820   70.0980 O.2   194  LYS194     -0.2867
     13  CB         7.0550   43.4560   69.0920 C.3   194  LYS194      0.0271
     14  CG         8.5320   43.0750   69.1100 C.3   194  LYS194      0.0035
     15  CD         9.4050   44.2490   69.4180 C.3   194  LYS194      0.0206
     16  CE         9.3150   44.6200   70.8700 C.3   194  LYS194      0.1093
     17  NZ        10.4910   45.4560   71.3680 N.3   194  LYS194     -0.1314
     18  N          2.3730   39.9400   71.3250 N.3   198  LYS198     -0.1245
     19  CA         1.7960   40.2280   72.6150 C.3   198  LYS198      0.1561
     20  C          0.3650   39.9200   72.5130 C.2   198  LYS198      0.2260
     21  O         -0.2020   39.3520   73.3990 O.2   198  LYS198     -0.2867
     22  CB         1.9710   41.6910   73.0190 C.3   198  LYS198      0.0271
     23  CG         3.4170   42.0410   73.1500 C.3   198  LYS198      0.0035
     24  CD         3.6220   43.3260   73.9180 C.3   198  LYS198      0.0206
     25  CE         5.1040   43.4650   74.2530 C.3   198  LYS198      0.1093
     26  NZ         5.9740   43.3110   73.0410 N.3   198  LYS198     -0.1314
     27  N          5.7450   36.2610   80.1720 N.3   213  TRP213     -0.1241
     28  CA         6.6100   36.7910   79.1580 C.3   213  TRP213      0.1605
     29  C          7.1980   38.0990   79.6010 C.2   213  TRP213      0.2264
     30  O          8.3820   38.2920   79.5150 O.2   213  TRP213     -0.2867
     31  CB         5.8220   37.0330   77.8880 C.3   213  TRP213      0.0550
     32  CG         6.7180   37.2120   76.7810 C.ar  213  TRP213      0.0003
     33  CD1        7.2650   36.2290   76.0240 C.ar  213  TRP213      0.0946
     34  CD2        7.3120   38.4250   76.3660 C.ar  213  TRP213      0.0152
     35  NE1        8.0840   36.7750   75.0880 N.ar  213  TRP213     -0.2442
     36  CE2        8.1600   38.1250   75.3060 C.ar  213  TRP213      0.0810
     37  CE3        7.2000   39.7510   76.7830 C.ar  213  TRP213      0.0012
     38  CZ2        8.8910   39.0980   74.6500 C.ar  213  TRP213      0.0191
     39  CZ3        7.8740   40.6990   76.1230 C.ar  213  TRP213      0.0001
     40  CH2        8.7290   40.3870   75.0630 C.ar  213  TRP213      0.0015
     41  N         10.8420   39.2330   80.3850 N.3   217  ARG217     -0.1245
     42  CA        11.4420   40.2190   79.5610 C.3   217  ARG217      0.1563
     43  C         11.7510   41.4480   80.3670 C.2   217  ARG217      0.2260
     44  O         12.8120   42.0170   80.2190 O.2   217  ARG217     -0.2867
     45  CB        10.5490   40.5770   78.3640 C.3   217  ARG217      0.0307
     46  CG        11.1820   41.6240   77.4680 C.3   217  ARG217      0.0489
     47  CD        12.3170   40.9320   76.7270 C.3   217  ARG217      0.2205
     48  NE        13.1360   41.8210   75.9440 N.pl3 217  ARG217     -0.0865
     49  CZ        14.3940   42.1320   76.2460 C.cat 217  ARG217      0.5346
     50  NH1       14.9320   41.6610   77.3250 N.pl3 217  ARG217      0.1354
     51  NH2       15.1140   42.9240   75.4710 N.pl3 217  ARG217      0.1354
     52  N         15.2390   43.2890   81.2730 N.3   221  LYS221     -0.1245
     53  CA        15.4670   44.6650   80.9470 C.3   221  LYS221      0.1561
     54  C         15.7830   45.4420   82.1520 C.2   221  LYS221      0.2260
     55  O         16.5620   46.3930   82.1040 O.2   221  LYS221     -0.2867
     56  CB        14.2220   45.2480   80.3470 C.3   221  LYS221      0.0271
     57  CG        14.1080   44.8570   78.9060 C.3   221  LYS221      0.0035
     58  CD        13.0070   45.6560   78.2450 C.3   221  LYS221      0.0206
     59  CE        13.1460   45.4710   76.7410 C.3   221  LYS221      0.1093
     60  NZ        12.5150   46.6010   76.0330 N.3   221  LYS221     -0.1314
     61  N          9.6730   51.1120   75.9230 N.3   290  ALA290     -0.1231
     62  CA         9.3110   49.8430   75.3650 C.3   290  ALA290      0.1694
     63  C         10.5350   49.2010   74.7960 C.2   290  ALA290      0.2591
     64  O         10.7210   47.9920   74.8950 O.2   290  ALA290     -0.2718
     65  CB         8.2480   50.0010   74.3270 C.3   290  ALA290      0.0304
     66  N         11.4130   50.0140   74.2360 N.am  291  GLU291     -0.1979
     67  CA        12.4890   49.4420   73.4550 C.3   291  GLU291      0.1602
     68  C         13.7240   49.4460   74.2660 C.2   291  GLU291      0.2287
     69  O         14.7890   49.0530   73.7990 O.2   291  GLU291     -0.2864
     70  CB        12.6940   50.2010   72.1630 C.3   291  GLU291      0.0415
     71  CG        11.5100   50.0280   71.2170 C.3   291  GLU291      0.1163
     72  CD        11.0900   48.5660   71.0440 C.2   291  GLU291      0.3649
     73  OE1       11.9640   47.6640   70.9910 O.co2 291  GLU291     -0.2457
     74  OE2        9.8740   48.3040   70.9580 O.co2 291  GLU291     -0.2457
     75  N         16.8450   49.1710   76.3140 N.3   293  LYS293     -0.1245
     76  CA        17.8570   48.1670   76.4130 C.3   293  LYS293      0.1561
     77  C         17.9360   47.6800   77.8420 C.2   293  LYS293      0.2260
     78  O         17.5150   48.3410   78.8050 O.2   293  LYS293     -0.2867
     79  CB        19.1890   48.7150   75.9190 C.3   293  LYS293      0.0271
     80  CG        19.3250   48.5670   74.4270 C.3   293  LYS293      0.0035
     81  CD        18.7210   47.2400   74.0160 C.3   293  LYS293      0.0206
     82  CE        18.8310   47.0310   72.5240 C.3   293  LYS293      0.1093
     83  NZ        19.1520   45.5990   72.1830 N.3   293  LYS293     -0.1314
     84  N         19.6810   40.7210   61.9950 N.3   435  ARG435     -0.1245
     85  CA        19.6010   41.5820   63.1390 C.3   435  ARG435      0.1563
     86  C         20.4290   40.9840   64.2440 C.2   435  ARG435      0.2260
     87  O         21.2130   41.6580   64.9160 O.2   435  ARG435     -0.2867
     88  CB        18.1640   41.7670   63.5820 C.3   435  ARG435      0.0307
     89  CG        18.0840   42.5340   64.8840 C.3   435  ARG435      0.0489
     90  CD        16.7160   42.4060   65.4870 C.3   435  ARG435      0.2205
     91  NE        16.4630   43.5910   66.3110 N.pl3 435  ARG435     -0.0865
     92  CZ        15.9360   44.7110   65.8230 C.cat 435  ARG435      0.5346
     93  NH1       15.5980   44.7870   64.5370 N.pl3 435  ARG435      0.1354
     94  NH2       15.7300   45.7450   66.6240 N.pl3 435  ARG435      0.1354
     95  N         18.0320   37.8770   71.1310 N.3   447  CYS447     -0.1235
     96  CA        17.6690   38.4180   69.8700 C.3   447  CYS447      0.1677
     97  C         16.9930   37.4040   68.9230 C.2   447  CYS447      0.2270
     98  O         15.8900   37.6450   68.4580 O.2   447  CYS447     -0.2867
     99  CB        18.8540   39.0670   69.1820 C.3   447  CYS447      0.0956
    100  SG        18.3110   40.0290   67.8010 S.3   447  CYS447     -0.0801
    101  N         13.9410   35.7680   70.4130 N.3   450  ASN450     -0.1225
    102  CA        12.8220   36.6880   70.6130 C.3   450  ASN450      0.1785
    103  C         12.2380   37.0650   69.2790 C.2   450  ASN450      0.2597
    104  O         11.0090   37.2050   69.1290 O.2   450  ASN450     -0.2718
    105  CB        13.2310   37.9340   71.3840 C.3   450  ASN450      0.1169
    106  CG        13.6060   37.6160   72.7770 C.2   450  ASN450      0.2627
    107  OD1       13.2600   36.5490   73.2910 O.2   450  ASN450     -0.2716
    108  ND2       14.3500   38.4920   73.3970 N.am  450  ASN450     -0.0877
    109  N         13.1060   37.1540   68.2940 N.am  451  HIS451     -0.1975
    110  CA        12.6210   37.6480   67.0760 C.3   451  HIS451      0.1656
    111  C         12.0030   36.5300   66.3760 C.2   451  HIS451      0.2291
    112  O         11.0440   36.7200   65.7160 O.2   451  HIS451     -0.2864
    113  CB        13.7190   38.3000   66.2550 C.3   451  HIS451      0.0771
    114  CG        14.0280   39.6580   66.7420 C.ar  451  HIS451      0.0820
    115  ND1       13.4510   40.7780   66.1980 N.ar  451  HIS451     -0.2267
    116  CD2       14.7370   40.0740   67.8110 C.ar  451  HIS451      0.1154
    117  CE1       13.8290   41.8370   66.8800 C.ar  451  HIS451      0.1986
    118  NE2       14.6120   41.4360   67.8630 N.ar  451  HIS451     -0.2212
    119  N          8.6550   36.2460   67.0850 N.3   454  LEU454     -0.1245
    120  CA         7.8290   37.2580   66.4140 C.3   454  LEU454      0.1561
    121  C          7.3650   36.7170   65.1110 C.2   454  LEU454      0.2260
    122  O          6.2180   36.8800   64.7450 O.2   454  LEU454     -0.2867
    123  CB         8.6570   38.5060   66.1160 C.3   454  LEU454      0.0270
    124  CG         9.2090   39.1600   67.3720 C.3   454  LEU454      0.0019
    125  CD1        9.6880   40.5460   67.0390 C.3   454  LEU454      0.0001
    126  CD2        8.0780   39.2270   68.3560 C.3   454  LEU454      0.0001
@<TRIPOS>BOND
     1    84    85    1
     2     1     2    1
     3    85    88    1
     4    85    86    1
     5    88    89    1
     6     2     5    1
     7     2     3    1
     8     5     6    1
     9    86    87    2
    10    93    92    1
    11   122   121    2
    12    89    90    1
    13     3     4    2
    14   121   120    1
    15     6     8    1
    16     6     7    1
    17    90    91    1
    18   112   111    2
    19    92    91    2
    20    92    94    1
    21   123   120    1
    22   123   124    1
    23   115   114   ar
    24   115   117   ar
    25   113   114    1
    26   113   110    1
    27   111   110    1
    28   120   119    1
    29   114   116   ar
    30   117   118   ar
    31   125   124    1
    32   110   109    1
    33     9    10    1
    34   124   126    1
    35   100    99    1
    36   116   118   ar
    37   109   103   am
    38    98    97    2
    39    10    13    1
    40    10    11    1
    41    97    96    1
    42    13    14    1
    43    14    15    1
    44   104   103    2
    45    99    96    1
    46    11    12    2
    47   103   102    1
    48    15    16    1
    49    96    95    1
    50   101   102    1
    51   102   105    1
    52    16    17    1
    53    74    72   ar
    54    73    72   ar
    55    72    71    1
    56    71    70    1
    57    18    19    1
    58   105   106    1
    59    70    67    1
    60    83    82    1
    61    20    19    1
    62    20    21    2
    63    82    81    1
    64    19    22    1
    65   106   107    2
    66   106   108   am
    67    22    23    1
    68    26    25    1
    69    23    24    1
    70    67    66    1
    71    67    68    1
    72    69    68    2
    73    24    25    1
    74    81    80    1
    75    66    63   am
    76    65    62    1
    77    80    79    1
    78    38    40   ar
    79    38    36   ar
    80    63    64    2
    81    63    62    1
    82    40    39   ar
    83    35    36   ar
    84    35    33   ar
    85    36    34   ar
    86    62    61    1
    87    51    49    1
    88    79    76    1
    89    48    49    2
    90    48    47    1
    91    33    32   ar
    92    60    59    1
    93    39    37   ar
    94    49    50    1
    95    75    76    1
    96    34    32   ar
    97    34    37   ar
    98    76    77    1
    99    47    46    1
   100    59    58    1
   101    32    31    1
   102    46    45    1
   103    77    78    2
   104    31    28    1
   105    58    57    1
   106    45    42    1
   107    57    56    1
   108    28    29    1
   109    28    27    1
   110    30    29    2
   111    42    43    1
   112    42    41    1
   113    44    43    2
   114    56    53    1
   115    53    52    1
   116    53    54    1
   117    55    54    2
