@<TRIPOS>MOLECULE
tmp/4f5uA06.pdb
 117 109 0 0 0
SMALL
GASTEIGER

@<TRIPOS>ATOM
      1  N          0.8280   48.1710   67.9430 N.3   149  TYR149     -0.1241
      2  CA         0.7540   48.7830   69.2400 C.3   149  TYR149      0.1605
      3  C          0.3650   50.2310   69.0240 C.2   149  TYR149      0.2264
      4  O          1.1770   51.0300   68.6260 O.2   149  TYR149     -0.2867
      5  CB         2.1190   48.6790   69.8750 C.3   149  TYR149      0.0534
      6  CG         2.1880   49.0560   71.3160 C.ar  149  TYR149     -0.0201
      7  CD1        1.0780   49.0190   72.1340 C.ar  149  TYR149     -0.0009
      8  CD2        3.4010   49.4060   71.8690 C.ar  149  TYR149     -0.0009
      9  CE1        1.1770   49.3420   73.4570 C.ar  149  TYR149      0.0417
     10  CE2        3.5110   49.7330   73.1840 C.ar  149  TYR149      0.0417
     11  CZ         2.4130   49.6810   73.9680 C.ar  149  TYR149      0.1957
     12  OH         2.5690   50.0020   75.2630 O.3   149  TYR149     -0.2866
     13  N         10.8360   41.8970   81.2200 N.3   218  LEU218     -0.1245
     14  CA        11.1590   43.1500   81.8820 C.3   218  LEU218      0.1561
     15  C         12.1520   42.8930   82.9750 C.2   218  LEU218      0.2260
     16  O         12.8560   43.7660   83.3890 O.2   218  LEU218     -0.2867
     17  CB         9.9390   43.8640   82.4480 C.3   218  LEU218      0.0270
     18  CG         8.9370   44.1990   81.3610 C.3   218  LEU218      0.0019
     19  CD1        7.7790   44.9250   81.9940 C.3   218  LEU218      0.0001
     20  CD2        9.5660   44.9550   80.1710 C.3   218  LEU218      0.0001
     21  N         15.2390   43.2890   81.2730 N.3   221  LYS221     -0.1231
     22  CA        15.4670   44.6650   80.9470 C.3   221  LYS221      0.1693
     23  C         15.7830   45.4420   82.1520 C.2   221  LYS221      0.2592
     24  O         16.5620   46.3930   82.1040 O.2   221  LYS221     -0.2718
     25  CB        14.2220   45.2480   80.3470 C.3   221  LYS221      0.0285
     26  CG        14.1080   44.8570   78.9060 C.3   221  LYS221      0.0035
     27  CD        13.0070   45.6560   78.2450 C.3   221  LYS221      0.0206
     28  CE        13.1460   45.4710   76.7410 C.3   221  LYS221      0.1093
     29  NZ        12.5150   46.6010   76.0330 N.3   221  LYS221     -0.1314
     30  N         15.1800   45.0370   83.2500 N.am  222  PHE222     -0.1976
     31  CA        15.1990   45.8870   84.4120 C.3   222  PHE222      0.1639
     32  C         15.6720   45.0790   85.5330 C.2   222  PHE222      0.2290
     33  O         14.9990   44.9610   86.5510 O.2   222  PHE222     -0.2864
     34  CB        13.8360   46.3460   84.7170 C.3   222  PHE222      0.0560
     35  CG        13.2190   47.1420   83.6460 C.ar  222  PHE222     -0.0200
     36  CD1       13.9830   48.0050   82.8840 C.ar  222  PHE222     -0.0042
     37  CD2       11.8680   47.1200   83.4830 C.ar  222  PHE222     -0.0042
     38  CE1       13.4180   48.7590   81.9470 C.ar  222  PHE222     -0.0003
     39  CE2       11.2630   47.8630   82.5190 C.ar  222  PHE222     -0.0003
     40  CZ        12.0370   48.6960   81.7450 C.ar  222  PHE222     -0.0000
     41  N          5.2260   46.7510   86.7840 N.3   233  ILE233     -0.1245
     42  CA         5.3220   47.2150   85.4390 C.3   233  ILE233      0.1561
     43  C          4.6460   46.1640   84.5780 C.2   233  ILE233      0.2260
     44  O          3.8600   46.4740   83.7310 O.2   233  ILE233     -0.2867
     45  CB         6.7900   47.4140   85.0530 C.3   233  ILE233      0.0252
     46  CG1        7.3350   48.6040   85.8110 C.3   233  ILE233      0.0019
     47  CG2        6.9440   47.6060   83.5790 C.3   233  ILE233      0.0019
     48  CD1        8.8080   48.5210   85.9840 C.3   233  ILE233      0.0001
     49  N          1.8290   46.8660   82.2010 N.3   237  LEU237     -0.1245
     50  CA         2.1680   46.8500   80.8100 C.3   237  LEU237      0.1561
     51  C          1.2500   45.8320   80.1620 C.2   237  LEU237      0.2260
     52  O          0.8040   46.0100   79.0580 O.2   237  LEU237     -0.2867
     53  CB         3.6300   46.4660   80.6150 C.3   237  LEU237      0.0270
     54  CG         4.0640   46.5190   79.1540 C.3   237  LEU237      0.0019
     55  CD1        3.9310   47.9440   78.5010 C.3   237  LEU237      0.0001
     56  CD2        5.4320   45.9350   79.0170 C.3   237  LEU237      0.0001
     57  N         -1.1570   46.3350   77.0290 N.3   241  HIS241     -0.1241
     58  CA        -1.1940   45.6450   75.7840 C.3   241  HIS241      0.1621
     59  C         -2.4390   44.8820   75.6520 C.2   241  HIS241      0.2264
     60  O         -2.8470   44.6670   74.5420 O.2   241  HIS241     -0.2867
     61  CB        -0.0180   44.7510   75.6580 C.3   241  HIS241      0.0745
     62  CG         1.2220   45.4930   75.3490 C.ar  241  HIS241      0.0817
     63  ND1        1.4900   45.9860   74.0920 N.ar  241  HIS241     -0.2268
     64  CD2        2.2760   45.8200   76.1270 C.ar  241  HIS241      0.1154
     65  CE1        2.6700   46.5790   74.1110 C.ar  241  HIS241      0.1986
     66  NE2        3.1610   46.4950   75.3380 N.ar  241  HIS241     -0.2212
     67  N         -0.6480   53.3620   78.9990 N.3   256  ARG256     -0.1245
     68  CA         0.7350   53.2610   78.6740 C.3   256  ARG256      0.1563
     69  C          1.4940   54.4730   79.1280 C.2   256  ARG256      0.2260
     70  O          2.5900   54.3180   79.6090 O.2   256  ARG256     -0.2867
     71  CB         0.8800   53.1420   77.1880 C.3   256  ARG256      0.0307
     72  CG         2.2460   53.1570   76.7730 C.3   256  ARG256      0.0489
     73  CD         2.2260   53.2340   75.3040 C.3   256  ARG256      0.2205
     74  NE         3.4900   52.8000   74.8200 N.pl3 256  ARG256     -0.0865
     75  CZ         4.1270   53.3070   73.7890 C.cat 256  ARG256      0.5346
     76  NH1        3.6270   54.3560   73.1610 N.pl3 256  ARG256      0.1354
     77  NH2        5.3050   52.7710   73.4530 N.pl3 256  ARG256      0.1354
     78  N          1.9990   54.2260   82.5580 N.3   259  LEU259     -0.1231
     79  CA         3.0710   53.3160   82.7980 C.3   259  LEU259      0.1693
     80  C          4.4380   53.9190   82.5590 C.2   259  LEU259      0.2591
     81  O          5.3110   53.8280   83.4040 O.2   259  LEU259     -0.2718
     82  CB         2.9240   52.1210   81.8840 C.3   259  LEU259      0.0284
     83  CG         4.0930   51.1700   82.1450 C.3   259  LEU259      0.0019
     84  CD1        4.0610   50.8230   83.5760 C.3   259  LEU259      0.0001
     85  CD2        3.8610   50.0040   81.3570 C.3   259  LEU259      0.0001
     86  N          4.6040   54.5530   81.4090 N.am  260  ALA260     -0.1980
     87  CA         5.8020   55.2980   81.1220 C.3   260  ALA260      0.1597
     88  C          6.0500   56.2980   82.2370 C.2   260  ALA260      0.2287
     89  O          7.1450   56.4600   82.6890 O.2   260  ALA260     -0.2864
     90  CB         5.6530   56.0230   79.7510 C.3   260  ALA260      0.0319
     91  N          7.1520   54.4250   85.1760 N.3   263  ILE263     -0.1245
     92  CA         8.4340   53.8580   85.0290 C.3   263  ILE263      0.1561
     93  C          9.4370   54.9650   85.1900 C.2   263  ILE263      0.2260
     94  O         10.4270   54.8070   85.8880 O.2   263  ILE263     -0.2867
     95  CB         8.5520   53.2040   83.6810 C.3   263  ILE263      0.0252
     96  CG1        7.6680   51.9530   83.6780 C.3   263  ILE263      0.0019
     97  CG2       10.0320   52.8870   83.4310 C.3   263  ILE263      0.0019
     98  CD1        7.4620   51.3200   82.2510 C.3   263  ILE263      0.0001
     99  N          7.7940   56.5160   75.8850 N.3   286  SER286     -0.1217
    100  CA         7.0990   55.2660   76.0230 C.3   286  SER286      0.1889
    101  C          7.7850   54.3060   75.0790 C.2   286  SER286      0.2288
    102  O          8.0980   53.1760   75.4370 O.2   286  SER286     -0.2866
    103  CB         5.6870   55.4520   75.5320 C.3   286  SER286      0.2089
    104  OG         4.8120   55.8590   76.5520 O.3   286  SER286     -0.2183
    105  N         11.0050   53.4360   76.4130 N.3   289  ILE289     -0.1231
    106  CA        10.8710   52.5090   77.5000 C.3   289  ILE289      0.1692
    107  C         10.5370   51.1520   76.9280 C.2   289  ILE289      0.2591
    108  O         11.1670   50.1810   77.2720 O.2   289  ILE289     -0.2718
    109  CB         9.7830   52.9270   78.4460 C.3   289  ILE289      0.0266
    110  CG1       10.2730   54.1440   79.2290 C.3   289  ILE289      0.0019
    111  CG2        9.4190   51.7350   79.3470 C.3   289  ILE289      0.0020
    112  CD1        9.2770   54.7570   80.0820 C.3   289  ILE289      0.0001
    113  N          9.6730   51.1120   75.9230 N.am  290  ALA290     -0.1980
    114  CA         9.3110   49.8430   75.3650 C.3   290  ALA290      0.1597
    115  C         10.5350   49.2010   74.7960 C.2   290  ALA290      0.2287
    116  O         10.7210   47.9920   74.8950 O.2   290  ALA290     -0.2864
    117  CB         8.2480   50.0010   74.3270 C.3   290  ALA290      0.0319
@<TRIPOS>BOND
     1     1     2    1
     2     4     3    2
     3     3     2    1
     4     2     5    1
     5     5     6    1
     6     6     8   ar
     7     6     7   ar
     8     8    10   ar
     9     7     9   ar
    10    76    75    1
    11    10    11   ar
    12    77    75    1
    13     9    11   ar
    14    75    74    2
    15    11    12    1
    16    63    65   ar
    17    63    62   ar
    18    65    66   ar
    19   117   114    1
    20    60    59    2
    21   115   116    2
    22   115   114    1
    23    74    73    1
    24   101   102    2
    25   101   100    1
    26    73    72    1
    27    66    64   ar
    28    62    61    1
    29    62    64   ar
    30   114   113    1
    31   103   100    1
    32   103   104    1
    33    59    58    1
    34    61    58    1
    35    58    57    1
    36    99   100    1
    37   113   107   am
    38    29    28    1
    39   105   106    1
    40    28    27    1
    41    72    71    1
    42   107   108    2
    43   107   106    1
    44    71    68    1
    45   106   109    1
    46    27    26    1
    47   109   110    1
    48   109   111    1
    49    55    54    1
    50    68    67    1
    51    68    69    1
    52    26    25    1
    53    56    54    1
    54    52    51    2
    55    69    70    2
    56    54    53    1
    57   110   112    1
    58    90    87    1
    59    51    50    1
    60    20    18    1
    61    25    22    1
    62    53    50    1
    63    50    49    1
    64    22    21    1
    65    22    23    1
    66    87    86    1
    67    87    88    1
    68    13    14    1
    69    85    83    1
    70    18    19    1
    71    18    17    1
    72    86    80   am
    73    40    38   ar
    74    40    39   ar
    75    14    17    1
    76    14    15    1
    77    82    83    1
    78    82    79    1
    79    38    36   ar
    80    24    23    2
    81    83    84    1
    82    23    30   am
    83    88    89    2
    84    98    96    1
    85    39    37   ar
    86    78    79    1
    87    80    79    1
    88    80    81    2
    89    36    35   ar
    90    15    16    2
    91    30    31    1
    92    97    95    1
    93    37    35   ar
    94    47    45    1
    95    35    34    1
    96    96    95    1
    97    95    92    1
    98    44    43    2
    99    31    34    1
   100    31    32    1
   101    43    42    1
   102    92    91    1
   103    92    93    1
   104    45    42    1
   105    45    46    1
   106    93    94    2
   107    42    41    1
   108    32    33    2
   109    46    48    1
