@<TRIPOS>MOLECULE
tmp/4f5uA02.pdb
 100 92 0 0 0
SMALL
GASTEIGER

@<TRIPOS>ATOM
      1  N         21.0570   26.4350   68.2690 N.3   386  LEU386     -0.1245
      2  CA        20.2530   26.7300   67.0970 C.3   386  LEU386      0.1561
      3  C         20.6080   28.1150   66.6290 C.2   386  LEU386      0.2260
      4  O         20.7070   28.3520   65.4540 O.2   386  LEU386     -0.2867
      5  CB        18.7420   26.5400   67.3510 C.3   386  LEU386      0.0270
      6  CG        18.4210   25.0360   67.4690 C.3   386  LEU386      0.0019
      7  CD1       16.9190   24.7280   67.4880 C.3   386  LEU386      0.0001
      8  CD2       19.0700   24.2330   66.3430 C.3   386  LEU386      0.0001
      9  N         22.3940   28.9590   63.2810 N.3   390  ASN390     -0.1240
     10  CA        21.7230   29.8930   62.3850 C.3   390  ASN390      0.1653
     11  C         22.5600   31.0890   62.1050 C.2   390  ASN390      0.2266
     12  O         22.6360   31.5470   60.9700 O.2   390  ASN390     -0.2867
     13  CB        20.3770   30.3060   62.9180 C.3   390  ASN390      0.1155
     14  CG        19.3430   29.1840   62.8060 C.2   390  ASN390      0.2627
     15  OD1       19.2530   28.4930   61.8030 O.2   390  ASN390     -0.2716
     16  ND2       18.5570   29.0170   63.8500 N.am  390  ASN390     -0.0877
     17  N         20.2700   32.6940   53.7750 N.3   402  PHE402     -0.1241
     18  CA        19.8760   32.2830   55.0690 C.3   402  PHE402      0.1605
     19  C         18.3650   32.2140   55.0320 C.2   402  PHE402      0.2264
     20  O         17.7760   31.2210   55.4720 O.2   402  PHE402     -0.2867
     21  CB        20.3840   33.2610   56.1140 C.3   402  PHE402      0.0534
     22  CG        20.0140   32.8820   57.5030 C.ar  402  PHE402     -0.0203
     23  CD1       20.3550   31.6570   58.0070 C.ar  402  PHE402     -0.0042
     24  CD2       19.3090   33.7460   58.2860 C.ar  402  PHE402     -0.0042
     25  CE1       20.0040   31.2950   59.2800 C.ar  402  PHE402     -0.0003
     26  CE2       18.9280   33.3900   59.5120 C.ar  402  PHE402     -0.0003
     27  CZ        19.2860   32.1450   60.0130 C.ar  402  PHE402     -0.0000
     28  N         15.9340   29.2640   55.4020 N.3   406  LEU406     -0.1245
     29  CA        14.8830   29.2790   56.3980 C.3   406  LEU406      0.1561
     30  C         13.6190   28.9370   55.6790 C.2   406  LEU406      0.2260
     31  O         12.7710   28.2550   56.1920 O.2   406  LEU406     -0.2867
     32  CB        14.7720   30.6330   57.0680 C.3   406  LEU406      0.0270
     33  CG        16.0050   30.7540   57.9520 C.3   406  LEU406      0.0019
     34  CD1       15.9080   32.0640   58.6300 C.3   406  LEU406      0.0001
     35  CD2       16.1310   29.6330   58.9900 C.3   406  LEU406      0.0001
     36  N         13.6010   25.4930   55.2600 N.3   409  ARG409     -0.1231
     37  CA        13.4350   24.8470   56.5210 C.3   409  ARG409      0.1694
     38  C         11.9900   24.9100   56.8770 C.2   409  ARG409      0.2592
     39  O         11.4290   23.9160   57.2740 O.2   409  ARG409     -0.2718
     40  CB        14.2740   25.5210   57.5820 C.3   409  ARG409      0.0321
     41  CG        14.0680   24.9160   58.9420 C.3   409  ARG409      0.0489
     42  CD        15.1010   25.4070   59.9040 C.3   409  ARG409      0.2205
     43  NE        16.4300   25.5130   59.2780 N.pl3 409  ARG409     -0.0865
     44  CZ        17.4030   26.2970   59.7410 C.cat 409  ARG409      0.5346
     45  NH1       17.1730   27.0220   60.7880 N.pl3 409  ARG409      0.1354
     46  NH2       18.5940   26.3610   59.1650 N.pl3 409  ARG409      0.1354
     47  N         11.3680   26.0850   56.7180 N.am  410  TYR410     -0.1976
     48  CA         9.9820   26.2080   57.1470 C.3   410  TYR410      0.1639
     49  C          9.0260   25.6460   56.1640 C.2   410  TYR410      0.2290
     50  O          7.9200   25.2490   56.5210 O.2   410  TYR410     -0.2864
     51  CB         9.6390   27.6510   57.4480 C.3   410  TYR410      0.0560
     52  CG        10.1230   27.9080   58.8070 C.ar  410  TYR410     -0.0198
     53  CD1        9.2970   27.6610   59.9190 C.ar  410  TYR410     -0.0009
     54  CD2       11.4250   28.3210   59.0120 C.ar  410  TYR410     -0.0009
     55  CE1        9.7740   27.8220   61.1920 C.ar  410  TYR410      0.0417
     56  CE2       11.9010   28.5210   60.2800 C.ar  410  TYR410      0.0417
     57  CZ        11.0950   28.2540   61.3470 C.ar  410  TYR410      0.1957
     58  OH        11.5710   28.4910   62.5760 O.3   410  TYR410     -0.2866
     59  N          8.8350   22.2340   57.1010 N.3   413  LYS413     -0.1245
     60  CA         8.0580   22.0050   58.3040 C.3   413  LYS413      0.1561
     61  C          6.5850   22.1440   58.0300 C.2   413  LYS413      0.2260
     62  O          5.7230   21.5370   58.6680 O.2   413  LYS413     -0.2867
     63  CB         8.4390   23.0280   59.3400 C.3   413  LYS413      0.0271
     64  CG         9.8720   22.9150   59.7460 C.3   413  LYS413      0.0035
     65  CD        10.2760   24.2070   60.4740 C.3   413  LYS413      0.0206
     66  CE        11.7000   24.1170   60.9320 C.3   413  LYS413      0.1093
     67  NZ        11.9260   22.9890   61.8670 N.3   413  LYS413     -0.1314
     68  N         12.7580   35.5710   59.2420 N.3   429  LEU429     -0.1245
     69  CA        13.7820   34.8750   59.9950 C.3   429  LEU429      0.1561
     70  C         15.1880   35.1650   59.5310 C.2   429  LEU429      0.2260
     71  O         16.1100   35.2210   60.3300 O.2   429  LEU429     -0.2867
     72  CB        13.4770   33.4050   60.0390 C.3   429  LEU429      0.0270
     73  CG        12.2410   33.2300   60.8930 C.3   429  LEU429      0.0019
     74  CD1       11.9680   31.8110   60.9900 C.3   429  LEU429      0.0001
     75  CD2       12.4790   33.7920   62.2650 C.3   429  LEU429      0.0001
     76  N         12.5330   35.3460   66.5780 N.3   452  LEU452     -0.1245
     77  CA        11.9370   34.1580   66.0320 C.3   452  LEU452      0.1561
     78  C         10.5450   34.0330   66.5470 C.2   452  LEU452      0.2260
     79  O          9.6430   33.6690   65.8390 O.2   452  LEU452     -0.2867
     80  CB        12.7390   32.9690   66.5180 C.3   452  LEU452      0.0270
     81  CG        13.2750   32.0950   65.4080 C.3   452  LEU452      0.0019
     82  CD1       14.3650   31.1740   65.9260 C.3   452  LEU452      0.0001
     83  CD2       12.1390   31.3000   64.7320 C.3   452  LEU452      0.0001
     84  N          8.7880   27.9770   69.6450 N.3   484  ARG484     -0.1245
     85  CA         9.9540   27.9900   68.8160 C.3   484  ARG484      0.1563
     86  C         10.5700   26.6040   68.8280 C.2   484  ARG484      0.2260
     87  O         10.8290   26.0460   67.7660 O.2   484  ARG484     -0.2867
     88  CB        10.9400   29.0340   69.2900 C.3   484  ARG484      0.0307
     89  CG        11.9350   29.4640   68.2440 C.3   484  ARG484      0.0489
     90  CD        13.0000   28.4380   68.1330 C.3   484  ARG484      0.2205
     91  NE        13.4730   28.1710   69.4730 N.pl3 484  ARG484     -0.0865
     92  CZ        14.0490   27.0390   69.8400 C.cat 484  ARG484      0.5346
     93  NH1       14.1880   26.0760   68.9600 N.pl3 484  ARG484      0.1354
     94  NH2       14.4890   26.8880   71.0700 N.pl3 484  ARG484      0.1354
     95  N         11.0730   24.4730   65.6510 N.3   488  SER488     -0.1217
     96  CA        12.4200   23.9590   65.3850 C.3   488  SER488      0.1889
     97  C         12.3400   22.4590   65.2460 C.2   488  SER488      0.2288
     98  O         13.0120   21.8800   64.4140 O.2   488  SER488     -0.2866
     99  CB        13.3440   24.2560   66.5420 C.3   488  SER488      0.2089
    100  OG        13.5900   25.6410   66.5290 O.3   488  SER488     -0.2183
@<TRIPOS>BOND
     1    17    18    1
     2    19    18    1
     3    19    20    2
     4    18    21    1
     5    36    37    1
     6    28    29    1
     7    30    31    2
     8    30    29    1
     9    21    22    1
    10    49    50    2
    11    49    48    1
    12    29    32    1
    13    37    38    1
    14    37    40    1
    15    47    38   am
    16    47    48    1
    17    38    39    2
    18    32    33    1
    19    59    60    1
    20    48    51    1
    21    51    52    1
    22    22    23   ar
    23    22    24   ar
    24    40    41    1
    25    33    34    1
    26    33    35    1
    27    23    25   ar
    28    61    60    1
    29    61    62    2
    30    24    26   ar
    31    60    63    1
    32    52    54   ar
    33    52    53   ar
    34    41    42    1
    35    54    56   ar
    36    46    44    1
    37    68    69    1
    38    43    44    2
    39    43    42    1
    40    25    27   ar
    41    63    64    1
    42    26    27   ar
    43    70    69    1
    44    70    71    2
    45    44    45    1
    46    64    65    1
    47    53    55   ar
    48    69    72    1
    49    72    73    1
    50    56    57   ar
    51    65    66    1
    52    73    74    1
    53    73    75    1
    54    66    67    1
    55    12    11    2
    56    55    57   ar
    57    57    58    1
    58    15    14    2
    59    11    10    1
    60    10    13    1
    61    10     9    1
    62    14    13    1
    63    14    16   am
    64    98    97    2
    65    83    81    1
    66    97    96    1
    67    96    95    1
    68    96    99    1
    69    81    82    1
    70    81    80    1
    71     4     3    2
    72    79    78    2
    73    77    80    1
    74    77    78    1
    75    77    76    1
    76     8     6    1
    77   100    99    1
    78     3     2    1
    79     2     5    1
    80     2     1    1
    81     5     6    1
    82     6     7    1
    83    87    86    2
    84    90    89    1
    85    90    91    1
    86    89    88    1
    87    85    86    1
    88    85    88    1
    89    85    84    1
    90    93    92    1
    91    91    92    2
    92    92    94    1
