@<TRIPOS>MOLECULE
tmp/4f5uA07.pdb
 98 93 0 0 0
SMALL
GASTEIGER

@<TRIPOS>ATOM
      1  N          6.0930   42.3820   67.1600 N.3   194  LYS194     -0.1245
      2  CA         6.1900   42.3520   68.6070 C.3   194  LYS194      0.1561
      3  C          4.8350   42.4730   69.2280 C.2   194  LYS194      0.2260
      4  O          4.4710   41.6820   70.0980 O.2   194  LYS194     -0.2867
      5  CB         7.0550   43.4560   69.0920 C.3   194  LYS194      0.0271
      6  CG         8.5320   43.0750   69.1100 C.3   194  LYS194      0.0035
      7  CD         9.4050   44.2490   69.4180 C.3   194  LYS194      0.0206
      8  CE         9.3150   44.6200   70.8700 C.3   194  LYS194      0.1093
      9  NZ        10.4910   45.4560   71.3680 N.3   194  LYS194     -0.1314
     10  N          2.3730   39.9400   71.3250 N.3   198  LYS198     -0.1245
     11  CA         1.7960   40.2280   72.6150 C.3   198  LYS198      0.1561
     12  C          0.3650   39.9200   72.5130 C.2   198  LYS198      0.2260
     13  O         -0.2020   39.3520   73.3990 O.2   198  LYS198     -0.2867
     14  CB         1.9710   41.6910   73.0190 C.3   198  LYS198      0.0271
     15  CG         3.4170   42.0410   73.1500 C.3   198  LYS198      0.0035
     16  CD         3.6220   43.3260   73.9180 C.3   198  LYS198      0.0206
     17  CE         5.1040   43.4650   74.2530 C.3   198  LYS198      0.1093
     18  NZ         5.9740   43.3110   73.0410 N.3   198  LYS198     -0.1314
     19  N          5.7450   36.2610   80.1720 N.3   213  TRP213     -0.1227
     20  CA         6.6100   36.7910   79.1580 C.3   213  TRP213      0.1737
     21  C          7.1980   38.0990   79.6010 C.2   213  TRP213      0.2596
     22  O          8.3820   38.2920   79.5150 O.2   213  TRP213     -0.2718
     23  CB         5.8220   37.0330   77.8880 C.3   213  TRP213      0.0564
     24  CG         6.7180   37.2120   76.7810 C.ar  213  TRP213      0.0003
     25  CD1        7.2650   36.2290   76.0240 C.ar  213  TRP213      0.0946
     26  CD2        7.3120   38.4250   76.3660 C.ar  213  TRP213      0.0152
     27  NE1        8.0840   36.7750   75.0880 N.ar  213  TRP213     -0.2442
     28  CE2        8.1600   38.1250   75.3060 C.ar  213  TRP213      0.0810
     29  CE3        7.2000   39.7510   76.7830 C.ar  213  TRP213      0.0012
     30  CZ2        8.8910   39.0980   74.6500 C.ar  213  TRP213      0.0191
     31  CZ3        7.8740   40.6990   76.1230 C.ar  213  TRP213      0.0001
     32  CH2        8.7290   40.3870   75.0630 C.ar  213  TRP213      0.0015
     33  N          6.3420   39.0140   80.0570 N.am  214  SER214     -0.1952
     34  CA         6.7560   40.3390   80.3150 C.3   214  SER214      0.1924
     35  C          7.5770   40.3050   81.5190 C.2   214  SER214      0.2314
     36  O          8.4670   41.0870   81.6180 O.2   214  SER214     -0.2863
     37  CB         5.5830   41.3250   80.5490 C.3   214  SER214      0.2116
     38  OG         4.8000   41.3610   79.3790 O.3   214  SER214     -0.2180
     39  N         10.8420   39.2330   80.3850 N.3   217  ARG217     -0.1231
     40  CA        11.4420   40.2190   79.5610 C.3   217  ARG217      0.1694
     41  C         11.7510   41.4480   80.3670 C.2   217  ARG217      0.2591
     42  O         12.8120   42.0170   80.2190 O.2   217  ARG217     -0.2718
     43  CB        10.5490   40.5770   78.3640 C.3   217  ARG217      0.0321
     44  CG        11.1820   41.6240   77.4680 C.3   217  ARG217      0.0489
     45  CD        12.3170   40.9320   76.7270 C.3   217  ARG217      0.2205
     46  NE        13.1360   41.8210   75.9440 N.pl3 217  ARG217     -0.0865
     47  CZ        14.3940   42.1320   76.2460 C.cat 217  ARG217      0.5346
     48  NH1       14.9320   41.6610   77.3250 N.pl3 217  ARG217      0.1354
     49  NH2       15.1140   42.9240   75.4710 N.pl3 217  ARG217      0.1354
     50  N         10.8360   41.8970   81.2200 N.am  218  LEU218     -0.1980
     51  CA        11.1590   43.1500   81.8820 C.3   218  LEU218      0.1596
     52  C         12.1520   42.8930   82.9750 C.2   218  LEU218      0.2287
     53  O         12.8560   43.7660   83.3890 O.2   218  LEU218     -0.2864
     54  CB         9.9390   43.8640   82.4480 C.3   218  LEU218      0.0297
     55  CG         8.9370   44.1990   81.3610 C.3   218  LEU218      0.0022
     56  CD1        7.7790   44.9250   81.9940 C.3   218  LEU218      0.0001
     57  CD2        9.5660   44.9550   80.1710 C.3   218  LEU218      0.0001
     58  N         15.2390   43.2890   81.2730 N.3   221  LYS221     -0.1245
     59  CA        15.4670   44.6650   80.9470 C.3   221  LYS221      0.1561
     60  C         15.7830   45.4420   82.1520 C.2   221  LYS221      0.2260
     61  O         16.5620   46.3930   82.1040 O.2   221  LYS221     -0.2867
     62  CB        14.2220   45.2480   80.3470 C.3   221  LYS221      0.0271
     63  CG        14.1080   44.8570   78.9060 C.3   221  LYS221      0.0035
     64  CD        13.0070   45.6560   78.2450 C.3   221  LYS221      0.0206
     65  CE        13.1460   45.4710   76.7410 C.3   221  LYS221      0.1093
     66  NZ        12.5150   46.6010   76.0330 N.3   221  LYS221     -0.1314
     67  N          1.8290   46.8660   82.2010 N.3   237  LEU237     -0.1245
     68  CA         2.1680   46.8500   80.8100 C.3   237  LEU237      0.1561
     69  C          1.2500   45.8320   80.1620 C.2   237  LEU237      0.2260
     70  O          0.8040   46.0100   79.0580 O.2   237  LEU237     -0.2867
     71  CB         3.6300   46.4660   80.6150 C.3   237  LEU237      0.0270
     72  CG         4.0640   46.5190   79.1540 C.3   237  LEU237      0.0019
     73  CD1        3.9310   47.9440   78.5010 C.3   237  LEU237      0.0001
     74  CD2        5.4320   45.9350   79.0170 C.3   237  LEU237      0.0001
     75  N         -1.1570   46.3350   77.0290 N.3   241  HIS241     -0.1241
     76  CA        -1.1940   45.6450   75.7840 C.3   241  HIS241      0.1621
     77  C         -2.4390   44.8820   75.6520 C.2   241  HIS241      0.2264
     78  O         -2.8470   44.6670   74.5420 O.2   241  HIS241     -0.2867
     79  CB        -0.0180   44.7510   75.6580 C.3   241  HIS241      0.0745
     80  CG         1.2220   45.4930   75.3490 C.ar  241  HIS241      0.0817
     81  ND1        1.4900   45.9860   74.0920 N.ar  241  HIS241     -0.2268
     82  CD2        2.2760   45.8200   76.1270 C.ar  241  HIS241      0.1154
     83  CE1        2.6700   46.5790   74.1110 C.ar  241  HIS241      0.1986
     84  NE2        3.1610   46.4950   75.3380 N.ar  241  HIS241     -0.2212
     85  N          9.6730   51.1120   75.9230 N.3   290  ALA290     -0.1231
     86  CA         9.3110   49.8430   75.3650 C.3   290  ALA290      0.1694
     87  C         10.5350   49.2010   74.7960 C.2   290  ALA290      0.2591
     88  O         10.7210   47.9920   74.8950 O.2   290  ALA290     -0.2718
     89  CB         8.2480   50.0010   74.3270 C.3   290  ALA290      0.0304
     90  N         11.4130   50.0140   74.2360 N.am  291  GLU291     -0.1979
     91  CA        12.4890   49.4420   73.4550 C.3   291  GLU291      0.1602
     92  C         13.7240   49.4460   74.2660 C.2   291  GLU291      0.2287
     93  O         14.7890   49.0530   73.7990 O.2   291  GLU291     -0.2864
     94  CB        12.6940   50.2010   72.1630 C.3   291  GLU291      0.0415
     95  CG        11.5100   50.0280   71.2170 C.3   291  GLU291      0.1163
     96  CD        11.0900   48.5660   71.0440 C.2   291  GLU291      0.3649
     97  OE1       11.9640   47.6640   70.9910 O.co2 291  GLU291     -0.2457
     98  OE2        9.8740   48.3040   70.9580 O.co2 291  GLU291     -0.2457
@<TRIPOS>BOND
     1     1     2    1
     2     2     5    1
     3     2     3    1
     4     5     6    1
     5     6     7    1
     6     3     4    2
     7     7     8    1
     8     8     9    1
     9    98    96   ar
    10    97    96   ar
    11    96    95    1
    12    95    94    1
    13    10    11    1
    14    94    91    1
    15    12    11    1
    16    12    13    2
    17    11    14    1
    18    14    15    1
    19    18    17    1
    20    15    16    1
    21    91    90    1
    22    91    92    1
    23    93    92    2
    24    16    17    1
    25    81    83   ar
    26    81    80   ar
    27    83    84   ar
    28    90    87   am
    29    89    86    1
    30    78    77    2
    31    30    32   ar
    32    30    28   ar
    33    87    88    2
    34    87    86    1
    35    32    31   ar
    36    27    28   ar
    37    27    25   ar
    38    28    26   ar
    39    84    82   ar
    40    80    79    1
    41    80    82   ar
    42    86    85    1
    43    49    47    1
    44    77    76    1
    45    79    76    1
    46    76    75    1
    47    46    47    2
    48    46    45    1
    49    25    24   ar
    50    66    65    1
    51    31    29   ar
    52    47    48    1
    53    26    24   ar
    54    26    29   ar
    55    45    44    1
    56    65    64    1
    57    24    23    1
    58    44    43    1
    59    23    20    1
    60    64    63    1
    61    43    40    1
    62    73    72    1
    63    63    62    1
    64    74    72    1
    65    70    69    2
    66    72    71    1
    67    20    21    1
    68    20    19    1
    69    38    37    1
    70    22    21    2
    71    40    41    1
    72    40    39    1
    73    21    33   am
    74    33    34    1
    75    69    68    1
    76    57    55    1
    77    42    41    2
    78    34    37    1
    79    34    35    1
    80    62    59    1
    81    41    50   am
    82    71    68    1
    83    68    67    1
    84    59    58    1
    85    59    60    1
    86    50    51    1
    87    55    56    1
    88    55    54    1
    89    35    36    2
    90    51    54    1
    91    51    52    1
    92    61    60    2
    93    52    53    2
