@<TRIPOS>MOLECULE
tmp/4f5uA05.pdb
 81 75 0 0 0
SMALL
GASTEIGER

@<TRIPOS>ATOM
      1  N          2.6660   39.5550   68.6720 N.3   197  LEU197     -0.1231
      2  CA         3.0070   38.4390   69.5180 C.3   197  LEU197      0.1693
      3  C          2.3150   38.7070   70.8280 C.2   197  LEU197      0.2591
      4  O          1.7350   37.8130   71.3890 O.2   197  LEU197     -0.2718
      5  CB         4.5380   38.3200   69.6800 C.3   197  LEU197      0.0284
      6  CG         5.0270   37.3510   70.7500 C.3   197  LEU197      0.0019
      7  CD1        4.3450   35.9560   70.5720 C.3   197  LEU197      0.0001
      8  CD2        6.5870   37.1970   70.9480 C.3   197  LEU197      0.0001
      9  N          2.3730   39.9400   71.3250 N.am  198  LYS198     -0.1980
     10  CA         1.7960   40.2280   72.6150 C.3   198  LYS198      0.1596
     11  C          0.3650   39.9200   72.5130 C.2   198  LYS198      0.2287
     12  O         -0.2020   39.3520   73.3990 O.2   198  LYS198     -0.2864
     13  CB         1.9710   41.6910   73.0190 C.3   198  LYS198      0.0298
     14  CG         3.4170   42.0410   73.1500 C.3   198  LYS198      0.0038
     15  CD         3.6220   43.3260   73.9180 C.3   198  LYS198      0.0206
     16  CE         5.1040   43.4650   74.2530 C.3   198  LYS198      0.1093
     17  NZ         5.9740   43.3110   73.0410 N.3   198  LYS198     -0.1314
     18  N         -0.3310   36.3970   72.2960 N.3   201  SER201     -0.1217
     19  CA        -0.1510   35.7210   73.5490 C.3   201  SER201      0.1889
     20  C         -1.3860   35.9400   74.3850 C.2   201  SER201      0.2288
     21  O         -1.8730   35.0130   74.9370 O.2   201  SER201     -0.2866
     22  CB         1.1120   36.1750   74.2830 C.3   201  SER201      0.2089
     23  OG         2.1540   36.1840   73.3170 O.3   201  SER201     -0.2183
     24  N          0.4070   34.3670   80.3780 N.3   209  ALA209     -0.1231
     25  CA         1.5060   33.9900   79.5440 C.3   209  ALA209      0.1694
     26  C          2.1590   35.2780   79.1650 C.2   209  ALA209      0.2591
     27  O          3.3820   35.3700   79.1320 O.2   209  ALA209     -0.2718
     28  CB         1.0130   33.2100   78.2890 C.3   209  ALA209      0.0304
     29  N          1.3320   36.2810   78.8820 N.am  210  VAL210     -0.1980
     30  CA         1.8240   37.5640   78.5160 C.3   210  VAL210      0.1595
     31  C          2.5790   38.1010   79.6850 C.2   210  VAL210      0.2287
     32  O          3.6500   38.6140   79.5110 O.2   210  VAL210     -0.2864
     33  CB         0.7220   38.5450   78.1700 C.3   210  VAL210      0.0276
     34  CG1        1.3080   39.9550   77.9970 C.3   210  VAL210      0.0022
     35  CG2        0.1470   38.1270   76.8810 C.3   210  VAL210      0.0022
     36  N          5.7450   36.2610   80.1720 N.3   213  TRP213     -0.1241
     37  CA         6.6100   36.7910   79.1580 C.3   213  TRP213      0.1605
     38  C          7.1980   38.0990   79.6010 C.2   213  TRP213      0.2264
     39  O          8.3820   38.2920   79.5150 O.2   213  TRP213     -0.2867
     40  CB         5.8220   37.0330   77.8880 C.3   213  TRP213      0.0550
     41  CG         6.7180   37.2120   76.7810 C.ar  213  TRP213      0.0003
     42  CD1        7.2650   36.2290   76.0240 C.ar  213  TRP213      0.0946
     43  CD2        7.3120   38.4250   76.3660 C.ar  213  TRP213      0.0152
     44  NE1        8.0840   36.7750   75.0880 N.ar  213  TRP213     -0.2442
     45  CE2        8.1600   38.1250   75.3060 C.ar  213  TRP213      0.0810
     46  CE3        7.2000   39.7510   76.7830 C.ar  213  TRP213      0.0012
     47  CZ2        8.8910   39.0980   74.6500 C.ar  213  TRP213      0.0191
     48  CZ3        7.8740   40.6990   76.1230 C.ar  213  TRP213      0.0001
     49  CH2        8.7290   40.3870   75.0630 C.ar  213  TRP213      0.0015
     50  N         11.4630   33.4100   75.6990 N.3   343  SER343     -0.1217
     51  CA        10.8340   32.1050   75.6880 C.3   343  SER343      0.1889
     52  C         11.7630   31.1020   76.3520 C.2   343  SER343      0.2288
     53  O         11.2970   30.2570   77.0980 O.2   343  SER343     -0.2866
     54  CB        10.3970   31.6620   74.2990 C.3   343  SER343      0.2089
     55  OG        11.4600   31.8650   73.4130 O.3   343  SER343     -0.2183
     56  N         11.1170   31.3980   79.8040 N.3   346  LEU346     -0.1245
     57  CA         9.8390   30.9580   80.1500 C.3   346  LEU346      0.1561
     58  C          9.8580   29.4790   80.1920 C.2   346  LEU346      0.2260
     59  O          9.1580   28.9040   80.9600 O.2   346  LEU346     -0.2867
     60  CB         8.8470   31.4290   79.1100 C.3   346  LEU346      0.0270
     61  CG         8.6220   32.9460   79.1660 C.3   346  LEU346      0.0019
     62  CD1        7.6360   33.2760   78.1000 C.3   346  LEU346      0.0001
     63  CD2        8.0410   33.2430   80.5120 C.3   346  LEU346      0.0001
     64  N         10.3410   34.3070   67.8200 N.3   453  ALA453     -0.1245
     65  CA         9.0200   34.2040   68.3680 C.3   453  ALA453      0.1562
     66  C          8.1270   35.1120   67.5320 C.2   453  ALA453      0.2260
     67  O          6.9790   34.8150   67.3420 O.2   453  ALA453     -0.2867
     68  CB         9.0230   34.6990   69.7870 C.3   453  ALA453      0.0290
     69  N          3.3100   28.7770   74.2890 N.3   480  LEU480     -0.1231
     70  CA         3.9470   29.8460   73.5650 C.3   480  LEU480      0.1693
     71  C          5.4320   29.7970   73.7810 C.2   480  LEU480      0.2591
     72  O          6.2210   30.0680   72.8780 O.2   480  LEU480     -0.2718
     73  CB         3.4400   31.1510   74.0910 C.3   480  LEU480      0.0284
     74  CG         3.7780   32.4000   73.3270 C.3   480  LEU480      0.0019
     75  CD1        3.7480   32.1840   71.8550 C.3   480  LEU480      0.0001
     76  CD2        2.6840   33.3030   73.7260 C.3   480  LEU480      0.0001
     77  N          5.8190   29.4100   74.9780 N.am  481  ALA481     -0.1980
     78  CA         7.2320   29.2930   75.2750 C.3   481  ALA481      0.1597
     79  C          7.9080   28.1900   74.4400 C.2   481  ALA481      0.2287
     80  O          9.1150   28.2370   74.1990 O.2   481  ALA481     -0.2864
     81  CB         7.4070   29.0320   76.7580 C.3   481  ALA481      0.0319
@<TRIPOS>BOND
     1    67    66    2
     2    66    65    1
     3    64    65    1
     4    65    68    1
     5     1     2    1
     6     2     5    1
     7     2     3    1
     8     5     6    1
     9     7     6    1
    10     6     8    1
    11     3     9   am
    12     3     4    2
    13     9    10    1
    14    75    74    1
    15    18    19    1
    16    11    10    1
    17    11    12    2
    18    10    13    1
    19    72    71    2
    20    13    14    1
    21    17    16    1
    22    14    15    1
    23    23    22    1
    24    74    76    1
    25    74    73    1
    26    55    54    1
    27    19    22    1
    28    19    20    1
    29    70    71    1
    30    70    73    1
    31    70    69    1
    32    71    77   am
    33    15    16    1
    34    80    79    2
    35    54    51    1
    36    20    21    2
    37    79    78    1
    38    47    49   ar
    39    47    45   ar
    40    77    78    1
    41    49    48   ar
    42    44    45   ar
    43    44    42   ar
    44    78    81    1
    45    45    43   ar
    46    51    50    1
    47    51    52    1
    48    42    41   ar
    49    48    46   ar
    50    52    53    2
    51    43    41   ar
    52    43    46   ar
    53    41    40    1
    54    35    33    1
    55    40    37    1
    56    34    33    1
    57    62    61    1
    58    33    30    1
    59    28    25    1
    60    30    29    1
    61    30    31    1
    62    29    26   am
    63    60    61    1
    64    60    57    1
    65    27    26    2
    66    37    38    1
    67    37    36    1
    68    26    25    1
    69    61    63    1
    70    32    31    2
    71    39    38    2
    72    25    24    1
    73    56    57    1
    74    57    58    1
    75    58    59    2
