@<TRIPOS>MOLECULE
tmp/4f5uA03.pdb
 76 70 0 0 0
SMALL
GASTEIGER

@<TRIPOS>ATOM
      1  N         -5.4910   61.9490   76.7240 N.3    14  LEU14      -0.1245
      2  CA        -4.5900   61.7010   75.6360 C.3    14  LEU14       0.1561
      3  C         -4.3850   62.9500   74.8940 C.2    14  LEU14       0.2260
      4  O         -3.3220   63.1400   74.3220 O.2    14  LEU14      -0.2867
      5  CB        -5.1140   60.5930   74.7340 C.3    14  LEU14       0.0270
      6  CG        -4.9240   59.2940   75.5160 C.3    14  LEU14       0.0019
      7  CD1       -5.6100   58.1600   74.8550 C.3    14  LEU14       0.0001
      8  CD2       -3.4460   59.0190   75.7950 C.3    14  LEU14       0.0001
      9  N         -3.6240   62.6720   70.0090 N.3    18  HIS18      -0.1241
     10  CA        -3.3530   61.2770   70.2170 C.3    18  HIS18       0.1621
     11  C         -4.6340   60.5660   70.2230 C.2    18  HIS18       0.2264
     12  O         -4.7320   59.4920   69.6930 O.2    18  HIS18      -0.2867
     13  CB        -2.5760   61.0720   71.4690 C.3    18  HIS18       0.0745
     14  CG        -1.1800   61.5660   71.3420 C.ar   18  HIS18       0.0817
     15  ND1       -0.3920   61.8610   72.4240 N.ar   18  HIS18      -0.2268
     16  CD2       -0.4370   61.8340   70.2430 C.ar   18  HIS18       0.1154
     17  CE1        0.7780   62.3150   72.0030 C.ar   18  HIS18       0.1986
     18  NE2        0.7860   62.2760   70.6840 N.ar   18  HIS18      -0.2212
     19  N         -0.2870   53.2410   70.5170 N.3   151  PRO151     -0.2116
     20  CA         0.5390   54.3360   70.9610 C.3   151  PRO151      0.1372
     21  C          1.8010   54.3300   70.1650 C.2   151  PRO151      0.2244
     22  O          2.2570   55.3720   69.7280 O.2   151  PRO151     -0.2868
     23  CB         0.8540   53.9490   72.3770 C.3   151  PRO151      0.0268
     24  CG        -0.2390   53.2030   72.7960 C.3   151  PRO151      0.0207
     25  CD        -0.6770   52.3950   71.6390 C.3   151  PRO151      0.0892
     26  N          1.4470   55.8400   66.9280 N.3   154  LEU154     -0.1245
     27  CA         1.4910   57.2910   66.9210 C.3   154  LEU154      0.1561
     28  C          2.9250   57.6960   66.9720 C.2   154  LEU154      0.2260
     29  O          3.3020   58.6820   66.3410 O.2   154  LEU154     -0.2867
     30  CB         0.7610   57.9640   68.0830 C.3   154  LEU154      0.0270
     31  CG        -0.6320   57.4910   68.4450 C.3   154  LEU154      0.0019
     32  CD1       -1.0710   58.2660   69.6950 C.3   154  LEU154      0.0001
     33  CD2       -1.6200   57.6460   67.2740 C.3   154  LEU154      0.0001
     34  N         -3.3030   53.5540   75.3680 N.3   253  ALA253     -0.1245
     35  CA        -2.3190   54.6060   75.2570 C.3   253  ALA253      0.1562
     36  C         -2.2360   55.3360   76.5790 C.2   253  ALA253      0.2260
     37  O         -1.1660   55.7510   77.0450 O.2   253  ALA253     -0.2867
     38  CB        -2.6930   55.5440   74.1600 C.3   253  ALA253      0.0290
     39  N         -0.6480   53.3620   78.9990 N.3   256  ARG256     -0.1231
     40  CA         0.7350   53.2610   78.6740 C.3   256  ARG256      0.1694
     41  C          1.4940   54.4730   79.1280 C.2   256  ARG256      0.2591
     42  O          2.5900   54.3180   79.6090 O.2   256  ARG256     -0.2718
     43  CB         0.8800   53.1420   77.1880 C.3   256  ARG256      0.0321
     44  CG         2.2460   53.1570   76.7730 C.3   256  ARG256      0.0489
     45  CD         2.2260   53.2340   75.3040 C.3   256  ARG256      0.2205
     46  NE         3.4900   52.8000   74.8200 N.pl3 256  ARG256     -0.0865
     47  CZ         4.1270   53.3070   73.7890 C.cat 256  ARG256      0.5346
     48  NH1        3.6270   54.3560   73.1610 N.pl3 256  ARG256      0.1354
     49  NH2        5.3050   52.7710   73.4530 N.pl3 256  ARG256      0.1354
     50  N          0.9130   55.6610   78.9110 N.am  257  ALA257     -0.1980
     51  CA         1.4910   56.8910   79.3300 C.3   257  ALA257      0.1597
     52  C          1.5620   56.8530   80.8140 C.2   257  ALA257      0.2287
     53  O          2.5280   57.3140   81.3760 O.2   257  ALA257     -0.2864
     54  CB         0.6620   58.1020   78.8940 C.3   257  ALA257      0.0319
     55  N          6.7150   62.4710   75.5050 N.3   282  LEU282     -0.1231
     56  CA         5.8130   61.3600   75.8100 C.3   282  LEU282      0.1693
     57  C          5.9480   60.0630   75.0160 C.2   282  LEU282      0.2591
     58  O          6.1300   58.9750   75.5850 O.2   282  LEU282     -0.2718
     59  CB         4.4020   61.8740   75.6180 C.3   282  LEU282      0.0284
     60  CG         3.2360   60.9530   75.8370 C.3   282  LEU282      0.0019
     61  CD1        3.1040   60.7370   77.3190 C.3   282  LEU282      0.0001
     62  CD2        1.9800   61.6720   75.2400 C.3   282  LEU282      0.0001
     63  N          5.7990   60.1550   73.7050 N.am  283  LEU283     -0.1980
     64  CA         5.6190   58.9650   72.8860 C.3   283  LEU283      0.1596
     65  C          6.9580   58.3470   72.7550 C.2   283  LEU283      0.2287
     66  O          7.1130   57.1420   72.8090 O.2   283  LEU283     -0.2864
     67  CB         5.0760   59.3110   71.5110 C.3   283  LEU283      0.0297
     68  CG         3.5750   59.5760   71.4090 C.3   283  LEU283      0.0022
     69  CD1        3.2710   59.8640   69.9660 C.3   283  LEU283      0.0001
     70  CD2        2.7470   58.3720   71.8890 C.3   283  LEU283      0.0001
     71  N          7.7940   56.5160   75.8850 N.3   286  SER286     -0.1217
     72  CA         7.0990   55.2660   76.0230 C.3   286  SER286      0.1889
     73  C          7.7850   54.3060   75.0790 C.2   286  SER286      0.2288
     74  O          8.0980   53.1760   75.4370 O.2   286  SER286     -0.2866
     75  CB         5.6870   55.4520   75.5320 C.3   286  SER286      0.2089
     76  OG         4.8120   55.8590   76.5520 O.3   286  SER286     -0.2183
@<TRIPOS>BOND
     1    29    28    2
     2    27    26    1
     3    27    28    1
     4    27    30    1
     5    33    31    1
     6    30    31    1
     7    31    32    1
     8    12    11    2
     9    22    21    2
    10    69    68    1
    11     9    10    1
    12    21    20    1
    13    10    11    1
    14    10    13    1
    15    16    18   ar
    16    16    14   ar
    17    19    20    1
    18    19    25    1
    19    18    17   ar
    20    20    23    1
    21    14    13    1
    22    14    15   ar
    23    68    67    1
    24    68    70    1
    25    67    64    1
    26    25    24    1
    27    17    15   ar
    28    23    24    1
    29    65    66    2
    30    65    64    1
    31    64    63    1
    32    48    47    1
    33    49    47    1
    34    63    57   am
    35    47    46    2
    36    38    35    1
    37     4     3    2
    38     5     6    1
    39     5     2    1
    40    46    45    1
    41     7     6    1
    42     3     2    1
    43    57    58    2
    44    57    56    1
    45    73    74    2
    46    73    72    1
    47    62    60    1
    48    35    34    1
    49    35    36    1
    50    45    44    1
    51    55    56    1
    52     6     8    1
    53    75    72    1
    54    75    76    1
    55    59    56    1
    56    59    60    1
    57     2     1    1
    58    60    61    1
    59    71    72    1
    60    36    37    2
    61    44    43    1
    62    43    40    1
    63    40    39    1
    64    40    41    1
    65    54    51    1
    66    50    41   am
    67    50    51    1
    68    41    42    2
    69    51    52    1
    70    52    53    2
