@<TRIPOS>MOLECULE
tmp/4f5vA00.pdb
 144 132 0 0 0
SMALL
GASTEIGER

@<TRIPOS>ATOM
      1  N         39.7630   10.2380   60.6240 N.3   209  ARG209     -0.1231
      2  CA        40.3640    9.6490   59.4330 C.3   209  ARG209      0.1694
      3  C         41.5550   10.4110   58.8570 C.2   209  ARG209      0.2591
      4  O         42.5250    9.7930   58.4280 O.2   209  ARG209     -0.2718
      5  CB        39.3040    9.3770   58.3770 C.3   209  ARG209      0.0321
      6  CG        38.1630    8.4440   58.8770 C.3   209  ARG209      0.0489
      7  CD        37.1130    8.1100   57.7960 C.3   209  ARG209      0.2205
      8  NE        37.6780    7.4100   56.6050 N.pl3 209  ARG209     -0.0865
      9  CZ        38.1190    8.0700   55.5460 C.cat 209  ARG209      0.5346
     10  NH1       38.0360    9.4060   55.5540 N.pl3 209  ARG209      0.1354
     11  NH2       38.6270    7.4410   54.4940 N.pl3 209  ARG209      0.1354
     12  N         41.4690   11.7390   58.8490 N.am  210  ALA210     -0.1980
     13  CA        42.5560   12.6160   58.3200 C.3   210  ALA210      0.1597
     14  C         43.7970   12.5060   59.1720 C.2   210  ALA210      0.2287
     15  O         44.9260   12.4030   58.6480 O.2   210  ALA210     -0.2864
     16  CB        42.1080   14.0550   58.2480 C.3   210  ALA210      0.0319
     17  N         44.2480    9.7050   61.0820 N.3   212  LYS212     -0.1231
     18  CA        44.6800    8.3080   60.8180 C.3   212  LYS212      0.1693
     19  C         45.5230    8.1690   59.5600 C.2   212  LYS212      0.2591
     20  O         46.5790    7.5160   59.6170 O.2   212  LYS212     -0.2718
     21  CB        43.5570    7.2900   60.7470 C.3   212  LYS212      0.0285
     22  CG        42.7550    7.2430   62.0310 C.3   212  LYS212      0.0035
     23  CD        41.5200    6.3600   61.9590 C.3   212  LYS212      0.0206
     24  CE        40.8750    6.2530   63.3810 C.3   212  LYS212      0.1093
     25  NZ        40.0180    5.0370   63.5640 N.3   212  LYS212     -0.1314
     26  N         45.1030    8.7930   58.4530 N.am  213  ALA213     -0.1980
     27  CA        45.8160    8.6180   57.1970 C.3   213  ALA213      0.1597
     28  C         47.2440    9.1340   57.3490 C.2   213  ALA213      0.2287
     29  O         48.2150    8.4390   57.0150 O.2   213  ALA213     -0.2864
     30  CB        45.0990    9.3300   56.0800 C.3   213  ALA213      0.0319
     31  N         49.2980    6.9370   59.5200 N.3   216  LEU216     -0.1245
     32  CA        49.6220    5.7240   58.8220 C.3   216  LEU216      0.1561
     33  C         50.8870    5.9180   57.9790 C.2   216  LEU216      0.2260
     34  O         51.7590    5.0470   57.9720 O.2   216  LEU216     -0.2867
     35  CB        48.4570    5.2500   57.9470 C.3   216  LEU216      0.0270
     36  CG        48.5800    4.0230   57.0250 C.3   216  LEU216      0.0019
     37  CD1       49.1540    2.8150   57.7760 C.3   216  LEU216      0.0001
     38  CD2       47.1570    3.6400   56.5390 C.3   216  LEU216      0.0001
     39  N         51.3440   -4.3300   58.2000 N.3   228  PHE228     -0.1241
     40  CA        50.1990   -3.4160   58.1200 C.3   228  PHE228      0.1605
     41  C         49.2770   -3.4940   59.3200 C.2   228  PHE228      0.2264
     42  O         48.7500   -2.4900   59.7940 O.2   228  PHE228     -0.2867
     43  CB        49.4130   -3.7590   56.8590 C.3   228  PHE228      0.0534
     44  CG        48.2500   -2.8390   56.5920 C.ar  228  PHE228     -0.0203
     45  CD1       48.4380   -1.4630   56.5050 C.ar  228  PHE228     -0.0042
     46  CD2       46.9720   -3.3470   56.4410 C.ar  228  PHE228     -0.0042
     47  CE1       47.3730   -0.6100   56.2370 C.ar  228  PHE228     -0.0003
     48  CE2       45.8980   -2.5190   56.1990 C.ar  228  PHE228     -0.0003
     49  CZ        46.0780   -1.1490   56.0740 C.ar  228  PHE228     -0.0000
     50  N         48.5740   -0.5350   61.5190 N.3   232  SER232     -0.1217
     51  CA        47.1860   -0.0600   61.7630 C.3   232  SER232      0.1889
     52  C         46.8450    0.0270   63.2540 C.2   232  SER232      0.2288
     53  O         46.2470    0.9840   63.7010 O.2   232  SER232     -0.2866
     54  CB        46.1530   -0.9800   61.1080 C.3   232  SER232      0.2089
     55  OG        46.5360   -1.2750   59.7670 O.3   232  SER232     -0.2183
     56  N         48.3800    2.9480   64.9070 N.3   235  VAL235     -0.1245
     57  CA        47.7520    4.1080   64.3650 C.3   235  VAL235      0.1561
     58  C         46.4240    4.3500   65.0820 C.2   235  VAL235      0.2260
     59  O         46.1190    5.5020   65.4250 O.2   235  VAL235     -0.2867
     60  CB        47.4820    3.9290   62.8540 C.3   235  VAL235      0.0252
     61  CG1       46.3550    4.8950   62.4020 C.3   235  VAL235      0.0019
     62  CG2       48.7780    4.1580   62.1030 C.3   235  VAL235      0.0019
     63  N         37.2290   -0.1290   50.5280 N.3   323  LYS323     -0.1231
     64  CA        37.9590    1.0570   50.1190 C.3   323  LYS323      0.1693
     65  C         39.0900    1.4170   51.0480 C.2   323  LYS323      0.2592
     66  O         40.2650    1.5450   50.6050 O.2   323  LYS323     -0.2718
     67  CB        37.0610    2.2310   49.8890 C.3   323  LYS323      0.0285
     68  CG        37.8580    3.4440   49.4590 C.3   323  LYS323      0.0035
     69  CD        36.9160    4.4830   49.1380 C.3   323  LYS323      0.0206
     70  CE        37.4750    5.8300   49.3070 C.3   323  LYS323      0.1093
     71  NZ        37.0360    6.2820   50.6280 N.3   323  LYS323     -0.1314
     72  N         38.7660    1.5250   52.3300 N.am  324  ASP324     -0.1960
     73  CA        39.7240    2.0170   53.3150 C.3   324  ASP324      0.1840
     74  C         40.8680    1.0680   53.5350 C.2   324  ASP324      0.2621
     75  O         42.0260    1.4760   53.6090 O.2   324  ASP324     -0.2715
     76  CB        39.0460    2.3670   54.6490 C.3   324  ASP324      0.1450
     77  CG        38.8240    3.8650   54.8110 C.2   324  ASP324      0.3671
     78  OD1       39.2990    4.6330   53.9570 O.co2 324  ASP324     -0.2456
     79  OD2       38.1590    4.2900   55.7900 O.co2 324  ASP324     -0.2456
     80  N         40.5520   -0.2110   53.6120 N.am  325  LEU325     -0.1977
     81  CA        41.5620   -1.1600   53.8900 C.3   325  LEU325      0.1596
     82  C         42.4980   -1.1500   52.6870 C.2   325  LEU325      0.2287
     83  O         43.7480   -1.1290   52.8460 O.2   325  LEU325     -0.2864
     84  CB        40.9580   -2.5460   54.1820 C.3   325  LEU325      0.0297
     85  CG        41.9870   -3.5680   54.7100 C.3   325  LEU325      0.0022
     86  CD1       42.4300   -3.2160   56.1500 C.3   325  LEU325      0.0001
     87  CD2       41.4630   -5.0130   54.6710 C.3   325  LEU325      0.0001
     88  N         42.9320    1.3610   50.3250 N.3   327  LEU327     -0.1231
     89  CA        43.7300    2.6270   50.2530 C.3   327  LEU327      0.1693
     90  C         44.7400    2.7450   51.3940 C.2   327  LEU327      0.2592
     91  O         45.8430    3.2730   51.2220 O.2   327  LEU327     -0.2718
     92  CB        42.8520    3.9060   50.1200 C.3   327  LEU327      0.0284
     93  CG        42.1290    3.9180   48.7300 C.3   327  LEU327      0.0019
     94  CD1       41.2520    5.0970   48.4750 C.3   327  LEU327      0.0001
     95  CD2       43.1220    3.7790   47.6210 C.3   327  LEU327      0.0001
     96  N         44.3830    2.2440   52.5580 N.am  328  GLY328     -0.1957
     97  CA        45.3600    2.1910   53.6330 C.3   328  GLY328      0.1869
     98  C         46.6320    1.4540   53.1920 C.2   328  GLY328      0.2309
     99  O         47.7480    1.9930   53.2400 O.2   328  GLY328     -0.2863
    100  N         48.8090    3.3530   51.0780 N.3   331  LEU331     -0.1245
    101  CA        49.6030    4.3650   51.7750 C.3   331  LEU331      0.1561
    102  C         50.8170    3.7080   52.4830 C.2   331  LEU331      0.2260
    103  O         51.9470    4.1780   52.3620 O.2   331  LEU331     -0.2867
    104  CB        48.7230    5.0950   52.7890 C.3   331  LEU331      0.0270
    105  CG        47.6960    6.0680   52.2150 C.3   331  LEU331      0.0019
    106  CD1       46.7710    6.6620   53.2930 C.3   331  LEU331      0.0001
    107  CD2       48.4600    7.1850   51.4160 C.3   331  LEU331      0.0001
    108  N         50.4560   11.7330   50.8790 N.3   347  LEU347     -0.1245
    109  CA        49.0240   11.7500   51.0220 C.3   347  LEU347      0.1561
    110  C         48.3810   12.3430   49.7670 C.2   347  LEU347      0.2260
    111  O         47.2680   11.9820   49.4160 O.2   347  LEU347     -0.2867
    112  CB        48.5990   12.5630   52.2500 C.3   347  LEU347      0.0270
    113  CG        48.8510   12.0610   53.6750 C.3   347  LEU347      0.0019
    114  CD1       48.5570   13.1910   54.8190 C.3   347  LEU347      0.0001
    115  CD2       47.9540   10.8700   53.9300 C.3   347  LEU347      0.0001
    116  N         48.4640    9.4520   47.3650 N.3   350  GLY350     -0.1210
    117  CA        47.3520    8.5890   47.7670 C.3   350  GLY350      0.1956
    118  C         45.9990    9.1220   47.3180 C.2   350  GLY350      0.2611
    119  O         45.1640    8.3370   46.8670 O.2   350  GLY350     -0.2717
    120  N         45.8230   10.4570   47.3820 N.am  351  LYS351     -0.1979
    121  CA        44.6220   11.1350   46.9020 C.3   351  LYS351      0.1596
    122  C         44.4640   10.9440   45.3630 C.2   351  LYS351      0.2287
    123  O         43.3620   10.6130   44.8790 O.2   351  LYS351     -0.2864
    124  CB        44.7190   12.6050   47.1970 C.3   351  LYS351      0.0298
    125  CG        43.4450   13.2560   47.5570 C.3   351  LYS351      0.0038
    126  CD        43.6830   14.3970   48.5720 C.3   351  LYS351      0.0206
    127  CE        42.4750   15.3280   48.6410 C.3   351  LYS351      0.1093
    128  NZ        42.8110   16.8210   48.5920 N.3   351  LYS351     -0.1314
    129  N         43.5930    7.3930   44.3360 N.3   354  GLU354     -0.1245
    130  CA        42.1910    7.3080   44.5860 C.3   354  GLU354      0.1567
    131  C         41.3400    7.9970   43.5550 C.2   354  GLU354      0.2260
    132  O         40.4460    7.3960   43.0460 O.2   354  GLU354     -0.2867
    133  CB        41.8710    7.8610   45.9740 C.3   354  GLU354      0.0388
    134  CG        40.3840    7.8490   46.2460 C.3   354  GLU354      0.1160
    135  CD        40.0170    8.1970   47.6330 C.2   354  GLU354      0.3649
    136  OE1       40.9200    8.5340   48.4450 O.co2 354  GLU354     -0.2457
    137  OE2       38.7950    8.1750   47.8890 O.co2 354  GLU354     -0.2457
    138  N         45.6980   18.5550   53.0430 N.3   482  VAL482     -0.1245
    139  CA        46.9170   18.1220   52.3760 C.3   482  VAL482      0.1561
    140  C         47.4330   19.0390   51.2090 C.2   482  VAL482      0.2260
    141  O         48.5930   18.9760   50.8060 O.2   482  VAL482     -0.2867
    142  CB        46.6730   16.7000   51.8100 C.3   482  VAL482      0.0252
    143  CG1       47.7940   16.3420   50.9610 C.3   482  VAL482      0.0019
    144  CG2       46.4790   15.5980   52.9810 C.3   482  VAL482      0.0019
@<TRIPOS>BOND
     1   132   131    2
     2   131   130    1
     3   129   130    1
     4   130   133    1
     5   123   122    2
     6   122   121    1
     7   133   134    1
     8   134   135    1
     9   119   118    2
    10   121   124    1
    11   121   120    1
    12   124   125    1
    13   118   120   am
    14   118   117    1
    15   116   117    1
    16   125   126    1
    17    95    93    1
    18   135   137   ar
    19   135   136   ar
    20    94    93    1
    21   126   127    1
    22   128   127    1
    23    93    92    1
    24    69    70    1
    25    69    68    1
    26    70    71    1
    27   111   110    2
    28    68    67    1
    29   110   109    1
    30    67    64    1
    31    64    63    1
    32    64    65    1
    33    92    89    1
    34    89    88    1
    35    89    90    1
    36    66    65    2
    37   141   140    2
    38   108   109    1
    39   143   142    1
    40   109   112    1
    41    65    72   am
    42   100   101    1
    43   140   139    1
    44    91    90    2
    45    90    96   am
    46   107   105    1
    47   101   102    1
    48   101   104    1
    49   142   139    1
    50   142   144    1
    51   105   104    1
    52   105   106    1
    53   112   113    1
    54    72    73    1
    55   103   102    2
    56   139   138    1
    57    96    97    1
    58    82    83    2
    59    82    81    1
    60    98    99    2
    61    98    97    1
    62    73    74    1
    63    73    76    1
    64    74    75    2
    65    74    80   am
    66    80    81    1
    67   113   115    1
    68   113   114    1
    69    81    84    1
    70    78    77   ar
    71    84    85    1
    72    11     9    1
    73    76    77    1
    74    87    85    1
    75    85    86    1
    76    77    79   ar
    77     9    10    1
    78     9     8    2
    79    49    48   ar
    80    49    47   ar
    81    30    27    1
    82    48    46   ar
    83    47    45   ar
    84    46    44   ar
    85    45    44   ar
    86    38    36    1
    87    44    43    1
    88     8     7    1
    89    43    40    1
    90    29    28    2
    91    36    37    1
    92    36    35    1
    93    27    28    1
    94    27    26    1
    95     7     6    1
    96    35    32    1
    97    34    33    2
    98    33    32    1
    99    40    39    1
   100    40    41    1
   101    16    13    1
   102    13    12    1
   103    13    14    1
   104     5     6    1
   105     5     2    1
   106     4     3    2
   107    26    19   am
   108    15    14    2
   109    32    31    1
   110    12     3   am
   111     3     2    1
   112    41    42    2
   113     2     1    1
   114    19    20    2
   115    19    18    1
   116    55    54    1
   117    21    18    1
   118    21    22    1
   119    18    17    1
   120    54    51    1
   121    50    51    1
   122    51    52    1
   123    23    22    1
   124    23    24    1
   125    62    60    1
   126    61    60    1
   127    60    57    1
   128    52    53    2
   129    24    25    1
   130    57    56    1
   131    57    58    1
   132    58    59    2
