@<TRIPOS>MOLECULE
tmp/4f5vA01.pdb
 92 85 0 0 0
SMALL
GASTEIGER

@<TRIPOS>ATOM
      1  N         70.3260   35.1780   51.3370 N.3   398  LEU398     -0.1245
      2  CA        69.8750   36.3030   52.1370 C.3   398  LEU398      0.1561
      3  C         70.2170   36.1950   53.6520 C.2   398  LEU398      0.2260
      4  O         70.4510   37.2030   54.3240 O.2   398  LEU398     -0.2867
      5  CB        68.3400   36.5350   51.9470 C.3   398  LEU398      0.0270
      6  CG        67.7770   36.8710   50.5520 C.3   398  LEU398      0.0019
      7  CD1       66.3000   37.0370   50.5520 C.3   398  LEU398      0.0001
      8  CD2       68.4320   38.1060   49.8840 C.3   398  LEU398      0.0001
      9  N         67.4160   37.0400   58.6150 N.3   401  TYR401     -0.1227
     10  CA        66.6900   38.2650   58.7000 C.3   401  TYR401      0.1736
     11  C         66.1380   38.6870   57.3660 C.2   401  TYR401      0.2595
     12  O         64.9630   39.0300   57.2580 O.2   401  TYR401     -0.2718
     13  CB        67.6140   39.3440   59.2630 C.3   401  TYR401      0.0548
     14  CG        66.9640   40.7190   59.4350 C.ar  401  TYR401     -0.0200
     15  CD1       65.7530   40.8510   60.1000 C.ar  401  TYR401     -0.0009
     16  CD2       67.6210   41.8930   59.0060 C.ar  401  TYR401     -0.0009
     17  CE1       65.1720   42.1050   60.2960 C.ar  401  TYR401      0.0417
     18  CE2       67.0390   43.1720   59.1650 C.ar  401  TYR401      0.0417
     19  CZ        65.8130   43.2640   59.8300 C.ar  401  TYR401      0.1957
     20  OH        65.2000   44.4880   60.0490 O.3   401  TYR401     -0.2866
     21  N         66.9540   38.6000   56.3130 N.am  402  ASN402     -0.1974
     22  CA        66.5310   39.1310   55.0170 C.3   402  ASN402      0.1688
     23  C         65.6800   38.1190   54.3030 C.2   402  ASN402      0.2292
     24  O         64.8520   38.4730   53.4620 O.2   402  ASN402     -0.2864
     25  CB        67.7340   39.6460   54.1590 C.3   402  ASN402      0.1181
     26  CG        67.9880   41.1920   54.3020 C.2   402  ASN402      0.2629
     27  OD1       67.0850   41.9800   54.6210 O.2   402  ASN402     -0.2716
     28  ND2       69.2330   41.6090   54.0400 N.am  402  ASN402     -0.0877
     29  N         62.5140   38.8840   55.8250 N.3   405  ASN405     -0.1225
     30  CA        61.9520   40.1160   55.2420 C.3   405  ASN405      0.1785
     31  C         61.2830   39.8600   53.9000 C.2   405  ASN405      0.2597
     32  O         60.2150   40.3780   53.6220 O.2   405  ASN405     -0.2718
     33  CB        63.0180   41.1760   55.1140 C.3   405  ASN405      0.1169
     34  CG        63.4580   41.6820   56.4300 C.2   405  ASN405      0.2627
     35  OD1       62.7040   41.6260   57.3890 O.2   405  ASN405     -0.2716
     36  ND2       64.6750   42.2000   56.5010 N.am  405  ASN405     -0.0877
     37  N         61.8780   38.9750   53.1080 N.am  406  ALA406     -0.1979
     38  CA        61.3700   38.6980   51.7720 C.3   406  ALA406      0.1597
     39  C         60.0610   37.9270   51.8770 C.2   406  ALA406      0.2287
     40  O         59.1490   38.1150   51.0810 O.2   406  ALA406     -0.2864
     41  CB        62.4290   37.8830   50.9660 C.3   406  ALA406      0.0319
     42  N         57.2440   40.2840   52.8760 N.3   409  VAL409     -0.1245
     43  CA        56.7480   41.0280   51.7390 C.3   409  VAL409      0.1561
     44  C         55.8600   40.1370   50.8980 C.2   409  VAL409      0.2260
     45  O         54.7450   40.5270   50.5150 O.2   409  VAL409     -0.2867
     46  CB        57.9470   41.5590   50.9400 C.3   409  VAL409      0.0252
     47  CG1       57.4910   42.2720   49.6680 C.3   409  VAL409      0.0019
     48  CG2       58.7540   42.4960   51.8550 C.3   409  VAL409      0.0019
     49  N         57.5770   46.9750   58.4480 N.3   529  LEU529     -0.1245
     50  CA        57.7990   46.5790   57.0570 C.3   529  LEU529      0.1561
     51  C         56.4550   46.0810   56.5220 C.2   529  LEU529      0.2260
     52  O         55.9940   46.4740   55.4330 O.2   529  LEU529     -0.2867
     53  CB        58.8650   45.4760   56.9990 C.3   529  LEU529      0.0270
     54  CG        58.9630   44.6050   55.7320 C.3   529  LEU529      0.0019
     55  CD1       59.1660   45.4580   54.4820 C.3   529  LEU529      0.0001
     56  CD2       60.1280   43.5930   55.8550 C.3   529  LEU529      0.0001
     57  N         61.3530   46.9130   46.4880 N.3   541  ASN541     -0.1240
     58  CA        62.2300   46.4590   47.5380 C.3   541  ASN541      0.1653
     59  C         63.1810   47.4640   48.0880 C.2   541  ASN541      0.2266
     60  O         63.3390   47.5590   49.2830 O.2   541  ASN541     -0.2867
     61  CB        62.9950   45.2490   47.0540 C.3   541  ASN541      0.1155
     62  CG        62.1170   44.0060   47.0550 C.2   541  ASN541      0.2627
     63  OD1       61.0160   44.0030   47.6340 O.2   541  ASN541     -0.2716
     64  ND2       62.5850   42.9480   46.3870 N.am  541  ASN541     -0.0877
     65  N         61.3140   49.9360   49.9730 N.3   544  LEU544     -0.1231
     66  CA        60.8640   49.4080   51.2750 C.3   544  LEU544      0.1693
     67  C         61.9480   49.4460   52.3430 C.2   544  LEU544      0.2591
     68  O         61.6960   49.7490   53.4840 O.2   544  LEU544     -0.2718
     69  CB        60.2660   48.0060   51.1450 C.3   544  LEU544      0.0284
     70  CG        58.8780   47.9080   50.4900 C.3   544  LEU544      0.0019
     71  CD1       58.5050   46.4600   50.1300 C.3   544  LEU544      0.0001
     72  CD2       57.7470   48.5850   51.3200 C.3   544  LEU544      0.0001
     73  N         63.1680   49.2150   51.9240 N.am  545  LYS545     -0.1980
     74  CA        64.3320   49.1310   52.7780 C.3   545  LYS545      0.1596
     75  C         64.8900   50.5340   53.0750 C.2   545  LYS545      0.2287
     76  O         65.6340   50.7430   54.0420 O.2   545  LYS545     -0.2864
     77  CB        65.3480   48.3520   51.9700 C.3   545  LYS545      0.0298
     78  CG        66.6850   48.2230   52.5460 C.3   545  LYS545      0.0038
     79  CD        67.2790   46.9540   51.9640 C.3   545  LYS545      0.0206
     80  CE        66.2320   45.8290   51.9800 C.3   545  LYS545      0.1093
     81  NZ        66.7300   44.6150   51.2650 N.3   545  LYS545     -0.1314
     82  N         62.3140   51.5720   55.8880 N.3   548  VAL548     -0.1231
     83  CA        62.6180   50.8510   57.1240 C.3   548  VAL548      0.1692
     84  C         63.8720   51.4320   57.7310 C.2   548  VAL548      0.2592
     85  O         63.9160   51.6420   58.9320 O.2   548  VAL548     -0.2718
     86  CB        62.7100   49.3090   56.8950 C.3   548  VAL548      0.0266
     87  CG1       63.3490   48.5720   58.0640 C.3   548  VAL548      0.0020
     88  CG2       61.3210   48.7710   56.6420 C.3   548  VAL548      0.0020
     89  N         64.8560   51.7520   56.8940 N.am  549  GLY549     -0.1957
     90  CA        66.1500   52.3200   57.3270 C.3   549  GLY549      0.1869
     91  C         66.0280   53.5920   58.1540 C.2   549  GLY549      0.2309
     92  O         66.7360   53.7700   59.1530 O.2   549  GLY549     -0.2863
@<TRIPOS>BOND
     1    64    62   am
     2    57    58    1
     3    61    62    1
     4    61    58    1
     5    62    63    2
     6    58    59    1
     7    59    60    2
     8    47    46    1
     9     8     6    1
    10    65    66    1
    11    71    70    1
    12    70    69    1
    13    70    72    1
    14    45    44    2
    15     7     6    1
    16     6     5    1
    17    44    43    1
    18    46    43    1
    19    46    48    1
    20    41    38    1
    21    40    39    2
    22    69    66    1
    23    81    80    1
    24    66    67    1
    25     1     2    1
    26    43    42    1
    27    38    39    1
    28    38    37    1
    29    73    67   am
    30    73    74    1
    31     5     2    1
    32    79    80    1
    33    79    78    1
    34    77    78    1
    35    77    74    1
    36     2     3    1
    37    67    68    2
    38    74    75    1
    39    75    76    2
    40    37    31   am
    41    24    23    2
    42    32    31    2
    43     3     4    2
    44    31    30    1
    45    28    26   am
    46    25    26    1
    47    25    22    1
    48    26    27    2
    49    23    22    1
    50    55    54    1
    51    22    21    1
    52    33    30    1
    53    33    34    1
    54    30    29    1
    55    52    51    2
    56    54    56    1
    57    54    53    1
    58    82    83    1
    59    21    11   am
    60    34    36   am
    61    34    35    2
    62    51    50    1
    63    88    86    1
    64    89    90    1
    65    89    84   am
    66    86    83    1
    67    86    87    1
    68    53    50    1
    69    50    49    1
    70    83    84    1
    71    12    11    2
    72    90    91    1
    73    11    10    1
    74    84    85    2
    75    91    92    2
    76     9    10    1
    77    10    13    1
    78    16    18   ar
    79    16    14   ar
    80    18    19   ar
    81    13    14    1
    82    14    15   ar
    83    19    20    1
    84    19    17   ar
    85    15    17   ar
