@<TRIPOS>MOLECULE
tmp/4f5vA02.pdb
 137 127 0 0 0
SMALL
GASTEIGER

@<TRIPOS>ATOM
      1  N         60.1000   24.0640   44.7940 N.3   387  LEU387     -0.1231
      2  CA        59.8540   25.1030   45.7640 C.3   387  LEU387      0.1693
      3  C         61.0400   25.0990   46.7540 C.2   387  LEU387      0.2591
      4  O         61.5380   26.1440   47.1800 O.2   387  LEU387     -0.2718
      5  CB        58.4480   24.9600   46.3950 C.3   387  LEU387      0.0284
      6  CG        58.1600   25.8490   47.6140 C.3   387  LEU387      0.0019
      7  CD1       56.7800   26.5270   47.5040 C.3   387  LEU387      0.0001
      8  CD2       58.2720   25.0580   48.9030 C.3   387  LEU387      0.0001
      9  N         61.5360   23.9060   47.0600 N.am  388  VAL388     -0.1980
     10  CA        62.6250   23.7470   48.0180 C.3   388  VAL388      0.1595
     11  C         63.9500   24.3400   47.5240 C.2   388  VAL388      0.2287
     12  O         64.7070   24.9870   48.2880 O.2   388  VAL388     -0.2864
     13  CB        62.8040   22.2720   48.3270 C.3   388  VAL388      0.0276
     14  CG1       64.1910   21.9820   48.9520 C.3   388  VAL388      0.0022
     15  CG2       61.6890   21.8270   49.2450 C.3   388  VAL388      0.0022
     16  N         63.7640   28.3370   47.1550 N.3   391  ASN391     -0.1225
     17  CA        63.6840   29.0240   48.4310 C.3   391  ASN391      0.1785
     18  C         64.9290   28.7920   49.3130 C.2   391  ASN391      0.2597
     19  O         65.4380   29.7150   49.9820 O.2   391  ASN391     -0.2718
     20  CB        62.3400   28.7010   49.1250 C.3   391  ASN391      0.1169
     21  CG        61.1530   29.4320   48.4920 C.2   391  ASN391      0.2627
     22  OD1       60.2490   28.8020   47.9630 O.2   391  ASN391     -0.2716
     23  ND2       61.1580   30.7730   48.5370 N.am  391  ASN391     -0.0877
     24  N         65.4690   27.5900   49.3090 N.am  392  CYS392     -0.1970
     25  CA        66.8110   27.3860   49.9670 C.3   392  CYS392      0.1712
     26  C         67.9490   28.1820   49.3460 C.2   392  CYS392      0.2296
     27  O         68.7890   28.7200   50.0600 O.2   392  CYS392     -0.2864
     28  CB        67.2040   25.9070   50.0240 C.3   392  CYS392      0.0983
     29  SG        66.0970   25.0530   51.1930 S.3   392  CYS392     -0.0798
     30  N         65.8330   36.8520   54.6420 N.3   403  PHE403     -0.1241
     31  CA        64.9380   35.8430   54.0900 C.3   403  PHE403      0.1605
     32  C         63.5610   36.0070   54.7600 C.2   403  PHE403      0.2264
     33  O         62.5020   36.0000   54.0740 O.2   403  PHE403     -0.2867
     34  CB        65.5400   34.4380   54.2810 C.3   403  PHE403      0.0534
     35  CG        64.6820   33.3010   53.7770 C.ar  403  PHE403     -0.0203
     36  CD1       64.5370   33.0610   52.4200 C.ar  403  PHE403     -0.0042
     37  CD2       64.0820   32.4130   54.6580 C.ar  403  PHE403     -0.0042
     38  CE1       63.7900   31.9160   51.9450 C.ar  403  PHE403     -0.0003
     39  CE2       63.3520   31.2730   54.2060 C.ar  403  PHE403     -0.0003
     40  CZ        63.2010   31.0360   52.8670 C.ar  403  PHE403     -0.0000
     41  N         59.9910   37.0020   52.8330 N.3   407  LEU407     -0.1245
     42  CA        58.7850   36.2200   53.0140 C.3   407  LEU407      0.1561
     43  C         57.6610   37.0730   53.5820 C.2   407  LEU407      0.2260
     44  O         56.4720   36.7850   53.3590 O.2   407  LEU407     -0.2867
     45  CB        59.0610   35.0010   53.9360 C.3   407  LEU407      0.0270
     46  CG        59.9140   33.8880   53.2990 C.3   407  LEU407      0.0019
     47  CD1       60.2690   32.8440   54.3350 C.3   407  LEU407      0.0001
     48  CD2       59.3160   33.2120   52.0350 C.3   407  LEU407      0.0001
     49  N         56.3030   38.8840   50.7320 N.3   410  ARG410     -0.1231
     50  CA        55.6250   37.9500   49.8290 C.3   410  ARG410      0.1694
     51  C         54.2340   37.6380   50.3450 C.2   410  ARG410      0.2592
     52  O         53.2210   37.6790   49.5900 O.2   410  ARG410     -0.2718
     53  CB        56.4450   36.6580   49.6420 C.3   410  ARG410      0.0321
     54  CG        55.9660   35.8130   48.5140 C.3   410  ARG410      0.0489
     55  CD        56.6460   34.5000   48.4650 C.3   410  ARG410      0.2205
     56  NE        58.0220   34.7180   48.0690 N.pl3 410  ARG410     -0.0865
     57  CZ        58.9490   33.7830   48.0060 C.cat 410  ARG410      0.5346
     58  NH1       58.6700   32.5260   48.3390 N.pl3 410  ARG410      0.1354
     59  NH2       60.1690   34.1230   47.6190 N.pl3 410  ARG410      0.1354
     60  N         54.1870   37.3700   51.6450 N.am  411  TYR411     -0.1976
     61  CA        52.9750   36.9040   52.3280 C.3   411  TYR411      0.1639
     62  C         52.0000   38.0350   52.5730 C.2   411  TYR411      0.2290
     63  O         50.8180   37.8690   52.4720 O.2   411  TYR411     -0.2864
     64  CB        53.3040   36.0220   53.5680 C.3   411  TYR411      0.0560
     65  CG        53.3220   34.5670   53.1280 C.ar  411  TYR411     -0.0198
     66  CD1       52.1810   33.7940   53.2460 C.ar  411  TYR411     -0.0009
     67  CD2       54.4370   33.9970   52.5090 C.ar  411  TYR411     -0.0009
     68  CE1       52.1190   32.5300   52.7800 C.ar  411  TYR411      0.0417
     69  CE2       54.3980   32.6780   52.0670 C.ar  411  TYR411      0.0417
     70  CZ        53.2170   31.9680   52.2030 C.ar  411  TYR411      0.1957
     71  OH        53.0590   30.6810   51.7550 O.3   411  TYR411     -0.2866
     72  N         50.2160   38.5140   49.3190 N.3   414  LYS414     -0.1245
     73  CA        49.2840   37.4590   48.9210 C.3   414  LYS414      0.1561
     74  C         47.9870   37.6610   49.7110 C.2   414  LYS414      0.2260
     75  O         46.8790   37.5170   49.1530 O.2   414  LYS414     -0.2867
     76  CB        49.7530   36.0330   49.3220 C.3   414  LYS414      0.0271
     77  CG        50.9610   35.4190   48.5990 C.3   414  LYS414      0.0035
     78  CD        51.3750   34.0430   49.1470 C.3   414  LYS414      0.0206
     79  CE        52.6130   33.4480   48.3930 C.3   414  LYS414      0.1093
     80  NZ        52.1280   32.6120   47.2490 N.3   414  LYS414     -0.1314
     81  N         58.2300   30.7970   58.8450 N.3   430  LEU430     -0.1245
     82  CA        58.5940   30.3040   57.5190 C.3   430  LEU430      0.1561
     83  C         60.0750   30.4300   57.3220 C.2   430  LEU430      0.2260
     84  O         60.7240   29.4790   56.9340 O.2   430  LEU430     -0.2867
     85  CB        57.8190   30.9950   56.4340 C.3   430  LEU430      0.0270
     86  CG        56.3720   30.4920   56.3930 C.3   430  LEU430      0.0019
     87  CD1       55.5830   31.4040   55.4810 C.3   430  LEU430      0.0001
     88  CD2       56.2100   29.0690   55.9130 C.3   430  LEU430      0.0001
     89  N         61.8560   27.5670   58.9250 N.3   433  VAL433     -0.1231
     90  CA        61.9330   26.3580   58.0950 C.3   433  VAL433      0.1692
     91  C         63.2720   26.3380   57.2810 C.2   433  VAL433      0.2592
     92  O         64.0100   25.3210   57.2660 O.2   433  VAL433     -0.2718
     93  CB        60.6510   26.1600   57.2260 C.3   433  VAL433      0.0266
     94  CG1       60.7890   24.9030   56.4310 C.3   433  VAL433      0.0020
     95  CG2       59.3390   26.0890   58.1620 C.3   433  VAL433      0.0020
     96  N         63.6050   27.5000   56.7020 N.am  434  GLY434     -0.1957
     97  CA        64.9150   27.7610   56.0890 C.3   434  GLY434      0.1869
     98  C         66.1790   27.3960   56.8580 C.2   434  GLY434      0.2309
     99  O         66.9970   26.6800   56.3170 O.2   434  GLY434     -0.2863
    100  N         67.4880   23.8040   55.2160 N.3   438  CYS438     -0.1235
    101  CA        68.3160   23.9900   54.0110 C.3   438  CYS438      0.1677
    102  C         69.7190   23.4470   54.1220 C.2   438  CYS438      0.2270
    103  O         70.3810   23.2930   53.1170 O.2   438  CYS438     -0.2867
    104  CB        68.2800   25.4170   53.4770 C.3   438  CYS438      0.0956
    105  SG        66.5520   25.8550   53.0040 S.3   438  CYS438     -0.0801
    106  N         61.0870   20.1680   54.7690 N.3   449  VAL449     -0.1245
    107  CA        60.5210   21.4540   54.4170 C.3   449  VAL449      0.1561
    108  C         58.9960   21.3620   54.3570 C.2   449  VAL449      0.2260
    109  O         58.2600   22.1280   55.0060 O.2   449  VAL449     -0.2867
    110  CB        61.0300   21.9610   53.0580 C.3   449  VAL449      0.0252
    111  CG1       60.1110   23.1060   52.5430 C.3   449  VAL449      0.0019
    112  CG2       62.4850   22.4190   53.1790 C.3   449  VAL449      0.0019
    113  N         56.3630   23.2260   56.8180 N.3   453  LEU453     -0.1245
    114  CA        55.4760   24.3020   56.3030 C.3   453  LEU453      0.1561
    115  C         54.0210   23.9970   56.6350 C.2   453  LEU453      0.2260
    116  O         53.1860   24.8650   56.8800 O.2   453  LEU453     -0.2867
    117  CB        55.5450   24.4190   54.7760 C.3   453  LEU453      0.0270
    118  CG        56.8610   24.8850   54.1850 C.3   453  LEU453      0.0019
    119  CD1       56.6520   24.7490   52.7260 C.3   453  LEU453      0.0001
    120  CD2       57.1480   26.3310   54.5980 C.3   453  LEU453      0.0001
    121  N         49.7300   23.6250   51.4700 N.3   485  ARG485     -0.1245
    122  CA        50.9220   24.2930   50.9830 C.3   485  ARG485      0.1563
    123  C         50.9020   24.7530   49.4990 C.2   485  ARG485      0.2260
    124  O         51.1150   25.9590   49.2270 O.2   485  ARG485     -0.2867
    125  CB        52.1470   23.4710   51.3600 C.3   485  ARG485      0.0307
    126  CG        53.4580   24.2440   51.3780 C.3   485  ARG485      0.0489
    127  CD        54.0470   24.4390   49.9490 C.3   485  ARG485      0.2205
    128  NE        54.1160   23.1650   49.3150 N.pl3 485  ARG485     -0.0865
    129  CZ        54.1520   22.9780   48.0100 C.cat 485  ARG485      0.5346
    130  NH1       54.1270   24.0320   47.1880 N.pl3 485  ARG485      0.1354
    131  NH2       54.1990   21.7350   47.5480 N.pl3 485  ARG485      0.1354
    132  N         51.0790   28.4200   48.1010 N.3   489  SER489     -0.1217
    133  CA        52.1910   28.7500   47.1890 C.3   489  SER489      0.1889
    134  C         51.6700   29.3740   45.9220 C.2   489  SER489      0.2288
    135  O         52.3530   30.1590   45.3210 O.2   489  SER489     -0.2866
    136  CB        52.9940   27.5250   46.7810 C.3   489  SER489      0.2089
    137  OG        53.6580   27.0260   47.9080 O.3   489  SER489     -0.2183
@<TRIPOS>BOND
     1     1     2    1
     2   135   134    2
     3     2     5    1
     4     2     3    1
     5   134   133    1
     6     5     6    1
     7     3     9   am
     8     3     4    2
     9   136   133    1
    10   136   137    1
    11     9    10    1
    12    16    17    1
    13   130   129    1
    14   133   132    1
    15    80    79    1
    16     7     6    1
    17    11    10    1
    18    11    12    2
    19   131   129    1
    20     6     8    1
    21    59    57    1
    22    22    21    2
    23    57    56    2
    24    57    58    1
    25   129   128    2
    26    10    13    1
    27    56    55    1
    28    13    14    1
    29    13    15    1
    30    79    78    1
    31    17    20    1
    32    17    18    1
    33    55    54    1
    34    21    23   am
    35    21    20    1
    36    54    53    1
    37    77    78    1
    38    77    76    1
    39    73    72    1
    40    73    76    1
    41    73    74    1
    42    75    74    2
    43   124   123    2
    44    24    18   am
    45    24    25    1
    46    18    19    2
    47   128   127    1
    48    26    25    1
    49    26    27    2
    50   123   122    1
    51    52    51    2
    52    53    50    1
    53    50    51    1
    54    50    49    1
    55   127   126    1
    56    25    28    1
    57    28    29    1
    58    51    60   am
    59   122   125    1
    60   122   121    1
    61    29   105    1
    62   125   126    1
    63    60    61    1
    64    71    70    1
    65    38    36   ar
    66    38    40   ar
    67    48    46    1
    68    69    70   ar
    69    69    67   ar
    70    70    68   ar
    71    61    62    1
    72    61    64    1
    73    36    35   ar
    74    63    62    2
    75    67    65   ar
    76   111   110    1
    77   119   118    1
    78    68    66   ar
    79    41    42    1
    80    40    39   ar
    81   105   104    1
    82    42    43    1
    83    42    45    1
    84   110   112    1
    85   110   107    1
    86   103   102    2
    87    65    66   ar
    88    65    64    1
    89    46    45    1
    90    46    47    1
    91    44    43    2
    92   104   101    1
    93    35    34    1
    94    35    37   ar
    95   101   102    1
    96   101   100    1
    97    33    32    2
    98    31    34    1
    99    31    30    1
   100    31    32    1
   101   118   120    1
   102   118   117    1
   103    39    37   ar
   104   108   107    1
   105   108   109    2
   106   107   106    1
   107   117   114    1
   108    87    86    1
   109    88    86    1
   110    97    96    1
   111    97    98    1
   112   114   115    1
   113   114   113    1
   114    99    98    2
   115    86    85    1
   116    94    93    1
   117    85    82    1
   118   115   116    2
   119    96    91   am
   120    84    83    2
   121    93    90    1
   122    93    95    1
   123    92    91    2
   124    91    90    1
   125    83    82    1
   126    82    81    1
   127    90    89    1
