@<TRIPOS>MOLECULE
tmp/4f5yB00.pdb
 113 110 0 0 0
SMALL
GASTEIGER

@<TRIPOS>ATOM
      1  N         19.8130   24.1380   30.1340 N.3     9  LEU9       -0.1245
      2  CA        19.9980   24.9640   28.9360 C.3     9  LEU9        0.1561
      3  C         21.4700   25.2580   28.6230 C.2     9  LEU9        0.2260
      4  O         21.8880   25.1540   27.4770 O.2     9  LEU9       -0.2867
      5  CB        19.2400   26.2880   29.0660 C.3     9  LEU9        0.0270
      6  CG        17.7160   26.1960   29.1420 C.3     9  LEU9        0.0019
      7  CD1       17.1000   27.5880   29.2250 C.3     9  LEU9        0.0001
      8  CD2       17.1880   25.4400   27.9330 C.3     9  LEU9        0.0001
      9  N         23.2320   21.9580   27.7120 N.3    12  SER12      -0.1202
     10  CA        22.7100   21.5230   26.4250 C.3    12  SER12       0.2020
     11  C         23.3240   22.3360   25.2890 C.2    12  SER12       0.2618
     12  O         23.6060   21.8030   24.2080 O.2    12  SER12      -0.2717
     13  CB        21.1810   21.6640   26.4320 C.3    12  SER12       0.2103
     14  OG        20.6200   21.3140   25.1970 O.3    12  SER12      -0.2182
     15  N         23.5290   23.6270   25.5460 N.am   13  TYR13      -0.1975
     16  CA        24.0950   24.5390   24.5690 C.3    13  TYR13       0.1639
     17  C         25.5710   24.2340   24.3290 C.2    13  TYR13       0.2290
     18  O         26.0600   24.3640   23.2130 O.2    13  TYR13      -0.2864
     19  CB        23.9380   25.9920   25.0560 C.3    13  TYR13       0.0560
     20  CG        24.3340   27.0710   24.0630 C.ar   13  TYR13      -0.0198
     21  CD1       23.7250   27.1580   22.8210 C.ar   13  TYR13      -0.0009
     22  CD2       25.2700   28.0420   24.4040 C.ar   13  TYR13      -0.0009
     23  CE1       24.0580   28.1760   21.9260 C.ar   13  TYR13       0.0417
     24  CE2       25.6220   29.0690   23.5190 C.ar   13  TYR13       0.0417
     25  CZ        25.0100   29.1340   22.2900 C.ar   13  TYR13       0.1957
     26  OH        25.3510   30.1330   21.4030 O.3    13  TYR13      -0.2866
     27  N         25.4710   20.1490   22.9200 N.3    16  GLY16      -0.1210
     28  CA        24.8120   19.9350   21.6420 C.3    16  GLY16       0.1956
     29  C         25.1690   20.9320   20.5560 C.2    16  GLY16       0.2611
     30  O         24.6990   20.8020   19.4220 O.2    16  GLY16      -0.2717
     31  N         26.0030   21.9210   20.8830 N.am   17  TYR17      -0.1976
     32  CA        26.3020   22.9600   19.9070 C.3    17  TYR17       0.1639
     33  C         27.7310   23.5060   19.9690 C.2    17  TYR17       0.2290
     34  O         28.4730   23.3270   19.0180 O.2    17  TYR17      -0.2864
     35  CB        25.2680   24.0910   19.9530 C.3    17  TYR17       0.0560
     36  CG        25.5570   25.2160   18.9700 C.ar   17  TYR17      -0.0198
     37  CD1       25.4740   25.0070   17.5970 C.ar   17  TYR17      -0.0009
     38  CD2       25.8950   26.4880   19.4200 C.ar   17  TYR17      -0.0009
     39  CE1       25.7350   26.0270   16.6960 C.ar   17  TYR17       0.0417
     40  CE2       26.1630   27.5210   18.5260 C.ar   17  TYR17       0.0417
     41  CZ        26.0770   27.2840   17.1630 C.ar   17  TYR17       0.1957
     42  OH        26.3430   28.2980   16.2630 O.3    17  TYR17      -0.2866
     43  N         26.7700   18.8470   10.6850 N.3    88  ARG88      -0.1245
     44  CA        25.9500   18.6720    9.5020 C.3    88  ARG88       0.1563
     45  C         26.1580   19.8610    8.5810 C.2    88  ARG88       0.2260
     46  O         26.8050   19.7480    7.5410 O.2    88  ARG88      -0.2867
     47  CB        24.4690   18.6460    9.8750 C.3    88  ARG88       0.0307
     48  CG        24.0650   19.7290   10.8600 C.3    88  ARG88       0.0489
     49  CD        22.5690   19.7120   11.1320 C.3    88  ARG88       0.2205
     50  NE        22.2150   20.5570   12.2690 N.pl3  88  ARG88      -0.0865
     51  CZ        22.0590   21.8750   12.2010 C.cat  88  ARG88       0.5346
     52  NH1       22.2280   22.5070   11.0480 N.pl3  88  ARG88       0.1354
     53  NH2       21.7370   22.5630   13.2870 N.pl3  88  ARG88       0.1354
     54  N         26.5630   24.0290    9.9420 N.3    90  TYR90      -0.1227
     55  CA        26.2390   25.1460   10.8250 C.3    90  TYR90       0.1736
     56  C         26.2620   26.4540   10.0600 C.2    90  TYR90       0.2596
     57  O         27.2650   26.8060    9.4380 O.2    90  TYR90      -0.2718
     58  CB        27.2030   25.2400   12.0080 C.3    90  TYR90       0.0548
     59  CG        27.2280   24.0030   12.8610 C.ar   90  TYR90      -0.0200
     60  CD1       28.3770   23.2330   12.9570 C.ar   90  TYR90      -0.0009
     61  CD2       26.0990   23.5910   13.5550 C.ar   90  TYR90      -0.0009
     62  CE1       28.4080   22.0890   13.7320 C.ar   90  TYR90       0.0417
     63  CE2       26.1180   22.4460   14.3280 C.ar   90  TYR90       0.0417
     64  CZ        27.2770   21.6980   14.4110 C.ar   90  TYR90       0.1957
     65  OH        27.3050   20.5570   15.1770 O.3    90  TYR90      -0.2866
     66  N         25.1420   27.1580   10.0890 N.am   91  SER91      -0.1952
     67  CA        25.0900   28.4960    9.5530 C.3    91  SER91       0.1924
     68  C         25.7350   29.3880   10.6100 C.2    91  SER91       0.2314
     69  O         25.3600   29.3240   11.7880 O.2    91  SER91      -0.2863
     70  CB        23.6370   28.9200    9.2880 C.3    91  SER91       0.2116
     71  OG        23.5740   30.2810    8.8730 O.3    91  SER91      -0.2180
     72  N         26.5240   36.0050   16.8140 N.3   110  GLU110     -0.1231
     73  CA        25.2010   35.3980   16.9200 C.3   110  GLU110      0.1699
     74  C         24.6880   35.4490   18.3530 C.2   110  GLU110      0.2592
     75  O         25.4650   35.5130   19.3140 O.2   110  GLU110     -0.2718
     76  CB        25.1900   33.9460   16.3880 C.3   110  GLU110      0.0402
     77  CG        26.1900   33.0270   17.0440 C.3   110  GLU110      0.1161
     78  CD        26.1840   31.6290   16.4300 C.2   110  GLU110      0.3649
     79  OE1       26.3580   31.5040   15.1870 O.co2 110  GLU110     -0.2457
     80  OE2       26.0050   30.6560   17.1960 O.co2 110  GLU110     -0.2457
     81  N         23.3680   35.4560   18.4790 N.am  111  TYR111     -0.1976
     82  CA        22.7100   35.3850   19.7770 C.3   111  TYR111      0.1639
     83  C         22.7590   33.9730   20.3760 C.2   111  TYR111      0.2290
     84  O         22.6860   32.9750   19.6510 O.2   111  TYR111     -0.2864
     85  CB        21.2460   35.8000   19.6180 C.3   111  TYR111      0.0560
     86  CG        21.0320   37.2860   19.4580 C.ar  111  TYR111     -0.0198
     87  CD1       20.9290   38.1110   20.5720 C.ar  111  TYR111     -0.0009
     88  CD2       20.9200   37.8660   18.2000 C.ar  111  TYR111     -0.0009
     89  CE1       20.7170   39.4840   20.4430 C.ar  111  TYR111      0.0417
     90  CE2       20.7020   39.2350   18.0600 C.ar  111  TYR111      0.0417
     91  CZ        20.6010   40.0330   19.1850 C.ar  111  TYR111      0.1957
     92  OH        20.4000   41.3900   19.0660 O.3   111  TYR111     -0.2866
     93  N         21.0230   31.2400   21.3140 N.3   113  THR113     -0.1204
     94  CA        19.6860   30.6690   21.0540 C.3   113  THR113      0.1979
     95  C         18.8620   30.2040   22.2760 C.2   113  THR113      0.2459
     96  O         17.6540   30.3750   22.2810 O.2   113  THR113     -0.2732
     97  CB        19.7550   29.5310   20.0170 C.3   113  THR113      0.1783
     98  OG1       20.9160   28.7470   20.2730 O.3   113  THR113     -0.2211
     99  CG2       19.8910   30.0930   18.6110 C.3   113  THR113      0.0376
    100  N         19.5020   29.6450   23.3210 N.am  114  PRO114     -0.2728
    101  CA        18.6650   29.2380   24.4710 C.3   114  PRO114      0.1401
    102  C         17.9450   30.3730   25.2030 C.2   114  PRO114      0.2269
    103  O         17.0460   30.1260   26.0240 O.2   114  PRO114     -0.2865
    104  CB        19.6610   28.5600   25.4200 C.3   114  PRO114      0.0296
    105  CG        20.7910   28.0890   24.5110 C.3   114  PRO114      0.0237
    106  CD        20.8960   29.1670   23.4520 C.3   114  PRO114      0.0939
    107  N         14.2970   30.1960   24.3470 N.3   117  THR117     -0.1218
    108  CA        13.5700   29.2450   25.1800 C.3   117  THR117      0.1862
    109  C         13.0860   29.9290   26.4450 C.2   117  THR117      0.2287
    110  O         11.9350   29.7820   26.8350 O.2   117  THR117     -0.2866
    111  CB        14.4590   28.0120   25.6030 C.3   117  THR117      0.1770
    112  OG1       14.7890   27.2380   24.4470 O.3   117  THR117     -0.2211
    113  CG2       13.7010   27.1260   26.5880 C.3   117  THR117      0.0375
@<TRIPOS>BOND
     1    46    45    2
     2    45    44    1
     3    71    70    1
     4    70    67    1
     5    57    56    2
     6    44    47    1
     7    44    43    1
     8    67    66    1
     9    67    68    1
    10    47    48    1
    11    54    55    1
    12    56    66   am
    13    56    55    1
    14    68    69    2
    15    55    58    1
    16    48    49    1
    17    52    51    1
    18    49    50    1
    19    58    59    1
    20    51    50    2
    21    51    53    1
    22    59    60   ar
    23    59    61   ar
    24    60    62   ar
    25    61    63   ar
    26    62    64   ar
    27    63    64   ar
    28    64    65    1
    29    79    78   ar
    30    42    41    1
    31    76    73    1
    32    76    77    1
    33    78    77    1
    34    78    80   ar
    35    39    41   ar
    36    39    37   ar
    37    72    73    1
    38    73    74    1
    39    41    40   ar
    40    37    36   ar
    41    90    88   ar
    42    90    91   ar
    43    88    86   ar
    44    74    81   am
    45    74    75    2
    46    81    82    1
    47    40    38   ar
    48    99    97    1
    49    36    38   ar
    50    36    35    1
    51    34    33    2
    52    92    91    1
    53    91    89   ar
    54    30    29    2
    55    86    85    1
    56    86    87   ar
    57    85    82    1
    58    84    83    2
    59    82    83    1
    60    32    35    1
    61    32    33    1
    62    32    31    1
    63    97    98    1
    64    97    94    1
    65    89    87   ar
    66    29    31   am
    67    29    28    1
    68    94    93    1
    69    94    95    1
    70    26    25    1
    71    28    27    1
    72    23    25   ar
    73    23    21   ar
    74    95    96    2
    75    95   100   am
    76    25    24   ar
    77    21    20   ar
    78    18    17    2
    79   100   106    1
    80   100   101    1
    81   106   105    1
    82    24    22   ar
    83    20    22   ar
    84    20    19    1
    85    12    11    2
    86    17    16    1
    87   107   108    1
    88   112   111    1
    89   101   102    1
    90   101   104    1
    91   105   104    1
    92    16    19    1
    93    16    15    1
    94   108   111    1
    95   108   109    1
    96    14    13    1
    97   102   103    2
    98    11    15   am
    99    11    10    1
   100   111   113    1
   101    10    13    1
   102    10     9    1
   103   109   110    2
   104     4     3    2
   105     8     6    1
   106     3     2    1
   107     2     5    1
   108     2     1    1
   109     5     6    1
   110     6     7    1
