@<TRIPOS>MOLECULE
tmp/4f5zA00.pdb
 131 129 0 0 0
SMALL
GASTEIGER

@<TRIPOS>ATOM
      1  N         -1.2590    2.1930    4.6620 N.3    38  ASN38      -0.1240
      2  CA        -1.5840    3.0690    5.7880 C.3    38  ASN38       0.1653
      3  C         -0.3480    3.8910    6.1790 C.2    38  ASN38       0.2266
      4  O          0.7130    3.3220    6.3630 O.2    38  ASN38      -0.2867
      5  CB        -1.9840    2.1960    6.9940 C.3    38  ASN38       0.1155
      6  CG        -2.5340    2.9870    8.1110 C.2    38  ASN38       0.2627
      7  OD1       -3.1970    3.9990    7.8950 O.2    38  ASN38      -0.2716
      8  ND2       -2.3570    2.4960    9.3510 N.am   38  ASN38      -0.0877
      9  N          2.3050   -2.5860    1.8640 N.3   103  ASP103     -0.1225
     10  CA         1.5390   -2.5060    3.1160 C.3   103  ASP103      0.1805
     11  C          0.0980   -3.0130    2.9060 C.2   103  ASP103      0.2597
     12  O         -0.0870   -4.0740    2.3300 O.2   103  ASP103     -0.2718
     13  CB         1.6460   -1.1250    3.7410 C.3   103  ASP103      0.1424
     14  CG         0.9500   -1.0580    5.0680 C.2   103  ASP103      0.3668
     15  OD1        1.4080   -1.7850    6.0120 O.co2 103  ASP103     -0.2456
     16  OD2       -0.0640   -0.3140    5.1900 O.co2 103  ASP103     -0.2456
     17  N         -0.9310   -2.2820    3.3200 N.am  104  TRP104     -0.1976
     18  CA        -2.3080   -2.7680    3.1260 C.3   104  TRP104      0.1640
     19  C         -2.6780   -2.8480    1.6530 C.2   104  TRP104      0.2290
     20  O         -3.5250   -3.6430    1.2900 O.2   104  TRP104     -0.2864
     21  CB        -3.3040   -1.9430    3.9610 C.3   104  TRP104      0.0576
     22  CG        -3.2590   -2.3850    5.3780 C.ar  104  TRP104      0.0006
     23  CD1       -2.6410   -1.7780    6.4170 C.ar  104  TRP104      0.0946
     24  CD2       -3.7910   -3.6000    5.8760 C.ar  104  TRP104      0.0152
     25  NE1       -2.7830   -2.5370    7.5600 N.ar  104  TRP104     -0.2442
     26  CE2       -3.4860   -3.6680    7.2430 C.ar  104  TRP104      0.0810
     27  CE3       -4.5130   -4.6470    5.2970 C.ar  104  TRP104      0.0012
     28  CZ2       -3.8730   -4.7540    8.0390 C.ar  104  TRP104      0.0191
     29  CZ3       -4.8670   -5.7360    6.0780 C.ar  104  TRP104      0.0001
     30  CH2       -4.5560   -5.7870    7.4260 C.ar  104  TRP104      0.0015
     31  N          7.6440   -9.2150   15.1940 N.3   138  TRP138     -0.1241
     32  CA         7.3960   -7.8120   14.8340 C.3   138  TRP138      0.1605
     33  C          8.6660   -7.0370   15.2150 C.2   138  TRP138      0.2264
     34  O          9.3160   -7.3990   16.1890 O.2   138  TRP138     -0.2867
     35  CB         6.1740   -7.3010   15.6070 C.3   138  TRP138      0.0550
     36  CG         5.7630   -5.9180   15.2220 C.ar  138  TRP138      0.0003
     37  CD1        6.0430   -4.7600   15.8860 C.ar  138  TRP138      0.0946
     38  CD2        4.9910   -5.5490   14.0760 C.ar  138  TRP138      0.0152
     39  NE1        5.4840   -3.6820   15.2280 N.ar  138  TRP138     -0.2442
     40  CE2        4.8380   -4.1440   14.1070 C.ar  138  TRP138      0.0810
     41  CE3        4.4300   -6.2730   13.0120 C.ar  138  TRP138      0.0012
     42  CZ2        4.1500   -3.4410   13.1140 C.ar  138  TRP138      0.0191
     43  CZ3        3.7310   -5.5660   12.0320 C.ar  138  TRP138      0.0001
     44  CH2        3.6030   -4.1740   12.0960 C.ar  138  TRP138      0.0015
     45  N          2.8860   -0.5400   18.4090 N.3   146  PHE146     -0.1241
     46  CA         1.7820   -1.2160   17.7420 C.3   146  PHE146      0.1605
     47  C          0.9180   -1.9840   18.7210 C.2   146  PHE146      0.2264
     48  O         -0.2800   -2.1170   18.4960 O.2   146  PHE146     -0.2867
     49  CB         2.2480   -2.0520   16.5390 C.3   146  PHE146      0.0534
     50  CG         2.4250   -1.2250   15.2810 C.ar  146  PHE146     -0.0203
     51  CD1        3.4820   -0.3220   15.1680 C.ar  146  PHE146     -0.0042
     52  CD2        1.5000   -1.3240   14.2530 C.ar  146  PHE146     -0.0042
     53  CE1        3.6460    0.4520   14.0070 C.ar  146  PHE146     -0.0003
     54  CE2        1.6190   -0.5510   13.1190 C.ar  146  PHE146     -0.0003
     55  CZ         2.7200    0.3220   12.9790 C.ar  146  PHE146     -0.0000
     56  N         -0.3230    8.2790   13.6550 N.3   165  PHE165     -0.1241
     57  CA         0.1310    7.5160   12.5000 C.3   165  PHE165      0.1605
     58  C          0.7500    8.4540   11.4500 C.2   165  PHE165      0.2264
     59  O          1.7160    8.1020   10.7720 O.2   165  PHE165     -0.2867
     60  CB        -0.9990    6.6600   11.9060 C.3   165  PHE165      0.0534
     61  CG        -0.5590    5.2540   11.6400 C.ar  165  PHE165     -0.0203
     62  CD1        0.3450    4.9900   10.6180 C.ar  165  PHE165     -0.0042
     63  CD2       -0.9950    4.2010   12.4320 C.ar  165  PHE165     -0.0042
     64  CE1        0.8150    3.7130   10.3960 C.ar  165  PHE165     -0.0003
     65  CE2       -0.5220    2.9000   12.2000 C.ar  165  PHE165     -0.0003
     66  CZ         0.3940    2.6730   11.2040 C.ar  165  PHE165     -0.0000
     67  N          4.4190    7.6670   13.0590 N.3   169  VAL169     -0.1245
     68  CA         4.8740    6.4590   12.3590 C.3   169  VAL169      0.1561
     69  C          5.4090    6.7520   10.9560 C.2   169  VAL169      0.2260
     70  O          6.4720    6.2470   10.5530 O.2   169  VAL169     -0.2867
     71  CB         3.7410    5.4140   12.2540 C.3   169  VAL169      0.0252
     72  CG1        4.1880    4.2000   11.4600 C.3   169  VAL169      0.0019
     73  CG2        3.2770    4.9850   13.6250 C.3   169  VAL169      0.0019
     74  N          9.3620    6.1020    9.7080 N.3   173  CYS173     -0.1235
     75  CA         9.6070    4.9580    8.8470 C.3   173  CYS173      0.1677
     76  C         10.0730    5.3380    7.4460 C.2   173  CYS173      0.2270
     77  O          9.9340    4.5470    6.4920 O.2   173  CYS173     -0.2867
     78  CB         8.3880    4.0470    8.8200 C.3   173  CYS173      0.0956
     79  SG         8.0900    3.2100   10.4000 S.3   173  CYS173     -0.0801
     80  N         -4.0290   -0.8980   11.7990 N.3   203  PRO203     -0.2116
     81  CA        -3.1060   -1.6600   12.6630 C.3   203  PRO203      0.1372
     82  C         -3.8250   -2.7110   13.4940 C.2   203  PRO203      0.2244
     83  O         -3.2250   -3.7280   13.8170 O.2   203  PRO203     -0.2868
     84  CB        -2.4210   -0.5650   13.5190 C.3   203  PRO203      0.0268
     85  CG        -3.3780    0.6250   13.4580 C.3   203  PRO203      0.0207
     86  CD        -3.9210    0.5510   12.0520 C.3   203  PRO203      0.0892
     87  N         -3.8930   -5.8870   11.4130 N.3   206  LEU206     -0.1245
     88  CA        -2.6370   -6.5620   11.0190 C.3   206  LEU206      0.1561
     89  C         -2.6240   -7.9820   11.5900 C.2   206  LEU206      0.2260
     90  O         -3.0210   -8.2010   12.7470 O.2   206  LEU206     -0.2867
     91  CB        -1.4170   -5.8090   11.5400 C.3   206  LEU206      0.0270
     92  CG        -1.0530   -4.5370   10.7670 C.3   206  LEU206      0.0019
     93  CD1       -0.1060   -3.6920   11.6160 C.3   206  LEU206      0.0001
     94  CD2       -0.4440   -4.9050    9.3960 C.3   206  LEU206      0.0001
     95  N         11.4810   -2.8770    7.6830 N.3   242  VAL242     -0.1231
     96  CA        10.5690   -2.9570    8.8130 C.3   242  VAL242      0.1692
     97  C          9.8760   -4.2970    8.7430 C.2   242  VAL242      0.2591
     98  O         10.2910   -5.2270    9.4720 O.2   242  VAL242     -0.2718
     99  CB         9.6000   -1.7190    8.8940 C.3   242  VAL242      0.0266
    100  CG1        8.4830   -1.9540    9.9500 C.3   242  VAL242      0.0020
    101  CG2       10.4020   -0.4280    9.1970 C.3   242  VAL242      0.0020
    102  N          8.8850   -4.4510    7.8600 N.am  243  LEU243     -0.1980
    103  CA         8.1710   -5.7210    7.7130 C.3   243  LEU243      0.1596
    104  C          9.0200   -6.8050    7.0380 C.2   243  LEU243      0.2287
    105  O          8.8010   -8.0020    7.2870 O.2   243  LEU243     -0.2864
    106  CB         6.8680   -5.5490    6.9280 C.3   243  LEU243      0.0297
    107  CG         5.8150   -4.6160    7.5500 C.3   243  LEU243      0.0022
    108  CD1        4.5790   -4.5660    6.6860 C.3   243  LEU243      0.0001
    109  CD2        5.4250   -5.0270    8.9640 C.3   243  LEU243      0.0001
    110  N         10.1040    1.5170    6.1790 N.3   269  HIS269     -0.1226
    111  CA         8.8440    0.9900    5.6590 C.3   269  HIS269      0.1752
    112  C          8.3920    1.6470    4.3650 C.2   269  HIS269      0.2596
    113  O          8.0190    0.9410    3.4190 O.2   269  HIS269     -0.2718
    114  CB         7.6990    1.0630    6.6970 C.3   269  HIS269      0.0759
    115  CG         6.3970    0.4810    6.2190 C.ar  269  HIS269      0.0818
    116  ND1        6.2140   -0.8630    5.9540 N.ar  269  HIS269     -0.2268
    117  CD2        5.2100    1.0900    5.9540 C.ar  269  HIS269      0.1154
    118  CE1        4.9560   -1.0430    5.5510 C.ar  269  HIS269      0.1986
    119  NE2        4.3320    0.1260    5.5410 N.ar  269  HIS269     -0.2212
    120  N          8.3790    2.9870    4.3300 N.am  270  TYR270     -0.1976
    121  CA         7.9000    3.7250    3.1530 C.3   270  TYR270      0.1639
    122  C          9.0380    3.8840    2.1540 C.2   270  TYR270      0.2290
    123  O          9.5430    4.9940    1.9420 O.2   270  TYR270     -0.2864
    124  CB         7.2610    5.0790    3.5710 C.3   270  TYR270      0.0560
    125  CG         6.1360    4.8770    4.5550 C.ar  270  TYR270     -0.0198
    126  CD1        4.8360    4.5880    4.1360 C.ar  270  TYR270     -0.0009
    127  CD2        6.3860    4.9180    5.9310 C.ar  270  TYR270     -0.0009
    128  CE1        3.8240    4.3310    5.0480 C.ar  270  TYR270      0.0417
    129  CE2        5.3980    4.6580    6.8380 C.ar  270  TYR270      0.0417
    130  CZ         4.1130    4.3630    6.4020 C.ar  270  TYR270      0.1957
    131  OH         3.1420    4.0690    7.3260 O.3   270  TYR270     -0.2866
@<TRIPOS>BOND
     1    20    19    2
     2    19    18    1
     3     9    10    1
     4   123   122    2
     5   122   121    1
     6    12    11    2
     7    11    10    1
     8    11    17   am
     9    10    13    1
    10    18    17    1
    11    18    21    1
    12   121   124    1
    13   121   120    1
    14   113   112    2
    15   124   125    1
    16    13    14    1
    17    21    22    1
    18   126   125   ar
    19   126   128   ar
    20   120   112   am
    21   112   111    1
    22   125   127   ar
    23     1     2    1
    24   128   130   ar
    25    14    16   ar
    26    14    15   ar
    27    27    24   ar
    28    27    29   ar
    29    22    24   ar
    30    22    23   ar
    31   119   118   ar
    32   119   117   ar
    33   118   116   ar
    34   111   110    1
    35   111   114    1
    36     2     3    1
    37     2     5    1
    38    24    26   ar
    39   127   129   ar
    40   116   115   ar
    41   117   115   ar
    42    29    30   ar
    43     3     4    2
    44   115   114    1
    45   130   129   ar
    46   130   131    1
    47    23    25   ar
    48    77    76    2
    49   108   107    1
    50   106   107    1
    51   106   103    1
    52     5     6    1
    53   104   105    2
    54   104   103    1
    55    26    25   ar
    56    26    28   ar
    57    30    28   ar
    58    76    75    1
    59   107   109    1
    60    95    96    1
    61   103   102    1
    62   102    97   am
    63     7     6    2
    64     6     8   am
    65    97    96    1
    66    97    98    2
    67    96    99    1
    68    78    75    1
    69    78    79    1
    70    75    74    1
    71    99   101    1
    72    99   100    1
    73    94    92    1
    74    64    62   ar
    75    64    66   ar
    76    70    69    2
    77    62    61   ar
    78    92    91    1
    79    92    93    1
    80    59    58    2
    81    69    68    1
    82    88    87    1
    83    88    91    1
    84    88    89    1
    85    66    65   ar
    86    58    57    1
    87    72    71    1
    88    89    90    2
    89    61    60    1
    90    61    63   ar
    91    80    86    1
    92    80    81    1
    93    60    57    1
    94    43    44   ar
    95    43    41   ar
    96    86    85    1
    97    44    42   ar
    98    65    63   ar
    99    71    68    1
   100    71    73    1
   101    68    67    1
   102    57    56    1
   103    81    82    1
   104    81    84    1
   105    55    54   ar
   106    55    53   ar
   107    41    38   ar
   108    42    40   ar
   109    54    52   ar
   110    85    84    1
   111    82    83    2
   112    53    51   ar
   113    38    40   ar
   114    38    36   ar
   115    40    39   ar
   116    52    50   ar
   117    32    31    1
   118    32    33    1
   119    32    35    1
   120    51    50   ar
   121    33    34    2
   122    36    35    1
   123    36    37   ar
   124    39    37   ar
   125    50    49    1
   126    49    46    1
   127    46    45    1
   128    46    47    1
   129    48    47    2
