@<TRIPOS>MOLECULE
tmp/4f61D00.pdb
 200 186 0 0 0
SMALL
GASTEIGER

@<TRIPOS>ATOM
      1  N        -11.3700   29.8550   40.8930 N.3    10  GLY10      -0.1210
      2  CA       -10.1410   30.4110   40.3340 C.3    10  GLY10       0.1956
      3  C        -10.1690   31.9190   40.1500 C.2    10  GLY10       0.2612
      4  O        -11.1840   32.5680   40.4300 O.2    10  GLY10      -0.2717
      5  N         -9.0410   32.4830   39.6710 N.am   11  GLN11      -0.1965
      6  CA        -8.8610   33.9240   39.4460 C.3    11  GLN11       0.1733
      7  C         -9.9480   34.4580   38.4860 C.2    11  GLN11       0.2616
      8  O        -10.7550   35.3180   38.8690 O.2    11  GLN11      -0.2715
      9  CB        -7.4140   34.1870   38.9210 C.3    11  GLN11       0.0408
     10  CG        -6.8080   35.5650   39.1760 C.3    11  GLN11       0.0908
     11  CD        -7.4550   36.7090   38.4080 C.2    11  GLN11       0.2608
     12  OE1       -7.3550   36.8050   37.1770 O.2    11  GLN11      -0.2717
     13  NE2       -8.1110   37.6370   39.1310 N.am   11  GLN11      -0.0878
     14  N         -9.9840   33.9010   37.2670 N.am   12  CYS12      -0.1954
     15  CA       -10.9400   34.2870   36.2520 C.3    12  CYS12       0.1843
     16  C        -12.3730   34.0850   36.7540 C.2    12  CYS12       0.2626
     17  O        -13.1460   35.0420   36.7460 O.2    12  CYS12      -0.2714
     18  CB       -10.6750   33.5310   34.9560 C.3    12  CYS12       0.0997
     19  SG       -11.8560   33.8800   33.6320 S.3    12  CYS12      -0.0797
     20  N        -12.6830   32.8830   37.2580 N.am   13  GLY13      -0.1954
     21  CA       -14.0010   32.5480   37.8000 C.3    13  GLY13       0.1869
     22  C        -14.5300   33.5410   38.8190 C.2    13  GLY13       0.2309
     23  O        -15.6840   33.9770   38.7270 O.2    13  GLY13      -0.2863
     24  N        -13.2990   36.7220   39.3210 N.3    15  GLN15      -0.1231
     25  CA       -13.3430   38.0500   38.7250 C.3    15  GLN15       0.1698
     26  C        -14.6430   38.2480   37.9330 C.2    15  GLN15       0.2592
     27  O        -15.3530   39.2340   38.1520 O.2    15  GLN15      -0.2718
     28  CB       -12.1070   38.2650   37.8420 C.3    15  GLN15       0.0381
     29  CG       -11.7930   39.7110   37.6220 C.3    15  GLN15       0.0905
     30  CD       -10.6200   40.1540   38.4300 C.2    15  GLN15       0.2608
     31  OE1       -9.4620   39.7740   38.1790 O.2    15  GLN15      -0.2717
     32  NE2      -10.8940   41.0600   39.3540 N.am   15  GLN15      -0.0878
     33  N        -14.9750   37.2770   37.0580 N.am   16  ILE16      -0.1976
     34  CA       -16.1840   37.2890   36.2260 C.3    16  ILE16       0.1635
     35  C        -17.4270   37.1030   37.0900 C.2    16  ILE16       0.2290
     36  O        -18.4450   37.7470   36.8360 O.2    16  ILE16      -0.2864
     37  CB       -16.0890   36.2070   35.1140 C.3    16  ILE16       0.0496
     38  CG1      -14.8620   36.2940   34.1920 C.2    16  ILE16      -0.0243
     39  CG2      -17.4020   35.8660   34.4380 C.3    16  ILE16       0.0069
     40  CD1      -14.8400   37.3740   33.3620 C.2    16  ILE16      -0.0049
     41  N        -11.1730   29.2560   45.5900 N.3    67  ASP67      -0.1239
     42  CA        -9.8460   29.4210   45.0080 C.3    67  ASP67       0.1674
     43  C         -8.8350   28.6790   45.8460 C.2    67  ASP67       0.2266
     44  O         -9.0410   28.5110   47.0440 O.2    67  ASP67      -0.2867
     45  CB        -9.4310   30.8940   44.7940 C.3    67  ASP67       0.1410
     46  CG        -8.4830   31.1170   43.6090 C.2    67  ASP67       0.3668
     47  OD1       -7.7720   30.1600   43.2170 O.co2  67  ASP67      -0.2456
     48  OD2       -8.4500   32.2440   43.0790 O.co2  67  ASP67      -0.2456
     49  N         -5.8360   29.7880   46.0000 N.3    69  GLU69      -0.1245
     50  CA        -5.0350   30.9470   46.3290 C.3    69  GLU69       0.1567
     51  C         -5.9010   31.9790   47.1180 C.2    69  GLU69       0.2260
     52  O         -6.9930   32.3320   46.6660 O.2    69  GLU69      -0.2867
     53  CB        -4.5180   31.5400   45.0150 C.3    69  GLU69       0.0388
     54  CG        -3.4070   32.5550   45.1950 C.3    69  GLU69       0.1160
     55  CD        -3.8140   33.9920   45.4470 C.2    69  GLU69       0.3649
     56  OE1       -4.7820   34.4650   44.7980 O.co2  69  GLU69      -0.2457
     57  OE2       -3.1350   34.6550   46.2700 O.co2  69  GLU69      -0.2457
     58  N         -2.6220   26.6280   42.5080 N.3    97  ALA97      -0.1231
     59  CA        -2.5320   25.5730   41.5050 C.3    97  ALA97       0.1694
     60  C         -1.4720   25.8070   40.4690 C.2    97  ALA97       0.2593
     61  O         -1.2210   24.9160   39.6630 O.2    97  ALA97      -0.2718
     62  CB        -3.8680   25.3710   40.8340 C.3    97  ALA97       0.0304
     63  N         -0.8710   26.9950   40.4860 N.am   98  GLY98      -0.1942
     64  CA         0.2220   27.3840   39.6010 C.3    98  GLY98       0.2014
     65  C         -0.0110   27.1300   38.1240 C.2    98  GLY98       0.2638
     66  O          0.8990   26.6700   37.4230 O.2    98  GLY98      -0.2714
     67  N         -1.2490   27.4130   37.6490 N.am   99  ASN99      -0.1972
     68  CA        -1.6760   27.2690   36.2450 C.3    99  ASN99       0.1688
     69  C         -1.4610   25.8490   35.7020 C.2    99  ASN99       0.2292
     70  O         -1.1860   25.6410   34.5150 O.2    99  ASN99      -0.2864
     71  CB        -1.0450   28.3730   35.3640 C.3    99  ASN99       0.1181
     72  CG        -1.4790   29.7890   35.7540 C.2    99  ASN99       0.2629
     73  OD1       -2.6760   30.1190   35.8550 O.2    99  ASN99      -0.2716
     74  ND2       -0.5190   30.6710   35.9800 N.am   99  ASN99      -0.0877
     75  N        -12.2210   29.7260   34.2960 N.3   138  SER138     -0.1217
     76  CA       -11.4330   29.7330   33.0640 C.3   138  SER138      0.1889
     77  C        -11.0060   28.2900   32.8000 C.2   138  SER138      0.2288
     78  O        -10.9220   27.4920   33.7480 O.2   138  SER138     -0.2866
     79  CB       -10.1740   30.5760   33.2190 C.3   138  SER138      0.2089
     80  OG        -9.3050   30.0610   34.2160 O.3   138  SER138     -0.2183
     81  N         -8.0210   27.7980   30.9670 N.3   140  GLY140     -0.1210
     82  CA        -6.5780   27.9540   30.7780 C.3   140  GLY140      0.1956
     83  C         -5.6900   27.8590   32.0040 C.2   140  GLY140      0.2612
     84  O         -4.4790   27.6300   31.8780 O.2   140  GLY140     -0.2717
     85  N         -6.2990   28.0620   33.1700 N.am  141  GLY141     -0.1942
     86  CA        -5.6420   28.0240   34.4690 C.3   141  GLY141      0.2014
     87  C         -5.6420   26.6640   35.1230 C.2   141  GLY141      0.2639
     88  O         -5.8410   25.6470   34.4640 O.2   141  GLY141     -0.2714
     89  N         -5.3680   26.6540   36.4160 N.am  142  GLY142     -0.1939
     90  CA        -5.2690   25.4290   37.1910 C.3   142  GLY142      0.2014
     91  C         -6.4280   25.1880   38.1310 C.2   142  GLY142      0.2640
     92  O         -6.9110   24.0570   38.2140 O.2   142  GLY142     -0.2714
     93  N         -6.8590   26.2320   38.8810 N.am  143  THR143     -0.1936
     94  CA        -7.9600   26.1200   39.8470 C.3   143  THR143      0.2028
     95  C         -9.3060   26.0620   39.1200 C.2   143  THR143      0.2642
     96  O        -10.0050   25.0430   39.2030 O.2   143  THR143     -0.2714
     97  CB        -7.8930   27.2150   40.9370 C.3   143  THR143      0.1808
     98  OG1       -6.5920   27.2460   41.5220 O.3   143  THR143     -0.2208
     99  CG2       -8.9310   27.0060   42.0310 C.3   143  THR143      0.0379
    100  N         -9.6380   27.1440   38.4120 N.am  144  GLY144     -0.1954
    101  CA       -10.8670   27.2480   37.6460 C.3   144  GLY144      0.1869
    102  C        -11.0570   26.0510   36.7420 C.2   144  GLY144      0.2309
    103  O        -12.1080   25.4110   36.7510 O.2   144  GLY144     -0.2863
    104  N        -14.4140   30.1080   30.3800 N.3   169  VAL169     -0.1231
    105  CA       -13.6240   31.0200   29.5620 C.3   169  VAL169      0.1692
    106  C        -12.4130   30.3560   28.9240 C.2   169  VAL169      0.2592
    107  O        -11.5480   29.8060   29.6140 O.2   169  VAL169     -0.2718
    108  CB       -13.4750   32.5140   30.0090 C.3   169  VAL169      0.0266
    109  CG1      -14.2010   32.8120   31.3050 C.3   169  VAL169      0.0020
    110  CG2      -12.0420   33.0320   30.0130 C.3   169  VAL169      0.0020
    111  N        -12.4290   30.3410   27.5740 N.am  170  MET170     -0.1966
    112  CA       -11.4330   29.7170   26.6950 C.3   170  MET170      0.1721
    113  C        -10.1860   30.5490   26.6190 C.2   170  MET170      0.2458
    114  O        -10.2820   31.7610   26.4040 O.2   170  MET170     -0.2730
    115  CB       -11.9780   29.5430   25.2660 C.3   170  MET170      0.0427
    116  CG       -13.3280   28.8970   25.2200 C.3   170  MET170      0.0599
    117  SD       -13.2200   27.1690   25.7680 S.3   170  MET170     -0.1393
    118  CE       -15.0590   26.7820   26.1310 C.3   170  MET170      0.0692
    119  N         -9.0040   29.9140   26.7260 N.am  171  PRO171     -0.2727
    120  CA        -7.7550   30.6900   26.6420 C.3   171  PRO171      0.1402
    121  C         -7.3790   31.0980   25.2160 C.2   171  PRO171      0.2269
    122  O         -7.8040   30.4780   24.2230 O.2   171  PRO171     -0.2865
    123  CB        -6.7250   29.7390   27.2280 C.3   171  PRO171      0.0296
    124  CG        -7.2520   28.3710   26.8690 C.3   171  PRO171      0.0237
    125  CD        -8.7440   28.4760   26.9630 C.3   171  PRO171      0.0939
    126  N         -4.2310   36.9710   24.9090 N.3   175  VAL175     -0.1245
    127  CA        -4.3500   37.3540   26.3160 C.3   175  VAL175      0.1561
    128  C         -4.0480   36.1060   27.2140 C.2   175  VAL175      0.2260
    129  O         -4.9170   35.5220   27.8800 O.2   175  VAL175     -0.2867
    130  CB        -5.6750   38.0940   26.6210 C.3   175  VAL175      0.0252
    131  CG1       -6.9010   37.2830   26.2440 C.3   175  VAL175      0.0019
    132  CG2       -5.7200   38.6000   28.0470 C.3   175  VAL175      0.0019
    133  N         -1.4940   34.1690   30.0710 N.3   177  ASP177     -0.1239
    134  CA        -0.6230   34.2910   31.2370 C.3   177  ASP177      0.1674
    135  C          0.3180   33.0490   31.4300 C.2   177  ASP177      0.2266
    136  O          1.1710   33.0680   32.3080 O.2   177  ASP177     -0.2867
    137  CB        -1.3820   34.7990   32.5250 C.3   177  ASP177      0.1410
    138  CG        -2.6770   34.1140   32.9840 C.2   177  ASP177      0.3668
    139  OD1       -2.6450   32.8790   33.2010 O.co2 177  ASP177     -0.2456
    140  OD2       -3.6620   34.8470   33.3280 O.co2 177  ASP177     -0.2456
    141  N         -1.6800   26.6750   28.6370 N.3   181  GLU181     -0.1245
    142  CA        -3.1210   26.8570   28.4650 C.3   181  GLU181      0.1567
    143  C         -3.7660   25.8370   27.5200 C.2   181  GLU181      0.2260
    144  O         -4.8070   25.3190   27.9110 O.2   181  GLU181     -0.2867
    145  CB        -3.4450   28.2940   28.0800 C.3   181  GLU181      0.0388
    146  CG        -3.2140   29.2350   29.2480 C.3   181  GLU181      0.1160
    147  CD        -3.3300   30.7360   29.0530 C.2   181  GLU181      0.3649
    148  OE1       -3.6940   31.1900   27.9420 O.co2 181  GLU181     -0.2457
    149  OE2       -3.0440   31.4660   30.0310 O.co2 181  GLU181     -0.2457
    150  N        -11.7410   34.2220   25.1260 N.3   204  ASN204     -0.1240
    151  CA       -10.8690   35.3820   25.2900 C.3   204  ASN204      0.1653
    152  C        -10.3300   35.8660   23.9470 C.2   204  ASN204      0.2266
    153  O        -10.0560   37.0510   23.8180 O.2   204  ASN204     -0.2867
    154  CB        -9.7340   35.1060   26.2730 C.3   204  ASN204      0.1155
    155  CG       -10.0390   35.4260   27.7130 C.2   204  ASN204      0.2627
    156  OD1       -9.1870   35.2950   28.5830 O.2   204  ASN204     -0.2716
    157  ND2      -11.2440   35.8750   28.0060 N.am  204  ASN204     -0.0877
    158  N        -13.1860   38.1010   22.8160 N.3   207  LEU207     -0.1245
    159  CA       -13.2750   39.2780   23.6930 C.3   207  LEU207      0.1561
    160  C        -12.1710   40.2630   23.4170 C.2   207  LEU207      0.2260
    161  O        -12.4300   41.4650   23.3930 O.2   207  LEU207     -0.2867
    162  CB       -13.2780   38.9180   25.1860 C.3   207  LEU207      0.0270
    163  CG       -14.3160   37.9190   25.6530 C.3   207  LEU207      0.0019
    164  CD1      -14.1300   37.5960   27.1050 C.3   207  LEU207      0.0001
    165  CD2      -15.7260   38.4120   25.3980 C.3   207  LEU207      0.0001
    166  N         -8.1870   43.0120   31.6760 N.3   222  TYR222     -0.1241
    167  CA        -9.1960   42.0280   32.0530 C.3   222  TYR222      0.1605
    168  C        -10.5040   42.7400   32.3800 C.2   222  TYR222      0.2264
    169  O        -11.5560   42.2120   32.0510 O.2   222  TYR222     -0.2867
    170  CB        -8.7220   41.0750   33.1700 C.3   222  TYR222      0.0534
    171  CG        -7.7950   39.9620   32.6960 C.ar  222  TYR222     -0.0201
    172  CD1       -6.5950   39.6990   33.3490 C.ar  222  TYR222     -0.0009
    173  CD2       -8.1170   39.1760   31.5920 C.ar  222  TYR222     -0.0009
    174  CE1       -5.7340   38.6760   32.9160 C.ar  222  TYR222      0.0417
    175  CE2       -7.2570   38.1640   31.1390 C.ar  222  TYR222      0.0417
    176  CZ        -6.0650   37.9100   31.8070 C.ar  222  TYR222      0.1957
    177  OH        -5.1960   36.9190   31.3680 O.3   222  TYR222     -0.2866
    178  N        -12.3160   43.1870   29.0640 N.3   225  LEU225     -0.1231
    179  CA       -12.8330   41.8840   28.6260 C.3   225  LEU225      0.1693
    180  C        -14.0320   41.4570   29.4770 C.2   225  LEU225      0.2592
    181  O        -15.0390   41.0050   28.9230 O.2   225  LEU225     -0.2718
    182  CB       -11.7470   40.8270   28.7430 C.3   225  LEU225      0.0284
    183  CG       -10.8210   40.5910   27.5950 C.3   225  LEU225      0.0019
    184  CD1      -10.2890   41.8610   26.9420 C.3   225  LEU225      0.0001
    185  CD2       -9.6990   39.7070   28.0510 C.3   225  LEU225      0.0001
    186  N        -13.9340   41.6480   30.8200 N.am  226  ASN226     -0.1974
    187  CA       -14.9720   41.3030   31.8030 C.3   226  ASN226      0.1688
    188  C        -16.2540   42.1120   31.6660 C.2   226  ASN226      0.2292
    189  O        -17.3230   41.6210   32.0320 O.2   226  ASN226     -0.2864
    190  CB       -14.4140   41.2980   33.2300 C.3   226  ASN226      0.1181
    191  CG       -13.3400   40.2510   33.4260 C.2   226  ASN226      0.2629
    192  OD1      -13.0910   39.4080   32.5580 O.2   226  ASN226     -0.2716
    193  ND2      -12.6430   40.3110   34.5370 N.am  226  ASN226     -0.0877
    194  N        -18.1060   40.0870   29.1850 N.3   229  VAL229     -0.1245
    195  CA       -18.5300   38.8380   29.8410 C.3   229  VAL229      0.1561
    196  C        -19.7770   39.1000   30.6800 C.2   229  VAL229      0.2260
    197  O        -20.7620   38.3670   30.5490 O.2   229  VAL229     -0.2867
    198  CB       -17.4300   38.1780   30.7100 C.3   229  VAL229      0.0252
    199  CG1      -17.9310   36.8690   31.2950 C.3   229  VAL229      0.0019
    200  CG2      -16.1600   37.9400   29.9150 C.3   229  VAL229      0.0019
@<TRIPOS>BOND
     1   158   159    1
     2   161   160    2
     3   160   159    1
     4   159   162    1
     5   153   152    2
     6   152   151    1
     7   122   121    2
     8   126   127    1
     9   150   151    1
    10   162   163    1
    11   121   120    1
    12   116   115    1
    13   116   117    1
    14   115   112    1
    15   151   154    1
    16   165   163    1
    17   163   164    1
    18   117   118    1
    19   131   130    1
    20   154   155    1
    21   127   130    1
    22   127   128    1
    23   114   113    2
    24   113   112    1
    25   113   119   am
    26   130   132    1
    27   120   119    1
    28   120   123    1
    29   112   111    1
    30   119   125    1
    31   124   125    1
    32   124   123    1
    33   184   183    1
    34   128   129    2
    35   143   144    2
    36   143   142    1
    37   111   106   am
    38   183   185    1
    39   183   182    1
    40   155   157   am
    41   155   156    2
    42   148   147   ar
    43   145   142    1
    44   145   146    1
    45   142   141    1
    46   179   182    1
    47   179   178    1
    48   179   180    1
    49   181   180    2
    50   106   105    1
    51   106   107    2
    52   147   146    1
    53   147   149   ar
    54   194   195    1
    55   180   186   am
    56   105   108    1
    57   105   104    1
    58   195   196    1
    59   195   198    1
    60   200   198    1
    61   108   110    1
    62   108   109    1
    63   133   134    1
    64   197   196    2
    65   198   199    1
    66    82    81    1
    67    82    83    1
    68   186   187    1
    69   175   173   ar
    70   175   176   ar
    71   134   135    1
    72   134   137    1
    73   177   176    1
    74   135   136    2
    75   173   171   ar
    76   188   187    1
    77   188   189    2
    78   166   167    1
    79   187   190    1
    80   176   174   ar
    81    84    83    2
    82    83    85   am
    83   169   168    2
    84   167   168    1
    85   167   170    1
    86   137   138    1
    87   192   191    2
    88   171   170    1
    89   171   172   ar
    90    77    76    1
    91    77    78    2
    92   174   172   ar
    93   138   139   ar
    94   138   140   ar
    95    76    79    1
    96    76    75    1
    97    85    86    1
    98    79    80    1
    99   190   191    1
   100    40    38    2
   101   191   193   am
   102    19    18    1
   103    38    37    1
   104    39    37    1
   105    88    87    2
   106    86    87    1
   107    70    69    2
   108    18    15    1
   109    37    34    1
   110    87    89   am
   111    71    72    1
   112    71    68    1
   113    69    68    1
   114    72    73    2
   115    72    74   am
   116    34    33    1
   117    34    35    1
   118    68    67    1
   119    15    16    1
   120    15    14    1
   121    89    90    1
   122   102   103    2
   123   102   101    1
   124    17    16    2
   125    16    20   am
   126    36    35    2
   127    33    26   am
   128    12    11    2
   129    90    91    1
   130    20    21    1
   131    14     7   am
   132    66    65    2
   133    29    28    1
   134    29    30    1
   135   101   100    1
   136    67    65   am
   137    21    22    1
   138    28    25    1
   139    26    27    2
   140    26    25    1
   141    65    64    1
   142    91    92    2
   143    91    93   am
   144    31    30    2
   145    11    13   am
   146    11    10    1
   147   100    95   am
   148    30    32   am
   149     7     8    2
   150     7     6    1
   151    25    24    1
   152    23    22    2
   153    93    94    1
   154     9    10    1
   155     9     6    1
   156    95    96    2
   157    95    94    1
   158     6     5    1
   159    64    63    1
   160    61    60    2
   161     5     3   am
   162    94    97    1
   163     3     2    1
   164     3     4    2
   165     2     1    1
   166    60    63   am
   167    60    59    1
   168    62    59    1
   169    97    98    1
   170    97    99    1
   171    59    58    1
   172    48    46   ar
   173    47    46   ar
   174    46    45    1
   175    45    42    1
   176    56    55   ar
   177    42    41    1
   178    42    43    1
   179    53    54    1
   180    53    50    1
   181    54    55    1
   182    55    57   ar
   183    43    44    2
   184    49    50    1
   185    50    51    1
   186    52    51    2
