@<TRIPOS>MOLECULE
tmp/4f63A00.pdb
 133 123 0 0 0
SMALL
GASTEIGER

@<TRIPOS>ATOM
      1  N         88.5810    6.7120    5.3420 N.3    21  LEU21      -0.1231
      2  CA        87.4610    5.7950    5.5610 C.3    21  LEU21       0.1693
      3  C         86.2700    6.4850    6.2390 C.2    21  LEU21       0.2592
      4  O         85.1600    5.9740    6.2000 O.2    21  LEU21      -0.2718
      5  CB        87.9040    4.5620    6.3390 C.3    21  LEU21       0.0284
      6  CG        88.7150    3.4960    5.5810 C.3    21  LEU21       0.0019
      7  CD1       89.2910    2.4950    6.5820 C.3    21  LEU21       0.0001
      8  CD2       87.8930    2.7610    4.5360 C.3    21  LEU21       0.0001
      9  N         86.5050    7.6460    6.8470 N.am   22  GLY22      -0.1957
     10  CA        85.4340    8.5440    7.2800 C.3    22  GLY22       0.1869
     11  C         85.6810    8.9920    8.7000 C.2    22  GLY22       0.2309
     12  O         85.6600    8.1550    9.6080 O.2    22  GLY22      -0.2863
     13  N         89.8090    8.5460   10.3070 N.3    24  VAL24      -0.1245
     14  CA        90.2990    7.1610   10.0560 C.3    24  VAL24       0.1561
     15  C         90.5270    6.9060    8.5760 C.2    24  VAL24       0.2260
     16  O         89.5970    7.0240    7.7760 O.2    24  VAL24      -0.2867
     17  CB        89.3250    6.0890   10.4920 C.3    24  VAL24       0.0252
     18  CG1       89.8890    4.6920   10.1230 C.3    24  VAL24       0.0019
     19  CG2       89.0750    6.1850   11.9620 C.3    24  VAL24       0.0019
     20  N         93.5960   -0.0630    8.8670 N.3    40  ALA40      -0.1245
     21  CA        92.9870    1.2670    9.1160 C.3    40  ALA40       0.1562
     22  C         93.8670    2.0030   10.0910 C.2    40  ALA40       0.2260
     23  O         94.5130    1.3970   10.9220 O.2    40  ALA40      -0.2867
     24  CB        91.5950    1.1320    9.6840 C.3    40  ALA40       0.0290
     25  N         94.0660    5.3070   12.7200 N.3    42  LYS42      -0.1245
     26  CA        93.4510    6.4210   13.4610 C.3    42  LYS42       0.1561
     27  C         94.4550    7.5870   13.6550 C.2    42  LYS42       0.2260
     28  O         95.6010    7.3780   14.0840 O.2    42  LYS42      -0.2867
     29  CB        92.9480    5.9330   14.8050 C.3    42  LYS42       0.0271
     30  CG        92.2370    4.5810   14.7480 C.3    42  LYS42       0.0035
     31  CD        91.9020    4.0450   16.1220 C.3    42  LYS42       0.0206
     32  CE        90.5420    4.5170   16.6110 C.3    42  LYS42       0.1093
     33  NZ        90.4520    5.9910   16.6500 N.3    42  LYS42      -0.1314
     34  N         88.3400   -5.2340   17.2810 N.3    73  ILE73      -0.1245
     35  CA        89.2770   -4.5490   16.4080 C.3    73  ILE73       0.1561
     36  C         90.6070   -4.4780   17.1490 C.2    73  ILE73       0.2260
     37  O         90.7590   -3.7620   18.1470 O.2    73  ILE73      -0.2867
     38  CB        88.8060   -3.1320   16.0320 C.3    73  ILE73       0.0252
     39  CG1       87.5830   -3.1860   15.1050 C.3    73  ILE73       0.0019
     40  CG2       89.9290   -2.3240   15.3850 C.3    73  ILE73       0.0019
     41  CD1       87.8190   -3.8980   13.7630 C.3    73  ILE73       0.0001
     42  N         95.1910   -0.0150   13.4340 N.3    89  VAL89      -0.1231
     43  CA        94.2940   -1.0900   13.8510 C.3    89  VAL89       0.1692
     44  C         93.8050   -1.9190   12.6760 C.2    89  VAL89       0.2592
     45  O         93.9570   -1.5280   11.5230 O.2    89  VAL89      -0.2718
     46  CB        93.0550   -0.5170   14.5770 C.3    89  VAL89       0.0266
     47  CG1       93.4750    0.5000   15.6890 C.3    89  VAL89       0.0020
     48  CG2       92.1360    0.1740   13.5910 C.3    89  VAL89       0.0020
     49  N         93.1630   -3.0330   12.9800 N.am   90  GLU90      -0.1966
     50  CA        92.7060   -3.9460   11.9620 C.3    90  GLU90       0.1733
     51  C         91.6720   -3.2950   11.0790 C.2    90  GLU90       0.2616
     52  O         90.8470   -2.5450   11.5500 O.2    90  GLU90      -0.2715
     53  CB        92.0860   -5.1890   12.5660 C.3    90  GLU90       0.0429
     54  CG        93.0640   -6.2620   12.8520 C.3    90  GLU90       0.1163
     55  CD        92.4850   -7.4400   13.6610 C.2    90  GLU90       0.3649
     56  OE1       91.4340   -7.2920   14.3340 O.co2  90  GLU90      -0.2457
     57  OE2       93.1140   -8.5290   13.6280 O.co2  90  GLU90      -0.2457
     58  N         91.7420   -3.6130    9.7930 N.am   91  TYR91      -0.1960
     59  CA        90.8280   -3.1370    8.7740 C.3    91  TYR91       0.1771
     60  C         89.7390   -4.1510    8.4750 C.2    91  TYR91       0.2619
     61  O         89.9980   -5.3400    8.2780 O.2    91  TYR91      -0.2715
     62  CB        91.5910   -2.8720    7.4800 C.3    91  TYR91       0.0574
     63  CG        90.7310   -2.4620    6.3060 C.ar   91  TYR91      -0.0198
     64  CD1       89.9760   -1.3020    6.3490 C.ar   91  TYR91      -0.0009
     65  CD2       90.7040   -3.2270    5.1310 C.ar   91  TYR91      -0.0009
     66  CE1       89.1940   -0.9090    5.2660 C.ar   91  TYR91       0.0417
     67  CE2       89.9250   -2.8440    4.0350 C.ar   91  TYR91       0.0417
     68  CZ        89.1760   -1.6790    4.1140 C.ar   91  TYR91       0.1957
     69  OH        88.4000   -1.2880    3.0500 O.3    91  TYR91      -0.2866
     70  N         88.5380   -3.6030    8.3360 N.am   92  ALA92      -0.1963
     71  CA        87.2750   -4.3180    8.2880 C.3    92  ALA92       0.1728
     72  C         86.5670   -3.7640    7.0570 C.2    92  ALA92       0.2616
     73  O         85.9970   -2.6790    7.1030 O.2    92  ALA92      -0.2715
     74  CB        86.4680   -4.0490    9.5380 C.3    92  ALA92       0.0334
     75  N         86.6490   -4.4820    5.9470 N.am   93  SER93      -0.1950
     76  CA        86.3430   -3.8820    4.6430 C.3    93  SER93       0.1924
     77  C         84.8700   -3.7240    4.3490 C.2    93  SER93       0.2314
     78  O         84.5190   -2.9380    3.5090 O.2    93  SER93      -0.2863
     79  CB        86.9500   -4.6930    3.5160 C.3    93  SER93       0.2116
     80  OG        86.3910   -5.9810    3.5070 O.3    93  SER93      -0.2180
     81  N         82.4160   -2.6210    6.3230 N.3    95  GLY95      -0.1225
     82  CA        81.7270   -1.5710    7.0910 C.3    95  GLY95       0.1811
     83  C         81.1240   -2.0210    8.4240 C.2    95  GLY95       0.2280
     84  O         81.4410   -3.1060    8.9470 O.2    95  GLY95      -0.2866
     85  N         75.0260   -1.2210    8.3950 N.3    99  GLU99      -0.1245
     86  CA        75.1120   -1.1140    6.9330 C.3    99  GLU99       0.1567
     87  C         75.1520   -2.4880    6.2200 C.2    99  GLU99       0.2260
     88  O         74.3730   -2.7880    5.2950 O.2    99  GLU99      -0.2867
     89  CB        76.3690   -0.3240    6.5730 C.3    99  GLU99       0.0388
     90  CG        76.3390    1.1640    6.9790 C.3    99  GLU99       0.1160
     91  CD        77.7220    1.8440    6.9110 C.2    99  GLU99       0.3649
     92  OE1       78.7720    1.2040    7.2220 O.co2  99  GLU99      -0.2457
     93  OE2       77.7460    3.0420    6.5510 O.co2  99  GLU99      -0.2457
     94  N         76.3380   -0.2550   14.9150 N.3   143  ARG143     -0.1231
     95  CA        77.2270    0.6900   14.2890 C.3   143  ARG143      0.1694
     96  C         78.6390    0.5560   14.8000 C.2   143  ARG143      0.2592
     97  O         79.5670    0.8560   14.0940 O.2   143  ARG143     -0.2718
     98  CB        76.7580    2.1120   14.5680 C.3   143  ARG143      0.0321
     99  CG        76.9160    2.5210   16.0180 C.3   143  ARG143      0.0489
    100  CD        76.0020    3.6740   16.3810 C.3   143  ARG143      0.2205
    101  NE        75.8850    3.7930   17.8350 N.pl3 143  ARG143     -0.0865
    102  CZ        74.7500    3.8450   18.5080 C.cat 143  ARG143      0.5346
    103  NH1       73.5900    3.8520   17.8840 N.pl3 143  ARG143      0.1354
    104  NH2       74.7810    3.9080   19.8270 N.pl3 143  ARG143      0.1354
    105  N         78.8050    0.1720   16.0600 N.am  144  ASN144     -0.1974
    106  CA        80.1520    0.0000   16.6170 C.3   144  ASN144      0.1688
    107  C         80.5980   -1.4840   16.5490 C.2   144  ASN144      0.2292
    108  O         81.4690   -1.9220   17.3060 O.2   144  ASN144     -0.2864
    109  CB        80.2270    0.5740   18.0320 C.3   144  ASN144      0.1181
    110  CG        80.1260    2.1210   18.0680 C.2   144  ASN144      0.2629
    111  OD1       80.7890    2.8470   17.2900 O.2   144  ASN144     -0.2716
    112  ND2       79.3100    2.6210   18.9800 N.am  144  ASN144     -0.0877
    113  N         82.0240   -3.9980   13.4290 N.3   146  LEU146     -0.1245
    114  CA        82.4500   -4.0140   12.0430 C.3   146  LEU146      0.1561
    115  C         82.6080   -5.4240   11.4860 C.2   146  LEU146      0.2260
    116  O         82.7740   -6.4160   12.2270 O.2   146  LEU146     -0.2867
    117  CB        83.7670   -3.2720   11.8640 C.3   146  LEU146      0.0270
    118  CG        83.8760   -1.9120   12.5290 C.3   146  LEU146      0.0019
    119  CD1       85.2580   -1.3420   12.2600 C.3   146  LEU146      0.0001
    120  CD2       82.8200   -0.9830   12.0060 C.3   146  LEU146      0.0001
    121  N         84.2070   -2.5840   17.8650 N.3   156  ALA156     -0.1231
    122  CA        85.0000   -1.3930   17.6770 C.3   156  ALA156      0.1694
    123  C         84.6180   -0.4370   18.7620 C.2   156  ALA156      0.2592
    124  O         83.5270   -0.5250   19.3300 O.2   156  ALA156     -0.2718
    125  CB        84.6860   -0.7720   16.3430 C.3   156  ALA156      0.0304
    126  N         85.5200    0.5010   19.0200 N.am  157  ASP157     -0.1974
    127  CA        85.2980    1.6030   19.9700 C.3   157  ASP157      0.1709
    128  C         85.2540    1.1880   21.4420 C.2   157  ASP157      0.2293
    129  O         84.8770    1.9660   22.2880 O.2   157  ASP157     -0.2864
    130  CB        84.0470    2.3860   19.5840 C.3   157  ASP157      0.1436
    131  CG        84.3770    3.6950   18.9330 C.2   157  ASP157      0.3671
    132  OD1       85.2470    3.7080   18.0370 O.co2 157  ASP157     -0.2456
    133  OD2       83.7690    4.7170   19.3410 O.co2 157  ASP157     -0.2456
@<TRIPOS>BOND
     1    69    68    1
     2    80    79    1
     3    78    77    2
     4    79    76    1
     5    67    68   ar
     6    67    65   ar
     7    68    66   ar
     8    77    76    1
     9     8     6    1
    10    76    75    1
    11    65    63   ar
    12    66    64   ar
    13    88    87    2
    14     1     2    1
    15     2     3    1
    16     2     5    1
    17     6     5    1
    18     6     7    1
    19    75    72   am
    20     4     3    2
    21    87    86    1
    22     3     9   am
    23    63    64   ar
    24    63    62    1
    25    81    82    1
    26    93    91   ar
    27    89    86    1
    28    89    90    1
    29     9    10    1
    30    91    90    1
    31    91    92   ar
    32    86    85    1
    33    72    73    2
    34    72    71    1
    35    82    83    1
    36    10    11    1
    37    62    59    1
    38    16    15    2
    39    61    60    2
    40    71    70    1
    41    71    74    1
    42    70    60   am
    43    83    84    2
    44    60    59    1
    45    15    14    1
    46    11    12    2
    47    59    58    1
    48    20    21    1
    49    21    24    1
    50    21    22    1
    51    58    51   am
    52    14    13    1
    53    14    17    1
    54    22    23    2
    55    18    17    1
    56    17    19    1
    57    51    52    2
    58    51    50    1
    59   115   114    1
    60   115   116    2
    61    45    44    2
    62   117   114    1
    63   117   118    1
    64    50    53    1
    65    50    49    1
    66   120   118    1
    67   114   113    1
    68   119   118    1
    69    53    54    1
    70    44    49   am
    71    44    43    1
    72    25    26    1
    73    54    55    1
    74    42    43    1
    75    26    27    1
    76    26    29    1
    77    48    46    1
    78    57    55   ar
    79    27    28    2
    80    55    56   ar
    81    41    39    1
    82    43    46    1
    83    97    96    2
    84    95    98    1
    85    95    96    1
    86    95    94    1
    87    98    99    1
    88    46    47    1
    89    30    29    1
    90    30    31    1
    91    96   105   am
    92    39    38    1
    93    40    38    1
    94    99   100    1
    95    38    35    1
    96   105   106    1
    97    31    32    1
    98   125   122    1
    99   100   101    1
   100    35    36    1
   101    35    34    1
   102   107   106    1
   103   107   108    2
   104    32    33    1
   105   106   109    1
   106    36    37    2
   107   111   110    2
   108   122   121    1
   109   122   123    1
   110   101   102    2
   111   103   102    1
   112   109   110    1
   113   132   131   ar
   114   110   112   am
   115   102   104    1
   116   123   126   am
   117   123   124    2
   118   131   133   ar
   119   131   130    1
   120   126   127    1
   121   130   127    1
   122   127   128    1
   123   128   129    2
