@<TRIPOS>MOLECULE
tmp/4f63B00.pdb
 141 131 0 0 0
SMALL
GASTEIGER

@<TRIPOS>ATOM
      1  N         27.2630    3.0140   29.5990 N.3    24  LEU24      -0.1231
      2  CA        28.2570    2.3010   28.8310 C.3    24  LEU24       0.1693
      3  C         29.5060    3.1600   28.5850 C.2    24  LEU24       0.2592
      4  O         30.6060    2.6410   28.6690 O.2    24  LEU24      -0.2718
      5  CB        27.6500    1.7950   27.5230 C.3    24  LEU24       0.0284
      6  CG        26.7490    0.5700   27.6880 C.3    24  LEU24       0.0019
      7  CD1       25.9830    0.2550   26.4020 C.3    24  LEU24       0.0001
      8  CD2       27.5450   -0.6630   28.1340 C.3    24  LEU24       0.0001
      9  N         29.3400    4.4590   28.3150 N.am   25  GLY25      -0.1957
     10  CA        30.4780    5.3490   28.0380 C.3    25  GLY25       0.1869
     11  C         30.0930    6.8070   27.8070 C.2    25  GLY25       0.2309
     12  O         29.0000    7.0900   27.3030 O.2    25  GLY25      -0.2863
     13  N         26.4320    7.3500   26.2500 N.3    31  VAL31      -0.1245
     14  CA        25.8050    6.1020   25.8380 C.3    31  VAL31       0.1561
     15  C         25.4700    5.3260   27.0950 C.2    31  VAL31       0.2260
     16  O         26.3130    5.1860   27.9840 O.2    31  VAL31      -0.2867
     17  CB        26.7490    5.2080   25.0080 C.3    31  VAL31       0.0252
     18  CG1       26.0560    3.8900   24.5980 C.3    31  VAL31       0.0019
     19  CG2       27.2310    5.9230   23.7890 C.3    31  VAL31       0.0019
     20  N         21.6720   -0.4280   23.0430 N.3    47  ALA47      -0.1245
     21  CA        22.4980    0.6980   23.4300 C.3    47  ALA47       0.1562
     22  C         21.7680    1.9680   23.0320 C.2    47  ALA47       0.2260
     23  O         21.1360    1.9950   21.9810 O.2    47  ALA47      -0.2867
     24  CB        23.8250    0.6270   22.7520 C.3    47  ALA47       0.0290
     25  N         22.1790    6.0480   22.6060 N.3    49  LYS49      -0.1245
     26  CA        22.9330    7.2970   22.5990 C.3    49  LYS49       0.1561
     27  C         21.9740    8.4010   22.9530 C.2    49  LYS49       0.2260
     28  O         20.8050    8.3760   22.5700 O.2    49  LYS49      -0.2867
     29  CB        23.5690    7.6070   21.2430 C.3    49  LYS49       0.0271
     30  CG        24.3880    6.4900   20.6260 C.3    49  LYS49       0.0035
     31  CD        25.2400    6.9960   19.4730 C.3    49  LYS49       0.0206
     32  CE        25.1620    6.0620   18.2770 C.3    49  LYS49       0.1093
     33  NZ        25.8960    4.7890   18.5170 N.3    49  LYS49      -0.1314
     34  N         26.9800   -1.0060   13.3060 N.3    80  ILE80      -0.1245
     35  CA        26.0910   -0.7550   14.4320 C.3    80  ILE80       0.1561
     36  C         24.7940   -0.1350   13.8920 C.2    80  ILE80       0.2260
     37  O         24.7920    1.0070   13.4230 O.2    80  ILE80      -0.2867
     38  CB        26.7850    0.1730   15.4760 C.3    80  ILE80       0.0252
     39  CG1       27.9250   -0.5830   16.1840 C.3    80  ILE80       0.0019
     40  CG2       25.7850    0.7410   16.4800 C.3    80  ILE80       0.0019
     41  CD1       27.4900   -1.6400   17.1820 C.3    80  ILE80       0.0001
     42  N         20.4070    2.0260   19.3030 N.3    96  VAL96      -0.1231
     43  CA        21.2080    1.2520   18.3970 C.3    96  VAL96       0.1692
     44  C         21.5820   -0.0660   19.0670 C.2    96  VAL96       0.2592
     45  O         21.3850   -0.2450   20.2790 O.2    96  VAL96      -0.2718
     46  CB        22.4760    2.0130   17.8930 C.3    96  VAL96       0.0266
     47  CG1       22.1510    3.4560   17.5310 C.3    96  VAL96       0.0020
     48  CG2       23.5940    1.9770   18.9010 C.3    96  VAL96       0.0020
     49  N         22.1230   -0.9740   18.2530 N.am   97  GLU97      -0.1966
     50  CA        22.5170   -2.3000   18.6890 C.3    97  GLU97       0.1733
     51  C         23.5710   -2.3200   19.7760 C.2    97  GLU97       0.2616
     52  O         24.5790   -1.6290   19.7070 O.2    97  GLU97      -0.2715
     53  CB        23.0250   -3.1180   17.4890 C.3    97  GLU97       0.0429
     54  CG        21.9170   -3.5630   16.5510 C.3    97  GLU97       0.1163
     55  CD        22.3980   -4.2720   15.3150 C.2    97  GLU97       0.3649
     56  OE1       23.4180   -3.8550   14.7190 O.co2  97  GLU97      -0.2457
     57  OE2       21.7080   -5.2410   14.9230 O.co2  97  GLU97      -0.2457
     58  N         23.3230   -3.1580   20.7640 N.am   98  TYR98      -0.1960
     59  CA        24.2790   -3.4510   21.8200 C.3    98  TYR98       0.1771
     60  C         25.3020   -4.5790   21.4860 C.2    98  TYR98       0.2619
     61  O         24.9620   -5.7200   21.0980 O.2    98  TYR98      -0.2715
     62  CB        23.5080   -3.8180   23.0680 C.3    98  TYR98       0.0574
     63  CG        24.3610   -4.2630   24.2150 C.ar   98  TYR98      -0.0198
     64  CD1       25.4310   -3.4990   24.6380 C.ar   98  TYR98      -0.0009
     65  CD2       24.0730   -5.4460   24.9070 C.ar   98  TYR98      -0.0009
     66  CE1       26.2090   -3.8980   25.7070 C.ar   98  TYR98       0.0417
     67  CE2       24.8440   -5.8460   25.9840 C.ar   98  TYR98       0.0417
     68  CZ        25.9030   -5.0630   26.3840 C.ar   98  TYR98       0.1957
     69  OH        26.6700   -5.4530   27.4500 O.3    98  TYR98      -0.2866
     70  N         26.5620   -4.2410   21.7070 N.am   99  ALA99      -0.1963
     71  CA        27.6910   -5.0580   21.3890 C.3    99  ALA99       0.1728
     72  C         28.3040   -5.4460   22.7250 C.2    99  ALA99       0.2616
     73  O         29.0070   -4.6390   23.3080 O.2    99  ALA99      -0.2715
     74  CB        28.6700   -4.2180   20.5980 C.3    99  ALA99       0.0334
     75  N         28.0470   -6.6630   23.2170 N.am  100  SER100     -0.1950
     76  CA        28.3480   -6.9820   24.6230 C.3   100  SER100      0.1924
     77  C         29.8250   -7.0160   24.9770 C.2   100  SER100      0.2314
     78  O         30.1780   -6.7860   26.1150 O.2   100  SER100     -0.2863
     79  CB        27.6550   -8.2730   25.0700 C.3   100  SER100      0.2116
     80  OG        28.1530   -9.4360   24.4310 O.3   100  SER100     -0.2180
     81  N         32.4300   -5.0570   23.8440 N.3   102  GLY102     -0.1210
     82  CA        33.2030   -3.8100   23.7350 C.3   102  GLY102      0.1956
     83  C         34.0130   -3.7130   22.4530 C.2   102  GLY102      0.2611
     84  O         33.7300   -4.3890   21.4650 O.2   102  GLY102     -0.2717
     85  N         35.0270   -2.8530   22.4610 N.am  103  ASN103     -0.1974
     86  CA        35.7050   -2.5070   21.2280 C.3   103  ASN103      0.1688
     87  C         36.7850   -3.5010   20.9230 C.2   103  ASN103      0.2292
     88  O         37.3220   -4.1140   21.7990 O.2   103  ASN103     -0.2864
     89  CB        36.2390   -1.0640   21.2440 C.3   103  ASN103      0.1181
     90  CG        37.5510   -0.9290   21.9850 C.2   103  ASN103      0.2629
     91  OD1       38.5510   -1.5820   21.6530 O.2   103  ASN103     -0.2716
     92  ND2       37.5540   -0.0880   23.0050 N.am  103  ASN103     -0.0877
     93  N         40.3550   -3.6490   22.9050 N.3   106  GLU106     -0.1245
     94  CA        40.1860   -4.3060   24.1940 C.3   106  GLU106      0.1567
     95  C         39.9580   -5.7880   24.0130 C.2   106  GLU106      0.2260
     96  O         40.6200   -6.5900   24.6560 O.2   106  GLU106     -0.2867
     97  CB        39.0110   -3.6820   24.9780 C.3   106  GLU106      0.0388
     98  CG        39.4070   -2.4800   25.8490 C.3   106  GLU106      0.1160
     99  CD        38.2870   -1.4760   26.0130 C.2   106  GLU106      0.3649
    100  OE1       37.1130   -1.8460   25.7600 O.co2 106  GLU106     -0.2457
    101  OE2       38.5700   -0.3130   26.3890 O.co2 106  GLU106     -0.2457
    102  N         39.2950    0.6680   17.9790 N.3   146  ARG146     -0.1231
    103  CA        38.4780    1.2940   19.0190 C.3   146  ARG146      0.1694
    104  C         37.0540    1.6690   18.5860 C.2   146  ARG146      0.2592
    105  O         36.1980    1.9590   19.4350 O.2   146  ARG146     -0.2718
    106  CB        39.1640    2.5570   19.5300 C.3   146  ARG146      0.0321
    107  CG        39.1800    3.7360   18.5340 C.3   146  ARG146      0.0489
    108  CD        39.9520    4.9600   19.0550 C.3   146  ARG146      0.2205
    109  NE        40.3490    5.8060   17.9320 N.pl3 146  ARG146     -0.0865
    110  CZ        41.5370    5.7920   17.3210 C.cat 146  ARG146      0.5346
    111  NH1       42.5310    4.9950   17.7220 N.pl3 146  ARG146      0.1354
    112  NH2       41.7300    6.5940   16.2820 N.pl3 146  ARG146      0.1354
    113  N         36.8210    1.7280   17.2740 N.am  147  ASN147     -0.1974
    114  CA        35.5090    2.0740   16.7080 C.3   147  ASN147      0.1688
    115  C         34.8750    0.8960   16.0180 C.2   147  ASN147      0.2292
    116  O         34.0000    1.0410   15.2000 O.2   147  ASN147     -0.2864
    117  CB        35.6630    3.2320   15.7360 C.3   147  ASN147      0.1181
    118  CG        35.9770    4.5220   16.4390 C.2   147  ASN147      0.2629
    119  OD1       35.5090    4.7360   17.5590 O.2   147  ASN147     -0.2716
    120  ND2       36.7490    5.4080   15.7860 N.am  147  ASN147     -0.0877
    121  N         32.9880   -2.3620   17.4140 N.3   149  LEU149     -0.1245
    122  CA        32.4890   -3.0830   18.5740 C.3   149  LEU149      0.1561
    123  C         32.3290   -4.5480   18.2320 C.2   149  LEU149      0.2260
    124  O         32.2500   -4.9040   17.0660 O.2   149  LEU149     -0.2867
    125  CB        31.1980   -2.4670   19.0880 C.3   149  LEU149      0.0270
    126  CG        31.3430   -0.9590   19.2530 C.3   149  LEU149      0.0019
    127  CD1       30.0940   -0.3590   19.8590 C.3   149  LEU149      0.0001
    128  CD2       32.5850   -0.6080   20.0870 C.3   149  LEU149      0.0001
    129  N         31.3780    0.9730   14.4480 N.3   159  ALA159     -0.1231
    130  CA        30.6660    2.0470   15.1370 C.3   159  ALA159      0.1694
    131  C         31.1290    3.4080   14.6530 C.2   159  ALA159      0.2592
    132  O         32.1020    3.5150   13.9110 O.2   159  ALA159     -0.2718
    133  CB        30.8710    1.9490   16.6160 C.3   159  ALA159      0.0304
    134  N         30.4080    4.4430   15.0880 N.am  160  ASP160     -0.1974
    135  CA        30.7410    5.8510   14.8010 C.3   160  ASP160      0.1709
    136  C         30.8330    6.2230   13.3320 C.2   160  ASP160      0.2293
    137  O         31.3920    7.2420   12.9930 O.2   160  ASP160     -0.2864
    138  CB        32.0390    6.2660   15.5020 C.3   160  ASP160      0.1436
    139  CG        31.7850    6.9290   16.8550 C.2   160  ASP160      0.3671
    140  OD1       30.9020    6.4440   17.5790 O.co2 160  ASP160     -0.2456
    141  OD2       32.4540    7.9240   17.2050 O.co2 160  ASP160     -0.2456
@<TRIPOS>BOND
     1   137   136    2
     2    34    35    1
     3   136   135    1
     4    37    36    2
     5    36    35    1
     6   132   131    2
     7    35    38    1
     8   129   130    1
     9   131   134   am
    10   131   130    1
    11    56    55   ar
    12   135   134    1
    13   135   138    1
    14    57    55   ar
    15   130   133    1
    16   116   115    2
    17    55    54    1
    18    38    39    1
    19    38    40    1
    20   138   139    1
    21   117   118    1
    22   117   114    1
    23   120   118   am
    24   115   114    1
    25    39    41    1
    26   112   110    1
    27   118   119    2
    28    54    53    1
    29   114   113    1
    30   139   141   ar
    31   139   140   ar
    32   124   123    2
    33   113   104   am
    34   110   111    1
    35   110   109    2
    36   121   122    1
    37    53    50    1
    38    47    46    1
    39    46    43    1
    40    46    48    1
    41   109   108    1
    42   102   103    1
    43   123   122    1
    44    49    50    1
    45    49    44   am
    46    32    33    1
    47    32    31    1
    48    43    44    1
    49    43    42    1
    50   107   108    1
    51   107   106    1
    52   122   125    1
    53   104   103    1
    54   104   105    2
    55    50    51    1
    56   103   106    1
    57    44    45    2
    58   125   126    1
    59   126   127    1
    60   126   128    1
    61    31    30    1
    62    52    51    2
    63    51    58   am
    64    74    71    1
    65    30    29    1
    66    58    59    1
    67    87    86    1
    68    87    88    2
    69    61    60    2
    70    86    89    1
    71    86    85    1
    72    29    26    1
    73    89    90    1
    74    71    70    1
    75    71    72    1
    76    84    83    2
    77    60    70   am
    78    60    59    1
    79    91    90    2
    80    59    62    1
    81    23    22    2
    82    90    92   am
    83    83    85   am
    84    83    82    1
    85    28    27    2
    86    26    25    1
    87    26    27    1
    88    72    75   am
    89    72    73    2
    90    24    21    1
    91    93    94    1
    92    22    21    1
    93    20    21    1
    94    62    63    1
    95    75    76    1
    96    82    81    1
    97    19    17    1
    98    95    94    1
    99    95    96    2
   100    94    97    1
   101    63    64   ar
   102    63    65   ar
   103    80    79    1
   104    18    17    1
   105    76    77    1
   106    76    79    1
   107    64    66   ar
   108    65    67   ar
   109    77    78    2
   110    97    98    1
   111    17    14    1
   112    66    68   ar
   113   100    99   ar
   114    14    13    1
   115    14    15    1
   116    98    99    1
   117    67    68   ar
   118    99   101   ar
   119    68    69    1
   120     7     6    1
   121    15    16    2
   122    12    11    2
   123     5     6    1
   124     5     2    1
   125     6     8    1
   126    11    10    1
   127    10     9    1
   128     9     3   am
   129     3     4    2
   130     3     2    1
   131     2     1    1
