@<TRIPOS>MOLECULE
tmp/4f64A00.pdb
 165 152 0 0 0
SMALL
GASTEIGER

@<TRIPOS>ATOM
      1  N         88.4700    6.5650    5.1760 N.3    21  LEU21      -0.1231
      2  CA        87.3930    5.5970    5.4050 C.3    21  LEU21       0.1693
      3  C         86.1790    6.2660    6.0400 C.2    21  LEU21       0.2592
      4  O         85.0550    5.8050    5.8330 O.2    21  LEU21      -0.2718
      5  CB        87.8760    4.4220    6.2420 C.3    21  LEU21       0.0284
      6  CG        88.7270    3.3740    5.5060 C.3    21  LEU21       0.0019
      7  CD1       89.4630    2.4630    6.5110 C.3    21  LEU21       0.0001
      8  CD2       87.8970    2.5380    4.5270 C.3    21  LEU21       0.0001
      9  N         86.4120    7.3470    6.7910 N.am   22  GLY22      -0.1957
     10  CA        85.3330    8.1290    7.4050 C.3    22  GLY22       0.1869
     11  C         85.6500    8.6820    8.7860 C.2    22  GLY22       0.2309
     12  O         86.8060    8.9710    9.0940 O.2    22  GLY22      -0.2863
     13  N         89.8570    8.3100   10.2380 N.3    24  VAL24      -0.1245
     14  CA        90.3510    6.9690    9.9170 C.3    24  VAL24       0.1561
     15  C         90.6040    6.8130    8.4020 C.2    24  VAL24       0.2260
     16  O         89.7370    7.0820    7.5730 O.2    24  VAL24      -0.2867
     17  CB        89.3690    5.8840   10.3960 C.3    24  VAL24       0.0252
     18  CG1       89.8900    4.4410   10.0710 C.3    24  VAL24       0.0019
     19  CG2       89.1240    6.0440   11.8940 C.3    24  VAL24       0.0019
     20  N         93.7260   -0.1850    8.8680 N.3    40  ALA40      -0.1245
     21  CA        93.0740    1.0970    9.0820 C.3    40  ALA40       0.1562
     22  C         93.9920    1.8990    9.9730 C.2    40  ALA40       0.2260
     23  O         94.6220    1.3280   10.8340 O.2    40  ALA40      -0.2867
     24  CB        91.7160    0.9140    9.7510 C.3    40  ALA40       0.0290
     25  N         94.0260    5.4010   12.4630 N.3    42  LYS42      -0.1245
     26  CA        93.3600    6.5210   13.1420 C.3    42  LYS42       0.1561
     27  C         94.3630    7.6270   13.4610 C.2    42  LYS42       0.2260
     28  O         95.4690    7.3670   13.9630 O.2    42  LYS42      -0.2867
     29  CB        92.6710    6.0380   14.4230 C.3    42  LYS42       0.0271
     30  CG        91.6860    7.0460   15.0240 C.3    42  LYS42       0.0035
     31  CD        90.7060    6.3400   15.9560 C.3    42  LYS42       0.0206
     32  CE        89.8080    7.3150   16.6860 C.3    42  LYS42       0.1093
     33  NZ        89.0450    6.5820   17.7360 N.3    42  LYS42      -0.1314
     34  N         93.1780    5.8370   24.1410 N.3    59  GLU59      -0.1245
     35  CA        92.5340    4.7360   23.4000 C.3    59  GLU59       0.1567
     36  C         93.5790    3.7140   23.0100 C.2    59  GLU59       0.2260
     37  O         93.3810    2.5350   23.1930 O.2    59  GLU59      -0.2867
     38  CB        91.7660    5.2310   22.1620 C.3    59  GLU59       0.0388
     39  CG        90.8920    4.1670   21.5150 C.3    59  GLU59       0.1160
     40  CD        90.2600    4.5730   20.1940 C.2    59  GLU59       0.3649
     41  OE1       90.6230    5.6350   19.6520 O.co2  59  GLU59      -0.2457
     42  OE2       89.3840    3.8200   19.6780 O.co2  59  GLU59      -0.2457
     43  N         94.0050   -0.2840   24.3090 N.3    63  MET63      -0.1245
     44  CA        94.1250   -1.4420   23.3870 C.3    63  MET63       0.1570
     45  C         95.3190   -2.3430   23.7350 C.2    63  MET63       0.2261
     46  O         95.2110   -3.5930   23.7120 O.2    63  MET63      -0.2867
     47  CB        94.1810   -0.9540   21.9390 C.3    63  MET63       0.0387
     48  CG        92.8850   -0.2530   21.5050 C.3    63  MET63       0.0595
     49  SD        92.8190    0.0640   19.7390 S.3    63  MET63      -0.1393
     50  CE        93.3210    1.7370   19.6100 C.3    63  MET63       0.0692
     51  N         88.3750   -5.1310   17.1500 N.3    73  ILE73      -0.1245
     52  CA        89.3340   -4.4640   16.2760 C.3    73  ILE73       0.1561
     53  C         90.6700   -4.3970   17.0280 C.2    73  ILE73       0.2260
     54  O         90.8240   -3.6350   18.0260 O.2    73  ILE73      -0.2867
     55  CB        88.8580   -3.0130   15.8850 C.3    73  ILE73       0.0252
     56  CG1       87.6830   -3.0490   14.8940 C.3    73  ILE73       0.0019
     57  CG2       89.9520   -2.2520   15.2600 C.3    73  ILE73       0.0019
     58  CD1       87.9840   -3.6880   13.5310 C.3    73  ILE73       0.0001
     59  N         97.6860    5.5740   14.8890 N.3    87  VAL87      -0.1245
     60  CA        97.3550    4.3100   15.5370 C.3    87  VAL87       0.1561
     61  C         96.8630    3.3660   14.4770 C.2    87  VAL87       0.2260
     62  O         95.8300    3.6040   13.8450 O.2    87  VAL87      -0.2867
     63  CB        96.2830    4.4190   16.6630 C.3    87  VAL87       0.0252
     64  CG1       96.1670    3.0480   17.4350 C.3    87  VAL87       0.0019
     65  CG2       96.6090    5.5570   17.6070 C.3    87  VAL87       0.0019
     66  N         95.4320   -0.1860   13.1230 N.3    89  VAL89      -0.1231
     67  CA        94.4860   -1.1730   13.6030 C.3    89  VAL89       0.1692
     68  C         93.9550   -2.0090   12.4640 C.2    89  VAL89       0.2592
     69  O         94.1790   -1.6940   11.2880 O.2    89  VAL89      -0.2718
     70  CB        93.2650   -0.5150   14.4090 C.3    89  VAL89       0.0266
     71  CG1       93.7760    0.1880   15.6700 C.3    89  VAL89       0.0020
     72  CG2       92.4130    0.4640   13.5440 C.3    89  VAL89       0.0020
     73  N         93.2950   -3.1140   12.8170 N.am   90  GLU90      -0.1966
     74  CA        92.7630   -4.0170   11.8150 C.3    90  GLU90       0.1733
     75  C         91.7560   -3.3360   10.8980 C.2    90  GLU90       0.2616
     76  O         90.9640   -2.5080   11.3430 O.2    90  GLU90      -0.2715
     77  CB        92.1330   -5.2560   12.4610 C.3    90  GLU90       0.0429
     78  CG        93.1440   -6.1810   13.0110 C.3    90  GLU90       0.1163
     79  CD        92.5520   -7.3910   13.7120 C.2    90  GLU90       0.3649
     80  OE1       91.4560   -7.2740   14.3130 O.co2  90  GLU90      -0.2457
     81  OE2       93.2180   -8.4540   13.6860 O.co2  90  GLU90      -0.2457
     82  N         91.8050   -3.7260    9.6130 N.am   91  TYR91      -0.1960
     83  CA        90.8770   -3.2810    8.5860 C.3    91  TYR91       0.1771
     84  C         89.6950   -4.2490    8.3850 C.2    91  TYR91       0.2619
     85  O         89.8560   -5.4330    8.1280 O.2    91  TYR91      -0.2715
     86  CB        91.6140   -3.0470    7.2400 C.3    91  TYR91       0.0574
     87  CG        90.7390   -2.5870    6.0740 C.ar   91  TYR91      -0.0198
     88  CD1       89.9510   -1.4430    6.1860 C.ar   91  TYR91      -0.0009
     89  CD2       90.7130   -3.2870    4.8570 C.ar   91  TYR91      -0.0009
     90  CE1       89.1250   -0.9890    5.1140 C.ar   91  TYR91       0.0417
     91  CE2       89.8950   -2.8350    3.7670 C.ar   91  TYR91       0.0417
     92  CZ        89.1170   -1.6850    3.9180 C.ar   91  TYR91       0.1957
     93  OH        88.3150   -1.2050    2.8940 O.3    91  TYR91      -0.2866
     94  N         88.5020   -3.6730    8.4860 N.am   92  ALA92      -0.1963
     95  CA        87.2240   -4.3110    8.2450 C.3    92  ALA92       0.1728
     96  C         86.6760   -3.7420    6.9680 C.2    92  ALA92       0.2616
     97  O         86.2130   -2.5810    6.9570 O.2    92  ALA92      -0.2715
     98  CB        86.2690   -4.0020    9.4080 C.3    92  ALA92       0.0334
     99  N         86.7530   -4.5250    5.8900 N.am   93  SER93      -0.1950
    100  CA        86.3930   -4.0270    4.5530 C.3    93  SER93       0.1924
    101  C         84.9000   -3.8350    4.3120 C.2    93  SER93       0.2314
    102  O         84.5190   -2.9820    3.5090 O.2    93  SER93      -0.2863
    103  CB        86.9440   -4.9260    3.4460 C.3    93  SER93       0.2116
    104  OG        86.4220   -6.2410    3.5560 O.3    93  SER93      -0.2180
    105  N         82.6060   -2.7570    6.3690 N.3    95  GLY95      -0.1210
    106  CA        81.9800   -1.6390    7.1030 C.3    95  GLY95       0.1956
    107  C         81.2390   -2.0240    8.3690 C.2    95  GLY95       0.2611
    108  O         81.4120   -3.1140    8.8970 O.2    95  GLY95      -0.2717
    109  N         80.3830   -1.1270    8.8580 N.am   96  ASN96      -0.1974
    110  CA        79.6610   -1.4080   10.1010 C.3    96  ASN96       0.1688
    111  C         78.4720   -2.3660    9.9050 C.2    96  ASN96       0.2292
    112  O         77.9640   -2.5130    8.8120 O.2    96  ASN96      -0.2864
    113  CB        79.3130   -0.1300   10.8430 C.3    96  ASN96       0.1181
    114  CG        78.0980    0.5540   10.3200 C.2    96  ASN96       0.2629
    115  OD1       77.0680   -0.0670   10.0820 O.2    96  ASN96      -0.2716
    116  ND2       78.1900    1.8660   10.1810 N.am   96  ASN96      -0.0877
    117  N         74.8360   -1.1410    8.3790 N.3    99  GLU99      -0.1245
    118  CA        74.8550   -1.0680    6.9350 C.3    99  GLU99       0.1567
    119  C         74.9730   -2.4760    6.2520 C.2    99  GLU99       0.2260
    120  O         74.2650   -2.7860    5.2980 O.2    99  GLU99      -0.2867
    121  CB        76.0250   -0.1720    6.5380 C.3    99  GLU99       0.0388
    122  CG        75.8730    1.2980    7.0320 C.3    99  GLU99       0.1160
    123  CD        77.1400    2.1620    6.8340 C.2    99  GLU99       0.3649
    124  OE1       78.2700    1.5940    6.8200 O.co2  99  GLU99      -0.2457
    125  OE2       77.0060    3.4140    6.7120 O.co2  99  GLU99      -0.2457
    126  N         76.3960   -0.1950   14.9330 N.3   143  ARG143     -0.1231
    127  CA        77.2390    0.7940   14.2910 C.3   143  ARG143      0.1694
    128  C         78.6820    0.7470   14.7620 C.2   143  ARG143      0.2592
    129  O         79.5640    1.3030   14.0970 O.2   143  ARG143     -0.2718
    130  CB        76.7260    2.2290   14.5750 C.3   143  ARG143      0.0321
    131  CG        76.7990    2.6420   16.0470 C.3   143  ARG143      0.0489
    132  CD        76.2400    4.0730   16.3430 C.3   143  ARG143      0.2205
    133  NE        75.9270    4.1970   17.7760 N.pl3 143  ARG143     -0.0865
    134  CZ        74.7060    4.1870   18.3070 C.cat 143  ARG143      0.5346
    135  NH1       73.6200    4.0890   17.5550 N.pl3 143  ARG143      0.1354
    136  NH2       74.5660    4.2670   19.6060 N.pl3 143  ARG143      0.1354
    137  N         78.8850    0.2300   15.9710 N.am  144  ASN144     -0.1974
    138  CA        80.2330    0.0820   16.5430 C.3   144  ASN144      0.1688
    139  C         80.7470   -1.3570   16.4480 C.2   144  ASN144      0.2292
    140  O         81.6540   -1.7410   17.1680 O.2   144  ASN144     -0.2864
    141  CB        80.2460    0.4930   17.9960 C.3   144  ASN144      0.1181
    142  CG        80.0800    1.9640   18.1780 C.2   144  ASN144      0.2629
    143  OD1       80.6490    2.7700   17.4250 O.2   144  ASN144     -0.2716
    144  ND2       79.2910    2.3370   19.1680 N.am  144  ASN144     -0.0877
    145  N         82.2030   -3.7130   13.3480 N.3   146  LEU146     -0.1245
    146  CA        82.6900   -3.6620   11.9970 C.3   146  LEU146      0.1561
    147  C         82.8020   -5.0990   11.4660 C.2   146  LEU146      0.2260
    148  O         82.9870   -6.0370   12.2360 O.2   146  LEU146     -0.2867
    149  CB        84.0250   -2.8900   11.9340 C.3   146  LEU146      0.0270
    150  CG        83.9390   -1.3710   12.1970 C.3   146  LEU146      0.0019
    151  CD1       85.3540   -0.7630   12.4500 C.3   146  LEU146      0.0001
    152  CD2       83.2680   -0.6760   11.0840 C.3   146  LEU146      0.0001
    153  N         84.3050   -2.4530   17.8980 N.3   156  ALA156     -0.1231
    154  CA        85.1080   -1.2500   17.7700 C.3   156  ALA156      0.1694
    155  C         84.7280   -0.2460   18.8460 C.2   156  ALA156      0.2592
    156  O         83.6330   -0.2920   19.4150 O.2   156  ALA156     -0.2718
    157  CB        84.8670   -0.5990   16.3990 C.3   156  ALA156      0.0304
    158  N         85.6320    0.6840   19.1030 N.am  157  ASP157     -0.1974
    159  CA        85.3850    1.8120   20.0420 C.3   157  ASP157      0.1709
    160  C         85.2480    1.3970   21.4990 C.2   157  ASP157      0.2293
    161  O         84.7330    2.1630   22.3120 O.2   157  ASP157     -0.2864
    162  CB        84.1450    2.6150   19.6130 C.3   157  ASP157      0.1436
    163  CG        84.4590    3.6840   18.5830 C.2   157  ASP157      0.3671
    164  OD1       85.4650    3.5580   17.8370 O.co2 157  ASP157     -0.2456
    165  OD2       83.6650    4.6580   18.5360 O.co2 157  ASP157     -0.2456
@<TRIPOS>BOND
     1    93    92    1
     2   103   104    1
     3   103   100    1
     4   102   101    2
     5    91    92   ar
     6    91    89   ar
     7    92    90   ar
     8   101   100    1
     9     8     6    1
    10   100    99    1
    11    89    87   ar
    12    90    88   ar
    13     1     2    1
    14   120   119    2
    15     2     3    1
    16     2     5    1
    17     6     5    1
    18     6     7    1
    19     4     3    2
    20    99    96   am
    21     3     9   am
    22    87    88   ar
    23    87    86    1
    24   119   118    1
    25   105   106    1
    26   121   118    1
    27   121   122    1
    28   125   123   ar
    29     9    10    1
    30   124   123   ar
    31   123   122    1
    32   118   117    1
    33    97    96    2
    34    96    95    1
    35   106   107    1
    36    86    83    1
    37    10    11    1
    38    16    15    2
    39    85    84    2
    40    95    94    1
    41    95    98    1
    42   107   109   am
    43   107   108    2
    44    84    94   am
    45    84    83    1
    46    15    14    1
    47    83    82    1
    48    11    12    2
    49   112   111    2
    50   109   110    1
    51    20    21    1
    52    21    24    1
    53    21    22    1
    54    82    75   am
    55   111   110    1
    56    14    13    1
    57    14    17    1
    58    22    23    2
    59    18    17    1
    60   115   114    2
    61   110   113    1
    62   116   114   am
    63   114   113    1
    64    17    19    1
    65    75    76    2
    66    75    74    1
    67   152   150    1
    68    69    68    2
    69   147   146    1
    70   147   148    2
    71    74    77    1
    72    74    73    1
    73   149   146    1
    74   149   150    1
    75   146   145    1
    76   150   151    1
    77    77    78    1
    78    25    26    1
    79    68    73   am
    80    68    67    1
    81    78    79    1
    82    66    67    1
    83    26    27    1
    84    26    29    1
    85    27    28    2
    86    58    56    1
    87    72    70    1
    88    67    70    1
    89    81    79   ar
    90    79    80   ar
    91    62    61    2
    92   129   128    2
    93   127   130    1
    94   127   128    1
    95   127   126    1
    96    70    71    1
    97    29    30    1
    98    61    60    1
    99   130   131    1
   100   128   137   am
   101    59    60    1
   102    56    55    1
   103    30    31    1
   104    57    55    1
   105    60    63    1
   106    55    52    1
   107    31    32    1
   108   137   138    1
   109   131   132    1
   110    52    53    1
   111    52    51    1
   112   132   133    1
   113   157   154    1
   114   139   138    1
   115   139   140    2
   116   138   141    1
   117    63    64    1
   118    63    65    1
   119    32    33    1
   120    53    54    2
   121   143   142    2
   122   135   134    1
   123   154   153    1
   124   154   155    1
   125   133   134    2
   126   164   163   ar
   127   141   142    1
   128   142   144   am
   129   134   136    1
   130   165   163   ar
   131   163   162    1
   132   155   158   am
   133   155   156    2
   134   158   159    1
   135    50    49    1
   136   162   159    1
   137    41    40   ar
   138    42    40   ar
   139    49    48    1
   140   159   160    1
   141    40    39    1
   142   160   161    2
   143    48    47    1
   144    39    38    1
   145    47    44    1
   146    38    35    1
   147    36    37    2
   148    36    35    1
   149    44    45    1
   150    44    43    1
   151    35    34    1
   152    46    45    2
