@<TRIPOS>MOLECULE
tmp/4f64B00.pdb
 165 152 0 0 0
SMALL
GASTEIGER

@<TRIPOS>ATOM
      1  N         27.2880    2.8970   29.4300 N.3    24  LEU24      -0.1231
      2  CA        28.3050    2.1170   28.7290 C.3    24  LEU24       0.1693
      3  C         29.5210    2.9760   28.4920 C.2    24  LEU24       0.2592
      4  O         30.6440    2.5030   28.6090 O.2    24  LEU24      -0.2718
      5  CB        27.7700    1.5660   27.4100 C.3    24  LEU24       0.0284
      6  CG        26.7150    0.4620   27.5650 C.3    24  LEU24       0.0019
      7  CD1       26.0550    0.1350   26.2420 C.3    24  LEU24       0.0001
      8  CD2       27.3100   -0.7870   28.1980 C.3    24  LEU24       0.0001
      9  N         29.2940    4.2380   28.1670 N.am   25  GLY25      -0.1957
     10  CA        30.3780    5.1850   27.9050 C.3    25  GLY25       0.1869
     11  C         29.8440    6.5580   27.5200 C.2    25  GLY25       0.2309
     12  O         28.6710    6.6890   27.1480 O.2    25  GLY25      -0.2863
     13  N         26.3120    7.0890   26.0930 N.3    32  VAL32      -0.1245
     14  CA        25.7080    5.8270   25.7020 C.3    32  VAL32       0.1561
     15  C         25.3640    4.9550   26.9260 C.2    32  VAL32       0.2260
     16  O         26.1970    4.7080   27.7950 O.2    32  VAL32      -0.2867
     17  CB        26.6290    5.0320   24.7470 C.3    32  VAL32       0.0252
     18  CG1       25.9640    3.6960   24.2970 C.3    32  VAL32       0.0019
     19  CG2       27.0120    5.8740   23.5250 C.3    32  VAL32       0.0019
     20  N         21.5200   -0.5460   22.9810 N.3    48  ALA48      -0.1245
     21  CA        22.3180    0.5690   23.4750 C.3    48  ALA48       0.1562
     22  C         21.5800    1.8410   23.0770 C.2    48  ALA48       0.2260
     23  O         20.9790    1.8820   22.0270 O.2    48  ALA48      -0.2867
     24  CB        23.6690    0.5740   22.8970 C.3    48  ALA48       0.0290
     25  N         21.9220    6.0610   22.7060 N.3    50  LYS50      -0.1245
     26  CA        22.7660    7.2200   22.6630 C.3    50  LYS50       0.1561
     27  C         21.8810    8.4610   22.8400 C.2    50  LYS50       0.2260
     28  O         20.7890    8.5660   22.2660 O.2    50  LYS50      -0.2867
     29  CB        23.5740    7.3040   21.3560 C.3    50  LYS50       0.0271
     30  CG        24.4480    8.6110   21.2670 C.3    50  LYS50       0.0035
     31  CD        25.4560    8.5300   20.0850 C.3    50  LYS50       0.0206
     32  CE        26.6210    9.5550   20.1760 C.3    50  LYS50       0.1093
     33  NZ        27.5230    9.5160   18.9700 N.3    50  LYS50      -0.1314
     34  N         23.3550   12.3620   12.8370 N.3    67  GLU67      -0.1245
     35  CA        23.8350   10.9820   12.9600 C.3    67  GLU67       0.1567
     36  C         22.7140    9.9670   12.7690 C.2    67  GLU67       0.2260
     37  O         22.8740    8.9740   12.0490 O.2    67  GLU67      -0.2867
     38  CB        24.5060   10.7540   14.3170 C.3    67  GLU67       0.0388
     39  CG        25.1980    9.4110   14.4290 C.3    67  GLU67       0.1160
     40  CD        25.9990    9.1920   15.7090 C.2    67  GLU67       0.3649
     41  OE1       25.9970   10.0620   16.6090 O.co2  67  GLU67      -0.2457
     42  OE2       26.6400    8.1010   15.8030 O.co2  67  GLU67      -0.2457
     43  N         22.1920    7.1540    9.6550 N.3    71  MET71      -0.1245
     44  CA        21.9050    5.7610    9.9140 C.3    71  MET71       0.1570
     45  C         20.6660    5.2800    9.1510 C.2    71  MET71       0.2261
     46  O         20.6750    4.1850    8.6020 O.2    71  MET71      -0.2867
     47  CB        21.7570    5.5190   11.4010 C.3    71  MET71       0.0387
     48  CG        23.0820    5.4850   12.0760 C.3    71  MET71       0.0595
     49  SD        22.9390    5.4190   13.8330 S.3    71  MET71      -0.1393
     50  CE        23.1460    3.6850   14.1150 C.3    71  MET71       0.0692
     51  N         26.9580   -1.3060   13.3580 N.3    81  ILE81      -0.1245
     52  CA        25.9990   -1.0170   14.4280 C.3    81  ILE81       0.1561
     53  C         24.7280   -0.4350   13.8010 C.2    81  ILE81       0.2260
     54  O         24.7550    0.6770   13.2430 O.2    81  ILE81      -0.2867
     55  CB        26.5730    0.0400   15.4660 C.3    81  ILE81       0.0252
     56  CG1       27.7500   -0.5380   16.2550 C.3    81  ILE81       0.0019
     57  CG2       25.5090    0.5150   16.4180 C.3    81  ILE81       0.0019
     58  CD1       27.4350   -1.7440   17.1010 C.3    81  ILE81       0.0001
     59  N         18.5350    7.7390   20.6880 N.3    95  VAL95      -0.1245
     60  CA        18.8150    7.0900   19.4310 C.3    95  VAL95       0.1561
     61  C         19.1490    5.6750   19.8140 C.2    95  VAL95       0.2260
     62  O         20.2050    5.4320   20.3860 O.2    95  VAL95      -0.2867
     63  CB        19.9980    7.7700   18.7060 C.3    95  VAL95       0.0252
     64  CG1       20.3590    7.0310   17.4360 C.3    95  VAL95       0.0019
     65  CG2       19.6150    9.1980   18.3630 C.3    95  VAL95       0.0019
     66  N         20.1090    1.7740   19.2190 N.3    97  VAL97      -0.1231
     67  CA        20.9820    1.0950   18.2790 C.3    97  VAL97       0.1692
     68  C         21.3960   -0.2310   18.8990 C.2    97  VAL97       0.2592
     69  O         21.1940   -0.4400   20.0870 O.2    97  VAL97      -0.2718
     70  CB        22.2790    1.9160   17.9140 C.3    97  VAL97       0.0266
     71  CG1       21.9630    3.2280   17.3290 C.3    97  VAL97       0.0020
     72  CG2       23.1690    2.1030   19.0930 C.3    97  VAL97       0.0020
     73  N         22.0050   -1.0930   18.0970 N.am   98  GLU98      -0.1966
     74  CA        22.3840   -2.4490   18.5440 C.3    98  GLU98       0.1733
     75  C         23.4120   -2.4850   19.6630 C.2    98  GLU98       0.2616
     76  O         24.3350   -1.6700   19.6860 O.2    98  GLU98      -0.2715
     77  CB        22.9560   -3.2470   17.3590 C.3    98  GLU98       0.0429
     78  CG        21.8870   -3.8200   16.4830 C.3    98  GLU98       0.1163
     79  CD        22.3870   -4.3260   15.1900 C.2    98  GLU98       0.3649
     80  OE1       23.4880   -3.9190   14.7460 O.co2  98  GLU98      -0.2457
     81  OE2       21.6450   -5.1400   14.6060 O.co2  98  GLU98      -0.2457
     82  N         23.2830   -3.4710   20.5530 N.am   99  TYR99      -0.1960
     83  CA        24.2060   -3.6520   21.6670 C.3    99  TYR99       0.1771
     84  C         25.2390   -4.7280   21.3850 C.2    99  TYR99       0.2619
     85  O         24.9100   -5.8830   21.0580 O.2    99  TYR99      -0.2715
     86  CB        23.4360   -3.9720   22.9450 C.3    99  TYR99       0.0574
     87  CG        24.2920   -4.3060   24.1420 C.ar   99  TYR99      -0.0198
     88  CD1       25.2810   -3.4430   24.5680 C.ar   99  TYR99      -0.0009
     89  CD2       24.1050   -5.5030   24.8490 C.ar   99  TYR99      -0.0009
     90  CE1       26.0680   -3.7440   25.6660 C.ar   99  TYR99       0.0417
     91  CE2       24.8940   -5.8300   25.9600 C.ar   99  TYR99       0.0417
     92  CZ        25.8720   -4.9480   26.3570 C.ar   99  TYR99       0.1957
     93  OH        26.6570   -5.2290   27.4490 O.3    99  TYR99      -0.2866
     94  N         26.4920   -4.3470   21.5710 N.am  100  ALA100     -0.1963
     95  CA        27.6350   -5.2080   21.3740 C.3   100  ALA100      0.1728
     96  C         28.2970   -5.4220   22.7240 C.2   100  ALA100      0.2616
     97  O         29.0510   -4.5880   23.1920 O.2   100  ALA100     -0.2715
     98  CB        28.5990   -4.5760   20.4100 C.3   100  ALA100      0.0334
     99  N         28.0360   -6.5760   23.3130 N.am  101  SER101     -0.1950
    100  CA        28.3490   -6.8310   24.7230 C.3   101  SER101      0.1924
    101  C         29.8330   -6.9360   25.0470 C.2   101  SER101      0.2314
    102  O         30.2250   -6.7340   26.1960 O.2   101  SER101     -0.2863
    103  CB        27.6500   -8.1100   25.1640 C.3   101  SER101      0.2116
    104  OG        28.1880   -9.2090   24.4630 O.3   101  SER101     -0.2180
    105  N         32.3900   -5.1070   23.8230 N.3   103  GLY103     -0.1210
    106  CA        33.1150   -3.8410   23.7860 C.3   103  GLY103      0.1956
    107  C         33.9630   -3.7120   22.5330 C.2   103  GLY103      0.2611
    108  O         33.7400   -4.4260   21.5590 O.2   103  GLY103     -0.2717
    109  N         34.9350   -2.7950   22.5490 N.am  104  ASN104     -0.1974
    110  CA        35.7020   -2.5000   21.3520 C.3   104  ASN104      0.1688
    111  C         36.7410   -3.5480   21.0560 C.2   104  ASN104      0.2292
    112  O         37.1860   -4.2750   21.9420 O.2   104  ASN104     -0.2864
    113  CB        36.2970   -1.0920   21.3800 C.3   104  ASN104      0.1181
    114  CG        37.4740   -0.9460   22.3360 C.2   104  ASN104      0.2629
    115  OD1       38.5440   -1.5220   22.1290 O.2   104  ASN104     -0.2716
    116  ND2       37.2860   -0.1470   23.3650 N.am  104  ASN104     -0.0877
    117  N         40.3300   -3.6780   23.0770 N.3   107  GLU107     -0.1245
    118  CA        40.1790   -4.4170   24.3300 C.3   107  GLU107      0.1567
    119  C         39.9550   -5.9350   24.1190 C.2   107  GLU107      0.2260
    120  O         40.6310   -6.7780   24.7210 O.2   107  GLU107     -0.2867
    121  CB        39.0050   -3.8170   25.1240 C.3   107  GLU107      0.0388
    122  CG        39.3670   -2.5170   25.8620 C.3   107  GLU107      0.1160
    123  CD        38.1660   -1.5850   26.0460 C.2   107  GLU107      0.3649
    124  OE1       37.0190   -2.0120   25.7340 O.co2 107  GLU107     -0.2457
    125  OE2       38.3600   -0.4220   26.4970 O.co2 107  GLU107     -0.2457
    126  N         39.4010    0.8540   17.9960 N.3   147  ARG147     -0.1231
    127  CA        38.5610    1.4700   19.0400 C.3   147  ARG147      0.1694
    128  C         37.1070    1.7340   18.5940 C.2   147  ARG147      0.2592
    129  O         36.2360    1.8550   19.4540 O.2   147  ARG147     -0.2718
    130  CB        39.1920    2.7590   19.5980 C.3   147  ARG147      0.0321
    131  CG        39.2990    3.9110   18.5970 C.3   147  ARG147      0.0489
    132  CD        39.9570    5.2120   19.1190 C.3   147  ARG147      0.2205
    133  NE        40.3710    5.9800   17.9420 N.pl3 147  ARG147     -0.0865
    134  CZ        41.5430    5.8530   17.3190 C.cat 147  ARG147      0.5346
    135  NH1       42.5000    5.0430   17.7730 N.pl3 147  ARG147      0.1354
    136  NH2       41.7690    6.5410   16.2320 N.pl3 147  ARG147      0.1354
    137  N         36.8570    1.8120   17.2670 N.am  148  ASN148     -0.1974
    138  CA        35.5360    2.0940   16.6820 C.3   148  ASN148      0.1688
    139  C         34.8900    0.8860   16.0110 C.2   148  ASN148      0.2292
    140  O         34.0080    1.0030   15.1720 O.2   148  ASN148     -0.2864
    141  CB        35.6580    3.2440   15.6960 C.3   148  ASN148      0.1181
    142  CG        35.9530    4.5470   16.3910 C.2   148  ASN148      0.2629
    143  OD1       35.4860    4.7610   17.5140 O.2   148  ASN148     -0.2716
    144  ND2       36.7350    5.4190   15.7530 N.am  148  ASN148     -0.0877
    145  N         32.9950   -2.4700   17.4040 N.3   150  LEU150     -0.1245
    146  CA        32.4340   -3.1150   18.5790 C.3   150  LEU150      0.1561
    147  C         32.2330   -4.6040   18.2700 C.2   150  LEU150      0.2260
    148  O         32.0890   -4.9760   17.1190 O.2   150  LEU150     -0.2867
    149  CB        31.1320   -2.4330   18.9860 C.3   150  LEU150      0.0270
    150  CG        31.2650   -0.9530   19.3790 C.3   150  LEU150      0.0019
    151  CD1       29.9160   -0.3200   19.7180 C.3   150  LEU150      0.0001
    152  CD2       32.2290   -0.8030   20.5620 C.3   150  LEU150      0.0001
    153  N         31.2560    1.0340   14.2670 N.3   160  ALA160     -0.1231
    154  CA        30.4900    2.0420   14.9720 C.3   160  ALA160      0.1694
    155  C         31.0780    3.4190   14.6640 C.2   160  ALA160      0.2592
    156  O         32.2210    3.5210   14.2080 O.2   160  ALA160     -0.2718
    157  CB        30.5680    1.7950   16.4530 C.3   160  ALA160      0.0304
    158  N         30.2970    4.4520   14.9670 N.am  161  ASP161     -0.1974
    159  CA        30.6770    5.8670   14.7780 C.3   161  ASP161      0.1709
    160  C         30.8800    6.2340   13.3130 C.2   161  ASP161      0.2293
    161  O         31.6660    7.1030   13.0150 O.2   161  ASP161     -0.2864
    162  CB        31.9430    6.2590   15.5790 C.3   161  ASP161      0.1436
    163  CG        31.7130    6.3420   17.0770 C.2   161  ASP161      0.3671
    164  OD1       30.5850    6.0280   17.5580 O.co2 161  ASP161     -0.2456
    165  OD2       32.6880    6.7310   17.7850 O.co2 161  ASP161     -0.2456
@<TRIPOS>BOND
     1    46    45    2
     2    45    44    1
     3    43    44    1
     4    44    47    1
     5    47    48    1
     6    37    36    2
     7    48    49    1
     8    36    35    1
     9    34    35    1
    10    35    38    1
    11   161   160    2
    12    54    53    2
    13   160   159    1
    14    51    52    1
    15    53    52    1
    16    49    50    1
    17   156   155    2
    18   153   154    1
    19    38    39    1
    20    52    55    1
    21    39    40    1
    22    81    79   ar
    23   155   158   am
    24   155   154    1
    25    80    79   ar
    26   159   158    1
    27   159   162    1
    28   154   157    1
    29   140   139    2
    30    79    78    1
    31    55    56    1
    32    55    57    1
    33   162   163    1
    34   141   142    1
    35   141   138    1
    36    40    42   ar
    37    40    41   ar
    38   144   142   am
    39   139   138    1
    40   136   134    1
    41    56    58    1
    42   142   143    2
    43    78    77    1
    44   138   137    1
    45   163   164   ar
    46   163   165   ar
    47   148   147    2
    48   137   128   am
    49   134   135    1
    50   134   133    2
    51    71    70    1
    52    77    74    1
    53   145   146    1
    54    64    63    1
    55    70    67    1
    56    70    72    1
    57   133   132    1
    58   126   127    1
    59    73    74    1
    60    73    68   am
    61   147   146    1
    62    67    68    1
    63    67    66    1
    64    65    63    1
    65    74    75    1
    66   146   149    1
    67   128   127    1
    68   128   129    2
    69   131   132    1
    70   131   130    1
    71    63    60    1
    72    68    69    2
    73    33    32    1
    74   149   150    1
    75   127   130    1
    76   150   151    1
    77   150   152    1
    78    60    61    1
    79    60    59    1
    80    75    76    2
    81    75    82   am
    82    61    62    2
    83    31    32    1
    84    31    30    1
    85    98    95    1
    86    82    83    1
    87   111   110    1
    88   111   112    2
    89    85    84    2
    90    30    29    1
    91   110   113    1
    92   110   109    1
    93    29    26    1
    94    95    94    1
    95    95    96    1
    96   113   114    1
    97    84    94   am
    98    84    83    1
    99   108   107    2
   100    83    86    1
   101    23    22    2
   102   115   114    2
   103    28    27    2
   104   114   116   am
   105   107   109   am
   106   107   106    1
   107    26    25    1
   108    26    27    1
   109    96    97    2
   110    96    99   am
   111    24    21    1
   112    86    87    1
   113    20    21    1
   114   117   118    1
   115    22    21    1
   116    99   100    1
   117    19    17    1
   118   106   105    1
   119   119   118    1
   120   119   120    2
   121    87    88   ar
   122    87    89   ar
   123    18    17    1
   124   118   121    1
   125   104   103    1
   126    88    90   ar
   127   100   101    1
   128   100   103    1
   129    17    14    1
   130    89    91   ar
   131   101   102    2
   132   121   122    1
   133    90    92   ar
   134    14    13    1
   135    14    15    1
   136   124   123   ar
   137   122   123    1
   138    91    92   ar
   139   123   125   ar
   140     7     6    1
   141    92    93    1
   142    15    16    2
   143    12    11    2
   144     5     6    1
   145     5     2    1
   146    11    10    1
   147     6     8    1
   148    10     9    1
   149     9     3   am
   150     3     4    2
   151     3     2    1
   152     2     1    1
