@<TRIPOS>MOLECULE
tmp/4f65B00.pdb
 186 173 0 0 0
SMALL
GASTEIGER

@<TRIPOS>ATOM
      1  N         56.1550   -1.8160   39.9740 N.3    25  LEU25      -0.1231
      2  CA        55.6620   -1.0270   38.8330 C.3    25  LEU25       0.1693
      3  C         54.7780   -1.8720   37.9360 C.2    25  LEU25       0.2593
      4  O         53.7600   -1.3940   37.4380 O.2    25  LEU25      -0.2718
      5  CB        56.8020   -0.3840   38.0240 C.3    25  LEU25       0.0284
      6  CG        57.5150    0.8170   38.6770 C.3    25  LEU25       0.0019
      7  CD1       58.7480    1.2230   37.8790 C.3    25  LEU25       0.0001
      8  CD2       56.5710    2.0140   38.8610 C.3    25  LEU25       0.0001
      9  N         55.1600   -3.1330   37.7790 N.am   26  GLY26      -0.1942
     10  CA        54.4300   -4.1030   36.9760 C.3    26  GLY26       0.2014
     11  C         55.3240   -5.2060   36.4720 C.2    26  GLY26       0.2639
     12  O         56.5290   -5.2160   36.7470 O.2    26  GLY26      -0.2714
     13  N         54.7340   -6.1350   35.7310 N.am   27  GLU27      -0.1963
     14  CA        55.4750   -7.2280   35.1160 C.3    27  GLU27       0.1733
     15  C         56.1100   -6.7100   33.8240 C.2    27  GLU27       0.2617
     16  O         55.5970   -5.7810   33.1920 O.2    27  GLU27      -0.2715
     17  CB        54.5530   -8.4330   34.8360 C.3    27  GLU27       0.0429
     18  CG        55.3230   -9.7390   34.7320 C.3    27  GLU27       0.1163
     19  CD        54.5490  -11.0260   34.9370 C.2    27  GLU27       0.3649
     20  OE1       54.2440  -11.7000   33.9250 O.co2  27  GLU27      -0.2457
     21  OE2       54.2950  -11.3860   36.1100 O.co2  27  GLU27      -0.2457
     22  N         57.2590   -7.2730   33.5010 N.am   28  GLY28      -0.1940
     23  CA        58.0120   -6.9970   32.2880 C.3    28  GLY28       0.2014
     24  C         58.5000   -8.3100   31.7120 C.2    28  GLY28       0.2638
     25  O         58.2480   -9.3730   32.2920 O.2    28  GLY28      -0.2714
     26  N         59.1980   -8.2680   30.5740 N.am   29  ALA29      -0.1977
     27  CA        59.7500   -9.4960   29.9860 C.3    29  ALA29       0.1597
     28  C         60.7900  -10.0790   30.9500 C.2    29  ALA29       0.2287
     29  O         61.6280   -9.3350   31.4720 O.2    29  ALA29      -0.2864
     30  CB        60.4020   -9.1960   28.6340 C.3    29  ALA29       0.0319
     31  N         59.1980   -5.7780   37.6210 N.3    33  VAL33      -0.1245
     32  CA        59.8160   -4.4620   37.6620 C.3    33  VAL33       0.1561
     33  C         59.3070   -3.6840   38.8730 C.2    33  VAL33       0.2260
     34  O         58.0940   -3.5900   39.0980 O.2    33  VAL33      -0.2867
     35  CB        59.6190   -3.6830   36.3230 C.3    33  VAL33       0.0252
     36  CG1       60.3780   -2.3400   36.3240 C.3    33  VAL33       0.0019
     37  CG2       60.0200   -4.5420   35.1110 C.3    33  VAL33       0.0019
     38  N         64.2980    2.0430   37.7240 N.3    50  ALA50      -0.1245
     39  CA        63.4580    0.8480   37.6160 C.3    50  ALA50       0.1562
     40  C         64.3920   -0.3360   37.8010 C.2    50  ALA50       0.2260
     41  O         65.5250   -0.3170   37.3180 O.2    50  ALA50      -0.2867
     42  CB        62.8030    0.7630   36.2470 C.3    50  ALA50       0.0290
     43  N         64.5530   -4.5440   37.3700 N.3    52  LYS52      -0.1245
     44  CA        63.9720   -5.7970   36.9170 C.3    52  LYS52       0.1561
     45  C         64.6480   -6.9120   37.6720 C.2    52  LYS52       0.2260
     46  O         65.8720   -6.9140   37.8400 O.2    52  LYS52      -0.2867
     47  CB        64.1110   -6.0030   35.3900 C.3    52  LYS52       0.0271
     48  CG        63.2740   -7.1860   34.8720 C.3    52  LYS52       0.0035
     49  CD        63.4260   -7.3990   33.3920 C.3    52  LYS52       0.0206
     50  CE        62.4420   -6.5740   32.6020 C.3    52  LYS52       0.1093
     51  NZ        62.6530   -6.7470   31.1370 N.3    52  LYS52      -0.1314
     52  N         69.4060  -10.5280   28.5720 N.3    69  GLU69      -0.1245
     53  CA        68.8450   -9.1950   28.3170 C.3    69  GLU69       0.1567
     54  C         69.7810   -8.1050   28.8820 C.2    69  GLU69       0.2260
     55  O         70.0250   -7.0930   28.2140 O.2    69  GLU69      -0.2867
     56  CB        67.4150   -9.0560   28.8620 C.3    69  GLU69       0.0388
     57  CG        66.7540   -7.7400   28.4410 C.3    69  GLU69       0.1160
     58  CD        65.4560   -7.3570   29.1160 C.2    69  GLU69       0.3649
     59  OE1       65.2570   -7.7290   30.2940 O.co2  69  GLU69      -0.2457
     60  OE2       64.6520   -6.6410   28.4790 O.co2  69  GLU69      -0.2457
     61  N         71.9240   -5.3060   26.6950 N.3    73  MET73      -0.1245
     62  CA        71.8470   -3.8800   27.0450 C.3    73  MET73       0.1570
     63  C         73.2370   -3.2400   27.2650 C.2    73  MET73       0.2261
     64  O         73.4240   -2.0900   26.8780 O.2    73  MET73      -0.2867
     65  CB        70.9110   -3.6450   28.2320 C.3    73  MET73       0.0387
     66  CG        69.4540   -3.9050   27.8940 C.3    73  MET73       0.0595
     67  SD        68.4300   -3.8660   29.3570 S.3    73  MET73      -0.1393
     68  CE        68.1750   -2.0300   29.4940 C.3    73  MET73       0.0692
     69  N         65.3450    2.6540   26.7160 N.3    83  ILE83      -0.1245
     70  CA        65.4960    2.4700   28.1550 C.3    83  ILE83       0.1561
     71  C         66.9580    2.0130   28.3420 C.2    83  ILE83       0.2260
     72  O         67.3590    0.9650   27.8210 O.2    83  ILE83      -0.2867
     73  CB        64.4760    1.4280   28.6830 C.3    83  ILE83       0.0252
     74  CG1       63.0340    2.0250   28.7650 C.3    83  ILE83       0.0019
     75  CG2       64.9540    0.8040   30.0270 C.3    83  ILE83       0.0019
     76  CD1       62.7460    3.0850   29.9040 C.3    83  ILE83       0.0001
     77  N         68.5130   -5.9240   37.6680 N.3    97  VAL97      -0.1245
     78  CA        68.9440   -5.2360   36.4330 C.3    97  VAL97       0.1561
     79  C         68.3610   -3.8200   36.5670 C.2    97  VAL97       0.2260
     80  O         67.1460   -3.6480   36.4980 O.2    97  VAL97      -0.2867
     81  CB        68.4990   -5.9720   35.1340 C.3    97  VAL97       0.0252
     82  CG1       68.9880   -5.2380   33.8850 C.3    97  VAL97       0.0019
     83  CG2       68.9860   -7.4110   35.1180 C.3    97  VAL97       0.0019
     84  N         67.7690    0.0140   35.5260 N.3    99  VAL99      -0.1231
     85  CA        67.6000    0.7680   34.2830 C.3    99  VAL99       0.1692
     86  C         66.8650    2.0970   34.5410 C.2    99  VAL99       0.2592
     87  O         66.3940    2.3640   35.6610 O.2    99  VAL99      -0.2718
     88  CB        66.8530   -0.0970   33.2230 C.3    99  VAL99       0.0266
     89  CG1       67.4600   -1.4950   33.0860 C.3    99  VAL99       0.0020
     90  CG2       65.3600   -0.1890   33.5270 C.3    99  VAL99       0.0020
     91  N         66.7120    2.9020   33.4940 N.am  100  GLU100     -0.1966
     92  CA        66.0140    4.1820   33.5860 C.3   100  GLU100      0.1733
     93  C         64.5450    4.0510   33.9650 C.2   100  GLU100      0.2616
     94  O         63.8750    3.1040   33.5560 O.2   100  GLU100     -0.2715
     95  CB        66.1510    4.9520   32.2890 C.3   100  GLU100      0.0429
     96  CG        67.5560    5.4810   32.0720 C.3   100  GLU100      0.1163
     97  CD        67.7420    6.0990   30.7070 C.2   100  GLU100      0.3649
     98  OE1       67.1670    5.5710   29.7300 O.co2 100  GLU100     -0.2457
     99  OE2       68.4940    7.0910   30.6120 O.co2 100  GLU100     -0.2457
    100  N         64.0600    4.9940   34.7700 N.am  101  TYR101     -0.1960
    101  CA        62.6550    5.0090   35.1960 C.3   101  TYR101      0.1771
    102  C         61.8630    5.9550   34.2960 C.2   101  TYR101      0.2619
    103  O         62.2570    7.1130   34.1170 O.2   101  TYR101     -0.2715
    104  CB        62.5330    5.4050   36.6850 C.3   101  TYR101      0.0574
    105  CG        61.1180    5.6860   37.1590 C.ar  101  TYR101     -0.0198
    106  CD1       60.1070    4.7400   37.0050 C.ar  101  TYR101     -0.0009
    107  CD2       60.8120    6.8570   37.8470 C.ar  101  TYR101     -0.0009
    108  CE1       58.8080    4.9910   37.4390 C.ar  101  TYR101      0.0417
    109  CE2       59.5220    7.1040   38.3160 C.ar  101  TYR101      0.0417
    110  CZ        58.5260    6.1600   38.1200 C.ar  101  TYR101      0.1957
    111  OH        57.2440    6.3910   38.5590 O.3   101  TYR101     -0.2866
    112  N         60.7740    5.4340   33.7000 N.am  102  ALA102     -0.1963
    113  CA        59.8520    6.1690   32.8190 C.3   102  ALA102      0.1728
    114  C         58.5460    6.2790   33.5740 C.2   102  ALA102      0.2616
    115  O         57.7550    5.3300   33.5790 O.2   102  ALA102     -0.2715
    116  CB        59.6380    5.3990   31.5280 C.3   102  ALA102      0.0334
    117  N         58.3790    7.3940   34.3020 N.am  103  SER103     -0.1950
    118  CA        57.2410    7.6340   35.1980 C.3   103  SER103      0.1924
    119  C         55.8580    7.6530   34.5860 C.2   103  SER103      0.2314
    120  O         54.8980    7.3860   35.3080 O.2   103  SER103     -0.2863
    121  CB        57.4610    8.8960   36.0230 C.3   103  SER103      0.2116
    122  OG        57.3330   10.0460   35.2060 O.3   103  SER103     -0.2180
    123  N         54.5360    5.7260   32.2340 N.3   105  GLY105     -0.1210
    124  CA        54.1300    4.4160   31.7430 C.3   105  GLY105      0.1956
    125  C         54.2700    4.2240   30.2550 C.2   105  GLY105      0.2611
    126  O         54.9870    4.9780   29.5940 O.2   105  GLY105     -0.2717
    127  N         53.5990    3.1940   29.7200 N.am  106  ASN106     -0.1974
    128  CA        53.6740    2.8780   28.3090 C.3   106  ASN106      0.1688
    129  C         52.9720    3.9200   27.4220 C.2   106  ASN106      0.2292
    130  O         52.0880    4.6450   27.8990 O.2   106  ASN106     -0.2864
    131  CB        53.2880    1.4180   28.0110 C.3   106  ASN106      0.1181
    132  CG        51.8180    1.1340   27.9470 C.2   106  ASN106      0.2629
    133  OD1       51.0560    1.7450   27.1820 O.2   106  ASN106     -0.2716
    134  ND2       51.4000    0.1630   28.7290 N.am  106  ASN106     -0.0877
    135  N         48.9070    3.6620   26.9140 N.3   109  GLU109     -0.1245
    136  CA        48.2230    4.2090   28.0960 C.3   109  GLU109      0.1567
    137  C         48.3870    5.7180   28.2320 C.2   109  GLU109      0.2260
    138  O         47.4610    6.3930   28.6600 O.2   109  GLU109     -0.2867
    139  CB        48.6820    3.4840   29.3740 C.3   109  GLU109      0.0388
    140  CG        48.2850    2.0160   29.3870 C.3   109  GLU109      0.1160
    141  CD        48.5270    1.2750   30.6860 C.2   109  GLU109      0.3649
    142  OE1       49.6740    1.3090   31.1880 O.co2 109  GLU109     -0.2457
    143  OE2       47.5770    0.6240   31.1800 O.co2 109  GLU109     -0.2457
    144  N         52.7760   -0.2060   23.3040 N.3   150  ARG150     -0.1231
    145  CA        52.8820   -0.8340   24.6300 C.3   150  ARG150      0.1694
    146  C         54.3560   -1.0640   25.0110 C.2   150  ARG150      0.2592
    147  O         54.6780   -1.1570   26.1980 O.2   150  ARG150     -0.2718
    148  CB        52.1000   -2.1800   24.6930 C.3   150  ARG150      0.0321
    149  CG        52.6240   -3.2450   23.7180 C.3   150  ARG150      0.0489
    150  CD        51.8510   -4.5600   23.6990 C.3   150  ARG150      0.2205
    151  NE        52.4420   -5.4670   22.7080 N.pl3 150  ARG150     -0.0865
    152  CZ        51.9960   -5.6430   21.4620 C.cat 150  ARG150      0.5346
    153  NH1       50.8930   -5.0270   21.0470 N.pl3 150  ARG150      0.1354
    154  NH2       52.6370   -6.4570   20.6320 N.pl3 150  ARG150      0.1354
    155  N         55.2420   -1.1490   24.0010 N.am  151  ASN151     -0.1974
    156  CA        56.6710   -1.4000   24.1970 C.3   151  ASN151      0.1688
    157  C         57.4930   -0.1290   24.2150 C.2   151  ASN151      0.2292
    158  O         58.7200   -0.1870   24.1590 O.2   151  ASN151     -0.2864
    159  CB        57.2090   -2.4640   23.2080 C.3   151  ASN151      0.1181
    160  CG        56.6200   -3.8520   23.4710 C.2   151  ASN151      0.2629
    161  OD1       56.5760   -4.3550   24.6060 O.2   151  ASN151     -0.2716
    162  ND2       56.0930   -4.4880   22.4430 N.am  151  ASN151     -0.0877
    163  N         58.0150    3.4120   26.4920 N.3   153  LEU153     -0.1245
    164  CA        57.7760    4.0030   27.7950 C.3   153  LEU153      0.1561
    165  C         57.9980    5.4960   27.7210 C.2   153  LEU153      0.2260
    166  O         58.7860    5.9480   26.8950 O.2   153  LEU153     -0.2867
    167  CB        58.6620    3.3320   28.8650 C.3   153  LEU153      0.0270
    168  CG        58.2840    1.8710   29.2440 C.3   153  LEU153      0.0019
    169  CD1       59.4450    1.1770   29.9060 C.3   153  LEU153      0.0001
    170  CD2       57.0620    1.8230   30.1710 C.3   153  LEU153      0.0001
    171  N         61.3830   -0.0130   24.9250 N.3   163  ALA163     -0.1245
    172  CA        61.6780   -0.9970   25.9610 C.3   163  ALA163      0.1562
    173  C         61.8840   -2.4430   25.4570 C.2   163  ALA163      0.2260
    174  O         61.7360   -3.4010   26.2130 O.2   163  ALA163     -0.2867
    175  CB        60.6390   -0.9200   27.0680 C.3   163  ALA163      0.0290
    176  N         64.8010   -4.9620   23.2250 N.3   165  PHE165     -0.1241
    177  CA        66.1330   -5.0880   22.6380 C.3   165  PHE165      0.1605
    178  C         66.2530   -6.4510   21.9140 C.2   165  PHE165      0.2264
    179  O         65.2300   -7.0260   21.5170 O.2   165  PHE165     -0.2867
    180  CB        67.2030   -4.8610   23.7500 C.3   165  PHE165      0.0534
    181  CG        66.9100   -3.6740   24.6500 C.ar  165  PHE165     -0.0203
    182  CD1       67.2360   -2.3780   24.2500 C.ar  165  PHE165     -0.0042
    183  CD2       66.2440   -3.8470   25.8650 C.ar  165  PHE165     -0.0042
    184  CE1       66.8990   -1.2810   25.0420 C.ar  165  PHE165     -0.0003
    185  CE2       65.8900   -2.7490   26.6490 C.ar  165  PHE165     -0.0003
    186  CZ        66.2210   -1.4750   26.2310 C.ar  165  PHE165     -0.0000
@<TRIPOS>BOND
     1   154   152    1
     2   153   152    1
     3   152   151    2
     4   179   178    2
     5   178   177    1
     6   162   160   am
     7   177   176    1
     8   177   180    1
     9   151   150    1
    10   159   160    1
    11   159   156    1
    12   144   145    1
    13   160   161    2
    14   150   149    1
    15   149   148    1
    16   180   181    1
    17   155   156    1
    18   155   146   am
    19   158   157    2
    20   156   157    1
    21   182   181   ar
    22   182   184   ar
    23   145   148    1
    24   145   146    1
    25   181   183   ar
    26   171   172    1
    27   146   147    2
    28   184   186   ar
    29   173   172    1
    30   173   174    2
    31   183   185   ar
    32   172   175    1
    33   186   185   ar
    34   163   164    1
    35    61    62    1
    36    69    70    1
    37    64    63    2
    38   166   165    2
    39   135   136    1
    40    62    63    1
    41    62    65    1
    42   133   132    2
    43   129   130    2
    44   129   128    1
    45   165   164    1
    46   164   167    1
    47    72    71    2
    48    66    65    1
    49    66    67    1
    50   132   131    1
    51   132   134   am
    52   131   128    1
    53   136   137    1
    54   136   139    1
    55    70    71    1
    56    70    73    1
    57    55    54    2
    58   137   138    2
    59   128   127    1
    60    53    52    1
    61    53    56    1
    62    53    54    1
    63    57    56    1
    64    57    58    1
    65    60    58   ar
    66    30    27    1
    67    73    74    1
    68    73    75    1
    69    74    76    1
    70   167   168    1
    71    58    59   ar
    72   168   169    1
    73   168   170    1
    74    67    68    1
    75   139   140    1
    76   140   141    1
    77   126   125    2
    78   127   125   am
    79    98    97   ar
    80    27    26    1
    81    27    28    1
    82   125   124    1
    83    26    24   am
    84    99    97   ar
    85   141   143   ar
    86   141   142   ar
    87    97    96    1
    88    28    29    2
    89    51    50    1
    90   116   113    1
    91    24    23    1
    92    24    25    2
    93   124   123    1
    94    96    95    1
    95    23    22    1
    96    95    92    1
    97    50    49    1
    98   113   114    1
    99   113   112    1
   100    89    88    1
   101    16    15    2
   102    88    90    1
   103    88    85    1
   104    49    48    1
   105    91    92    1
   106    91    86   am
   107    22    15   am
   108    94    93    2
   109   114   115    2
   110   114   117   am
   111    92    93    1
   112   112   102   am
   113    15    14    1
   114    82    81    1
   115    20    19   ar
   116    93   100   am
   117   103   102    2
   118    85    86    1
   119    85    84    1
   120   102   101    1
   121   117   118    1
   122    86    87    2
   123   119   118    1
   124   119   120    2
   125    18    17    1
   126    18    19    1
   127   100   101    1
   128    17    14    1
   129    48    47    1
   130    19    21   ar
   131    37    35    1
   132    14    13    1
   133    83    81    1
   134    81    78    1
   135   101   104    1
   136   118   121    1
   137   122   121    1
   138    47    44    1
   139    13    11   am
   140    42    39    1
   141    35    36    1
   142    35    32    1
   143    78    79    1
   144    78    77    1
   145    11    12    2
   146    11    10    1
   147    80    79    2
   148   104   105    1
   149    44    43    1
   150    44    45    1
   151    10     9    1
   152   106   105   ar
   153   106   108   ar
   154   105   107   ar
   155    41    40    2
   156     4     3    2
   157   108   110   ar
   158    39    38    1
   159    39    40    1
   160    31    32    1
   161    32    33    1
   162    45    46    2
   163     9     3   am
   164   107   109   ar
   165     7     6    1
   166     3     2    1
   167     5     6    1
   168     5     2    1
   169   110   109   ar
   170   110   111    1
   171     6     8    1
   172     2     1    1
   173    33    34    2
