@<TRIPOS>MOLECULE
tmp/4f66A00.pdb
 147 144 0 0 0
SMALL
GASTEIGER

@<TRIPOS>ATOM
      1  N         -5.2270    1.3080   19.6500 N.3    19  GLN19      -0.1245
      2  CA        -4.2010    2.1780   19.0880 C.3    19  GLN19       0.1566
      3  C         -3.6340    1.6520   17.7700 C.2    19  GLN19       0.2260
      4  O         -3.0360    2.4230   17.0290 O.2    19  GLN19      -0.2867
      5  CB        -3.0920    2.4650   20.1100 C.3    19  GLN19       0.0367
      6  CG        -3.6160    3.2460   21.3120 C.3    19  GLN19       0.0905
      7  CD        -2.5710    3.4780   22.3840 C.2    19  GLN19       0.2608
      8  OE1       -2.6110    2.8500   23.4440 O.2    19  GLN19      -0.2717
      9  NE2       -1.6470    4.3980   22.1240 N.am   19  GLN19      -0.0878
     10  N         -7.7760   -1.6060   28.3900 N.3   131  HIS131     -0.1226
     11  CA        -6.7610   -0.6250   28.0200 C.3   131  HIS131      0.1752
     12  C         -7.3790    0.5660   27.2620 C.2   131  HIS131      0.2596
     13  O         -7.2650    0.6810   26.0310 O.2   131  HIS131     -0.2718
     14  CB        -5.6420   -1.2950   27.2020 C.3   131  HIS131      0.0759
     15  CG        -4.3960   -0.4730   27.0820 C.ar  131  HIS131      0.0818
     16  ND1       -3.1330   -1.0200   27.1760 N.ar  131  HIS131     -0.2268
     17  CD2       -4.2170    0.8530   26.8630 C.ar  131  HIS131      0.1154
     18  CE1       -2.2310   -0.0650   27.0330 C.ar  131  HIS131      0.1986
     19  NE2       -2.8620    1.0790   26.8280 N.ar  131  HIS131     -0.2212
     20  N         -8.0270    1.4500   28.0190 N.am  132  PHE132     -0.1976
     21  CA        -8.5500    2.7230   27.5040 C.3   132  PHE132      0.1639
     22  C         -9.5520    2.5310   26.3650 C.2   132  PHE132      0.2290
     23  O         -9.5570    3.3130   25.4200 O.2   132  PHE132     -0.2864
     24  CB        -7.4420    3.6260   26.9330 C.3   132  PHE132      0.0560
     25  CG        -6.3130    3.9460   27.8770 C.ar  132  PHE132     -0.0200
     26  CD1       -6.4420    3.8040   29.2480 C.ar  132  PHE132     -0.0042
     27  CD2       -5.1210    4.4430   27.3660 C.ar  132  PHE132     -0.0042
     28  CE1       -5.3690    4.1200   30.0990 C.ar  132  PHE132     -0.0003
     29  CE2       -4.0560    4.7640   28.1950 C.ar  132  PHE132     -0.0003
     30  CZ        -4.1830    4.6030   29.5720 C.ar  132  PHE132     -0.0000
     31  N         -5.2750   -1.3380   32.6430 N.3   176  ASN176     -0.1225
     32  CA        -4.1010   -0.5730   32.2650 C.3   176  ASN176      0.1785
     33  C         -3.9600    0.7260   33.0390 C.2   176  ASN176      0.2597
     34  O         -4.9210    1.4970   33.1310 O.2   176  ASN176     -0.2718
     35  CB        -4.1250   -0.2320   30.7750 C.3   176  ASN176      0.1169
     36  CG        -2.8110    0.3300   30.3130 C.2   176  ASN176      0.2627
     37  OD1       -1.8070   -0.3640   30.3560 O.2   176  ASN176     -0.2716
     38  ND2       -2.7970    1.6060   29.9050 N.am  176  ASN176     -0.0877
     39  N         -2.7480    0.9880   33.5340 N.am  177  GLU177     -0.1979
     40  CA        -2.4230    2.2360   34.2300 C.3   177  GLU177      0.1602
     41  C         -3.6130    2.7250   35.0560 C.2   177  GLU177      0.2287
     42  O         -4.0880    3.8510   34.8870 O.2   177  GLU177     -0.2864
     43  CB        -1.9790    3.3140   33.2320 C.3   177  GLU177      0.0415
     44  CG        -0.6860    2.9830   32.4740 C.3   177  GLU177      0.1163
     45  CD        -0.1440    4.1590   31.6690 C.2   177  GLU177      0.3649
     46  OE1       -0.9510    4.9780   31.1670 O.co2 177  GLU177     -0.2457
     47  OE2        1.0930    4.2810   31.5480 O.co2 177  GLU177     -0.2457
     48  N         -3.7420    6.3190   36.6030 N.3   180  ASN180     -0.1240
     49  CA        -3.6200    7.5860   35.8700 C.3   180  ASN180      0.1653
     50  C         -4.6180    8.6150   36.3870 C.2   180  ASN180      0.2266
     51  O         -4.3270    9.8120   36.4530 O.2   180  ASN180     -0.2867
     52  CB        -3.8470    7.4010   34.3720 C.3   180  ASN180      0.1155
     53  CG        -2.6620    6.8000   33.6710 C.2   180  ASN180      0.2627
     54  OD1       -1.5780    6.6600   34.2440 O.2   180  ASN180     -0.2716
     55  ND2       -2.8530    6.4560   32.4040 N.am  180  ASN180     -0.0877
     56  N          8.1650    5.8480   31.7400 N.3   314  TYR314     -0.1241
     57  CA         8.6280    6.7610   30.7100 C.3   314  TYR314      0.1605
     58  C          9.4210    7.9160   31.2600 C.2   314  TYR314      0.2264
     59  O         10.2530    8.4800   30.5530 O.2   314  TYR314     -0.2867
     60  CB         7.4450    7.3610   29.9630 C.3   314  TYR314      0.0534
     61  CG         6.6410    6.3580   29.1890 C.ar  314  TYR314     -0.0201
     62  CD1        6.9950    6.0070   27.8920 C.ar  314  TYR314     -0.0009
     63  CD2        5.5120    5.7700   29.7450 C.ar  314  TYR314     -0.0009
     64  CE1        6.2550    5.0870   27.1770 C.ar  314  TYR314      0.0417
     65  CE2        4.7640    4.8410   29.0420 C.ar  314  TYR314      0.0417
     66  CZ         5.1370    4.5070   27.7570 C.ar  314  TYR314      0.1957
     67  OH         4.3720    3.5910   27.0720 O.3   314  TYR314     -0.2866
     68  N          8.3770   15.1330   27.8680 N.3   350  TRP350     -0.1241
     69  CA         8.4800   14.0120   28.7920 C.3   350  TRP350      0.1605
     70  C          9.9210   13.8780   29.2820 C.2   350  TRP350      0.2264
     71  O         10.8270   13.6320   28.4910 O.2   350  TRP350     -0.2867
     72  CB         8.0330   12.7290   28.1030 C.3   350  TRP350      0.0550
     73  CG         6.5720   12.6800   27.8650 C.ar  350  TRP350      0.0003
     74  CD1        5.7010   13.7390   27.8420 C.ar  350  TRP350      0.0946
     75  CD2        5.7830   11.5040   27.6870 C.ar  350  TRP350      0.0152
     76  NE1        4.4180   13.2880   27.6260 N.ar  350  TRP350     -0.2442
     77  CE2        4.4410   11.9190   27.5310 C.ar  350  TRP350      0.0810
     78  CE3        6.0830   10.1420   27.6250 C.ar  350  TRP350      0.0012
     79  CZ2        3.4010   11.0170   27.3300 C.ar  350  TRP350      0.0191
     80  CZ3        5.0450    9.2470   27.4270 C.ar  350  TRP350      0.0001
     81  CH2        3.7220    9.6930   27.2660 C.ar  350  TRP350      0.0015
     82  N          5.7130   -1.3690   29.5780 N.3   376  GLU376     -0.1245
     83  CA         5.8660   -0.2710   28.6230 C.3   376  GLU376      0.1567
     84  C          7.0940    0.5390   28.9740 C.2   376  GLU376      0.2260
     85  O          7.3690    0.7880   30.1540 O.2   376  GLU376     -0.2867
     86  CB         4.6700    0.6900   28.6330 C.3   376  GLU376      0.0388
     87  CG         3.3290    0.0140   28.5640 C.3   376  GLU376      0.1160
     88  CD         2.1590    0.9880   28.4320 C.2   376  GLU376      0.3649
     89  OE1        2.3700    2.2170   28.2590 O.co2 376  GLU376     -0.2457
     90  OE2        1.0170    0.5020   28.4810 O.co2 376  GLU376     -0.2457
     91  N          7.1230    0.0090   24.4490 N.3   424  TRP424     -0.1241
     92  CA         5.8280    0.4670   23.9760 C.3   424  TRP424      0.1605
     93  C          5.8360    0.8690   22.5000 C.2   424  TRP424      0.2264
     94  O          6.7880    1.4880   22.0170 O.2   424  TRP424     -0.2867
     95  CB         5.3420    1.6690   24.7970 C.3   424  TRP424      0.0550
     96  CG         4.0910    2.1790   24.1940 C.ar  424  TRP424      0.0003
     97  CD1        3.9430    3.2710   23.3930 C.ar  424  TRP424      0.0946
     98  CD2        2.8190    1.5480   24.2580 C.ar  424  TRP424      0.0152
     99  NE1        2.6360    3.3680   22.9690 N.ar  424  TRP424     -0.2442
    100  CE2        1.9250    2.3200   23.4910 C.ar  424  TRP424      0.0810
    101  CE3        2.3390    0.4070   24.9080 C.ar  424  TRP424      0.0012
    102  CZ2        0.5790    1.9830   23.3470 C.ar  424  TRP424      0.0191
    103  CZ3        1.0090    0.0730   24.7640 C.ar  424  TRP424      0.0001
    104  CH2        0.1370    0.8610   23.9930 C.ar  424  TRP424      0.0015
    105  N         -0.9700    7.5410   18.9560 N.3   431  SER431     -0.1202
    106  CA        -0.6480    7.8380   20.3600 C.3   431  SER431      0.2020
    107  C         -1.9020    8.0380   21.2110 C.2   431  SER431      0.2619
    108  O         -2.9820    8.3180   20.6940 O.2   431  SER431     -0.2717
    109  CB         0.2880    9.0530   20.4890 C.3   431  SER431      0.2103
    110  OG        -0.4120   10.2640   20.2630 O.3   431  SER431     -0.2182
    111  N         -1.7360    7.9040   22.5220 N.am  432  ALA432     -0.1965
    112  CA        -2.8540    7.9580   23.4560 C.3   432  ALA432      0.1728
    113  C         -3.2440    9.3810   23.8180 C.2   432  ALA432      0.2617
    114  O         -4.3670    9.8110   23.5590 O.2   432  ALA432     -0.2715
    115  CB        -2.5200    7.1630   24.7130 C.3   432  ALA432      0.0334
    116  N         -2.3060   10.1110   24.4200 N.am  433  GLY433     -0.1940
    117  CA        -2.5770   11.4570   24.8910 C.3   433  GLY433      0.2014
    118  C         -3.0050   12.4360   23.8180 C.2   433  GLY433      0.2639
    119  O         -3.8880   13.2660   24.0530 O.2   433  GLY433     -0.2714
    120  N         -2.3710   12.3620   22.6460 N.am  434  THR434     -0.1950
    121  CA        -2.6520   13.2920   21.5530 C.3   434  THR434      0.1897
    122  C         -3.2830   12.6830   20.3020 C.2   434  THR434      0.2313
    123  O         -3.7020   13.4120   19.4100 O.2   434  THR434     -0.2863
    124  CB        -1.3770   14.0250   21.1070 C.3   434  THR434      0.1794
    125  OG1       -0.4030   13.0550   20.6960 O.3   434  THR434     -0.2208
    126  CG2       -0.8020   14.8510   22.2480 C.3   434  THR434      0.0378
    127  N          3.9890   11.1710   16.5750 N.3   439  LYS439     -0.1245
    128  CA         4.7020   10.8250   17.7990 C.3   439  LYS439      0.1561
    129  C          5.0190    9.3420   17.7580 C.2   439  LYS439      0.2260
    130  O          4.2700    8.5130   18.2680 O.2   439  LYS439     -0.2867
    131  CB         3.8820   11.1770   19.0480 C.3   439  LYS439      0.0271
    132  CG         4.6920   11.0860   20.3420 C.3   439  LYS439      0.0035
    133  CD         3.8440   11.3420   21.5780 C.3   439  LYS439      0.0206
    134  CE         4.7220   11.3090   22.8110 C.3   439  LYS439      0.1093
    135  NZ         3.9250   11.3230   24.0980 N.3   439  LYS439     -0.1314
    136  N          6.9040    5.6780   18.1140 N.3   441  TYR441     -0.1241
    137  CA         7.5970    4.8620   19.1100 C.3   441  TYR441      0.1605
    138  C          8.2970    3.6370   18.5250 C.2   441  TYR441      0.2264
    139  O          9.1160    3.0190   19.2010 O.2   441  TYR441     -0.2867
    140  CB         6.6020    4.3490   20.1510 C.3   441  TYR441      0.0534
    141  CG         6.2310    5.3470   21.2070 C.ar  441  TYR441     -0.0201
    142  CD1        6.9730    5.4370   22.3760 C.ar  441  TYR441     -0.0009
    143  CD2        5.1350    6.1820   21.0500 C.ar  441  TYR441     -0.0009
    144  CE1        6.6370    6.3350   23.3790 C.ar  441  TYR441      0.0417
    145  CE2        4.7790    7.0920   22.0520 C.ar  441  TYR441      0.0417
    146  CZ         5.5500    7.1680   23.2000 C.ar  441  TYR441      0.1957
    147  OH         5.2190    8.0610   24.1990 O.3   441  TYR441     -0.2866
@<TRIPOS>BOND
     1   127   128    1
     2     4     3    2
     3   129   128    1
     4   129   130    2
     5     3     2    1
     6   128   131    1
     7   136   137    1
     8   138   137    1
     9   138   139    2
    10   105   106    1
    11   131   132    1
    12     2     1    1
    13     2     5    1
    14   137   140    1
    15   123   122    2
    16     5     6    1
    17   140   141    1
    18   110   109    1
    19   122   121    1
    20   132   133    1
    21   106   109    1
    22   106   107    1
    23   108   107    2
    24   125   124    1
    25   143   141   ar
    26   143   145   ar
    27   124   121    1
    28   124   126    1
    29   141   142   ar
    30   107   111   am
    31     6     7    1
    32   121   120    1
    33   133   134    1
    34    94    93    2
    35   145   146   ar
    36     9     7   am
    37   142   144   ar
    38     7     8    2
    39    93    92    1
    40   111   112    1
    41   120   118   am
    42   134   135    1
    43    99    97   ar
    44    99   100   ar
    45   146   144   ar
    46   146   147    1
    47   102   100   ar
    48   102   104   ar
    49    97    96   ar
    50   112   113    1
    51   112   115    1
    52   100    98   ar
    53   114   113    2
    54   113   116   am
    55   118   119    2
    56   118   117    1
    57    92    91    1
    58    92    95    1
    59   104   103   ar
    60    96    98   ar
    61    96    95    1
    62    98   101   ar
    63   116   117    1
    64   103   101   ar
    65    23    22    2
    66    13    12    2
    67    22    21    1
    68    19    17   ar
    69    19    18   ar
    70    17    15   ar
    71    24    21    1
    72    24    25    1
    73    18    16   ar
    74    67    66    1
    75    15    16   ar
    76    15    14    1
    77    64    66   ar
    78    64    62   ar
    79    14    11    1
    80    12    20   am
    81    12    11    1
    82    81    79   ar
    83    81    80   ar
    84    79    77   ar
    85    27    25   ar
    86    27    29   ar
    87    80    78   ar
    88    21    20    1
    89    77    76   ar
    90    77    75   ar
    91    78    75   ar
    92    76    74   ar
    93    75    73   ar
    94    66    65   ar
    95    74    73   ar
    96    73    72    1
    97    68    69    1
    98    25    26   ar
    99    62    61   ar
   100    11    10    1
   101    72    69    1
   102    29    30   ar
   103    89    88   ar
   104    88    90   ar
   105    88    87    1
   106    71    70    2
   107    87    86    1
   108    83    86    1
   109    83    84    1
   110    83    82    1
   111    69    70    1
   112    84    85    2
   113    65    63   ar
   114    61    63   ar
   115    61    60    1
   116    26    28   ar
   117    30    28   ar
   118    38    36   am
   119    60    57    1
   120    36    37    2
   121    36    35    1
   122    59    58    2
   123    57    58    1
   124    57    56    1
   125    35    32    1
   126    46    45   ar
   127    47    45   ar
   128    45    44    1
   129    32    31    1
   130    32    33    1
   131    55    53   am
   132    44    43    1
   133    33    34    2
   134    33    39   am
   135    43    40    1
   136    39    40    1
   137    53    54    2
   138    53    52    1
   139    40    41    1
   140    52    49    1
   141    42    41    2
   142    49    50    1
   143    49    48    1
   144    50    51    2
