@<TRIPOS>MOLECULE
tmp/4f6sA00.pdb
 159 151 0 0 0
SMALL
GASTEIGER

@<TRIPOS>ATOM
      1  N         30.9930   56.3060   56.1100 N.3    33  TYR33      -0.1241
      2  CA        31.3770   57.4020   57.0040 C.3    33  TYR33       0.1605
      3  C         31.2020   58.7960   56.3930 C.2    33  TYR33       0.2264
      4  O         31.2000   59.7930   57.1200 O.2    33  TYR33      -0.2867
      5  CB        32.8350   57.2470   57.4460 C.3    33  TYR33       0.0534
      6  CG        33.1510   56.0370   58.3070 C.ar   33  TYR33      -0.0201
      7  CD1       32.1510   55.3140   58.9660 C.ar   33  TYR33      -0.0009
      8  CD2       34.4710   55.6410   58.4970 C.ar   33  TYR33      -0.0009
      9  CE1       32.4650   54.2120   59.7620 C.ar   33  TYR33       0.0417
     10  CE2       34.7890   54.5550   59.2900 C.ar   33  TYR33       0.0417
     11  CZ        33.7840   53.8430   59.9190 C.ar   33  TYR33       0.1957
     12  OH        34.1050   52.7630   60.7060 O.3    33  TYR33      -0.2866
     13  N         37.1920   65.5010   55.2360 N.3    53  LYS53      -0.1245
     14  CA        36.0740   64.5720   55.3960 C.3    53  LYS53       0.1561
     15  C         34.8190   65.3030   55.8750 C.2    53  LYS53       0.2260
     16  O         34.8480   65.9910   56.8960 O.2    53  LYS53      -0.2867
     17  CB        36.4430   63.4650   56.3810 C.3    53  LYS53       0.0271
     18  CG        35.3290   62.4460   56.6690 C.3    53  LYS53       0.0035
     19  CD        35.8890   61.3440   57.5500 C.3    53  LYS53       0.0206
     20  CE        34.8360   60.4600   58.1640 C.3    53  LYS53       0.1093
     21  NZ        35.4850   59.2990   58.8340 N.3    53  LYS53      -0.1314
     22  N         28.5880   58.4580   66.2160 N.3    63  SER63      -0.1217
     23  CA        29.8140   58.1400   65.4950 C.3    63  SER63       0.1889
     24  C         30.6830   59.3680   65.2470 C.2    63  SER63       0.2288
     25  O         31.9080   59.2950   65.3450 O.2    63  SER63      -0.2866
     26  CB        29.4920   57.4010   64.1880 C.3    63  SER63       0.2089
     27  OG        29.3760   56.0080   64.4610 O.3    63  SER63      -0.2183
     28  N         32.4400   60.1540   68.4360 N.3    66  ARG66      -0.1231
     29  CA        33.5120   59.2010   68.7500 C.3    66  ARG66       0.1694
     30  C         34.7930   59.4910   67.9750 C.2    66  ARG66       0.2591
     31  O         35.8860   59.4400   68.5390 O.2    66  ARG66      -0.2718
     32  CB        33.0450   57.7680   68.4670 C.3    66  ARG66       0.0321
     33  CG        34.1130   56.6650   68.6730 C.3    66  ARG66       0.0489
     34  CD        33.5630   55.2710   68.2970 C.3    66  ARG66       0.2205
     35  NE        34.5090   54.4980   67.4850 N.pl3  66  ARG66      -0.0865
     36  CZ        35.5100   53.7570   67.9620 C.cat  66  ARG66       0.5346
     37  NH1       36.2990   53.1070   67.1140 N.pl3  66  ARG66       0.1354
     38  NH2       35.7310   53.6530   69.2700 N.pl3  66  ARG66       0.1354
     39  N         34.6620   59.7700   66.6800 N.am   67  GLU67      -0.1979
     40  CA        35.8240   60.0830   65.8440 C.3    67  GLU67       0.1602
     41  C         36.5140   61.3210   66.3730 C.2    67  GLU67       0.2287
     42  O         37.7330   61.3530   66.4780 O.2    67  GLU67      -0.2864
     43  CB        35.4110   60.3070   64.3890 C.3    67  GLU67       0.0415
     44  CG        36.5690   60.3980   63.3930 C.3    67  GLU67       0.1163
     45  CD        36.1100   60.3310   61.9280 C.2    67  GLU67       0.3649
     46  OE1       34.8870   60.3740   61.6700 O.co2  67  GLU67      -0.2457
     47  OE2       36.9770   60.2350   61.0280 O.co2  67  GLU67      -0.2457
     48  N         38.2570   60.7360   69.9870 N.3    70  LEU70      -0.1231
     49  CA        39.4880   59.9410   69.9080 C.3    70  LEU70       0.1693
     50  C         40.5880   60.6700   69.1560 C.2    70  LEU70       0.2591
     51  O         41.6650   60.8870   69.6990 O.2    70  LEU70      -0.2718
     52  CB        39.2350   58.5880   69.2320 C.3    70  LEU70       0.0284
     53  CG        38.5420   57.4970   70.0470 C.3    70  LEU70       0.0019
     54  CD1       38.5110   56.2170   69.2360 C.3    70  LEU70       0.0001
     55  CD2       39.2370   57.2650   71.3810 C.3    70  LEU70       0.0001
     56  N         40.3170   61.0540   67.9140 N.am   71  LEU71      -0.1980
     57  CA        41.3500   61.6450   67.0510 C.3    71  LEU71       0.1596
     58  C         41.9180   62.9490   67.6060 C.2    71  LEU71       0.2287
     59  O         43.0650   63.2960   67.3330 O.2    71  LEU71      -0.2864
     60  CB        40.8370   61.8440   65.6260 C.3    71  LEU71       0.0297
     61  CG        40.8720   60.5800   64.7590 C.3    71  LEU71       0.0022
     62  CD1       40.1500   59.3860   65.4080 C.3    71  LEU71       0.0001
     63  CD2       40.2660   60.8870   63.4130 C.3    71  LEU71       0.0001
     64  N         44.7210   61.2160   70.0430 N.3    74  LEU74      -0.1245
     65  CA        45.7670   60.3250   69.5370 C.3    74  LEU74       0.1561
     66  C         46.8830   61.0940   68.8360 C.2    74  LEU74       0.2260
     67  O         46.6260   62.0350   68.0910 O.2    74  LEU74      -0.2867
     68  CB        45.1780   59.2760   68.5840 C.3    74  LEU74       0.0270
     69  CG        44.1960   58.2690   69.2020 C.3    74  LEU74       0.0019
     70  CD1       43.4800   57.5180   68.0910 C.3    74  LEU74       0.0001
     71  CD2       44.8830   57.2860   70.1650 C.3    74  LEU74       0.0001
     72  N         49.5880   56.7980   62.8130 N.3    79  VAL79      -0.1231
     73  CA        48.1360   56.9240   62.8820 C.3    79  VAL79       0.1692
     74  C         47.7140   58.2600   62.2780 C.2    79  VAL79       0.2591
     75  O         48.3470   59.2740   62.5250 O.2    79  VAL79      -0.2718
     76  CB        47.6370   56.8790   64.3410 C.3    79  VAL79       0.0266
     77  CG1       46.1200   57.0470   64.3900 C.3    79  VAL79       0.0020
     78  CG2       48.0770   55.5790   65.0170 C.3    79  VAL79       0.0020
     79  N         46.6290   58.2540   61.5110 N.am   80  ILE80      -0.1980
     80  CA        46.1050   59.4620   60.8720 C.3    80  ILE80       0.1595
     81  C         45.8230   60.5580   61.9140 C.2    80  ILE80       0.2287
     82  O         45.2270   60.2760   62.9440 O.2    80  ILE80      -0.2864
     83  CB        44.8210   59.1260   60.0680 C.3    80  ILE80       0.0276
     84  CG1       44.4920   60.2510   59.0810 C.3    80  ILE80       0.0022
     85  CG2       43.6450   58.8140   61.0010 C.3    80  ILE80       0.0022
     86  CD1       45.3200   60.1960   57.8200 C.3    80  ILE80       0.0001
     87  N         42.3000   66.3800   57.6840 N.3    98  PHE98      -0.1241
     88  CA        43.3960   65.4410   57.8950 C.3    98  PHE98       0.1605
     89  C         44.4820   65.7600   56.9070 C.2    98  PHE98       0.2264
     90  O         44.2570   66.4930   55.9450 O.2    98  PHE98      -0.2867
     91  CB        42.9420   64.0140   57.6370 C.3    98  PHE98       0.0534
     92  CG        41.8610   63.5480   58.5430 C.ar   98  PHE98      -0.0203
     93  CD1       42.1660   63.0400   59.7860 C.ar   98  PHE98      -0.0042
     94  CD2       40.5390   63.5820   58.1410 C.ar   98  PHE98      -0.0042
     95  CE1       41.1670   62.5770   60.6290 C.ar   98  PHE98      -0.0003
     96  CE2       39.5390   63.1280   58.9720 C.ar   98  PHE98      -0.0003
     97  CZ        39.8540   62.6260   60.2270 C.ar   98  PHE98      -0.0000
     98  N         47.7790   52.3730   69.5010 N.3   135  LEU135     -0.1245
     99  CA        46.3300   52.3250   69.7420 C.3   135  LEU135      0.1561
    100  C         45.9480   51.3180   70.8380 C.2   135  LEU135      0.2260
    101  O         45.1620   51.6110   71.7370 O.2   135  LEU135     -0.2867
    102  CB        45.5870   51.9760   68.4460 C.3   135  LEU135      0.0270
    103  CG        45.7280   52.9710   67.2930 C.3   135  LEU135      0.0019
    104  CD1       44.9970   52.4720   66.0620 C.3   135  LEU135      0.0001
    105  CD2       45.2340   54.3370   67.7010 C.3   135  LEU135      0.0001
    106  N         42.4730   51.3340   72.3290 N.3   140  VAL140     -0.1231
    107  CA        41.6940   51.6670   71.1500 C.3   140  VAL140      0.1692
    108  C         41.8720   50.5160   70.1710 C.2   140  VAL140      0.2592
    109  O         42.9940   50.2000   69.7810 O.2   140  VAL140     -0.2718
    110  CB        42.1600   53.0030   70.5260 C.3   140  VAL140      0.0266
    111  CG1       41.6400   53.1640   69.1000 C.3   140  VAL140      0.0020
    112  CG2       41.7070   54.1870   71.3970 C.3   140  VAL140      0.0020
    113  N         40.7700   49.8630   69.8100 N.am  141  LEU141     -0.1966
    114  CA        40.7950   48.7850   68.8260 C.3   141  LEU141      0.1728
    115  C         40.3860   49.3460   67.4720 C.2   141  LEU141      0.2616
    116  O         39.5180   50.2190   67.3860 O.2   141  LEU141     -0.2715
    117  CB        39.8410   47.6600   69.2290 C.3   141  LEU141      0.0311
    118  CG        39.9800   47.0650   70.6350 C.3   141  LEU141      0.0022
    119  CD1       38.9700   45.9330   70.8180 C.3   141  LEU141      0.0001
    120  CD2       41.3830   46.5610   70.8920 C.3   141  LEU141      0.0001
    121  N         41.0010   48.8490   66.4070 N.am  142  HIS142     -0.1973
    122  CA        40.6260   49.3030   65.0760 C.3   142  HIS142      0.1656
    123  C         39.2860   48.6900   64.6620 C.2   142  HIS142      0.2291
    124  O         38.3450   49.4140   64.3420 O.2   142  HIS142     -0.2864
    125  CB        41.7160   48.9810   64.0710 C.3   142  HIS142      0.0771
    126  CG        41.5850   49.7380   62.7940 C.ar  142  HIS142      0.0820
    127  ND1       40.7590   49.3280   61.7720 N.ar  142  HIS142     -0.2267
    128  CD2       42.1710   50.8820   62.3730 C.ar  142  HIS142      0.1154
    129  CE1       40.8420   50.1890   60.7740 C.ar  142  HIS142      0.1986
    130  NE2       41.6930   51.1410   61.1120 N.ar  142  HIS142     -0.2212
    131  N         47.7870   54.6460   59.6200 N.3   164  ILE164     -0.1231
    132  CA        46.5910   53.8410   59.8620 C.3   164  ILE164      0.1692
    133  C         45.3640   54.7510   59.8950 C.2   164  ILE164      0.2592
    134  O         45.3940   55.8230   60.4880 O.2   164  ILE164     -0.2718
    135  CB        46.6800   53.0440   61.1800 C.3   164  ILE164      0.0266
    136  CG1       47.8160   52.0250   61.1080 C.3   164  ILE164      0.0019
    137  CG2       45.3520   52.2850   61.4880 C.3   164  ILE164      0.0020
    138  CD1       48.0300   51.2750   62.4080 C.3   164  ILE164      0.0001
    139  N         44.2870   54.3160   59.2520 N.am  165  ALA165     -0.1966
    140  CA        43.0620   55.1030   59.1640 C.3   165  ALA165      0.1728
    141  C         41.8500   54.1900   59.2380 C.2   165  ALA165      0.2616
    142  O         41.9890   52.9670   59.2630 O.2   165  ALA165     -0.2715
    143  CB        43.0480   55.8860   57.8640 C.3   165  ALA165      0.0334
    144  N         40.6650   54.7880   59.2870 N.am  166  ASP166     -0.1957
    145  CA        39.4120   54.0330   59.2230 C.3   166  ASP166      0.1840
    146  C         38.5080   54.7360   58.2300 C.2   166  ASP166      0.2621
    147  O         37.8290   55.6920   58.5840 O.2   166  ASP166     -0.2715
    148  CB        38.7580   53.9510   60.5980 C.3   166  ASP166      0.1450
    149  CG        37.6500   52.9110   60.6710 C.2   166  ASP166      0.3671
    150  OD1       37.3630   52.2370   59.6560 O.co2 166  ASP166     -0.2456
    151  OD2       37.0550   52.7730   61.7650 O.co2 166  ASP166     -0.2456
    152  N         38.5280   54.2560   56.9850 N.am  167  MET167     -0.1977
    153  CA        37.8540   54.9060   55.8590 C.3   167  MET167      0.1605
    154  C         36.4010   54.4690   55.6380 C.2   167  MET167      0.2287
    155  O         35.6710   55.1140   54.8800 O.2   167  MET167     -0.2864
    156  CB        38.6520   54.6590   54.5670 C.3   167  MET167      0.0413
    157  CG        40.0690   55.2340   54.5700 C.3   167  MET167      0.0598
    158  SD        40.1560   56.9900   55.0150 S.3   167  MET167     -0.1393
    159  CE        38.8800   57.7000   53.9770 C.3   167  MET167      0.0692
@<TRIPOS>BOND
     1   159   158    1
     2   156   157    1
     3   156   153    1
     4   157   158    1
     5   155   154    2
     6    13    14    1
     7    14    15    1
     8    14    17    1
     9   154   153    1
    10   153   152    1
    11    15    16    2
    12    90    89    2
    13     1     2    1
    14    17    18    1
    15     3     2    1
    16     3     4    2
    17    18    19    1
    18    89    88    1
    19   152   146   am
    20     2     5    1
    21     5     6    1
    22    19    20    1
    23    91    88    1
    24    91    92    1
    25    87    88    1
    26    86    84    1
    27   143   140    1
    28    94    92   ar
    29    94    96   ar
    30    20    21    1
    31   146   147    2
    32   146   145    1
    33     6     8   ar
    34     6     7   ar
    35     8    10   ar
    36    92    93   ar
    37     7     9   ar
    38    96    97   ar
    39    84    83    1
    40   140   141    1
    41   140   139    1
    42   145   144    1
    43   145   148    1
    44   141   142    2
    45   141   144   am
    46   139   133   am
    47    10    11   ar
    48   131   132    1
    49   150   149   ar
    50     9    11   ar
    51    93    95   ar
    52   132   133    1
    53   132   135    1
    54   133   134    2
    55    11    12    1
    56    83    80    1
    57    83    85    1
    58    97    95   ar
    59   148   149    1
    60   149   151   ar
    61   129   130   ar
    62   129   127   ar
    63    80    79    1
    64    80    81    1
    65    47    45   ar
    66   136   135    1
    67   136   138    1
    68   130   128   ar
    69   135   137    1
    70    79    74   am
    71    46    45   ar
    72   127   126   ar
    73    81    82    2
    74    45    44    1
    75    74    75    2
    76    74    73    1
    77   128   126   ar
    78   126   125    1
    79    72    73    1
    80    73    76    1
    81    44    43    1
    82    63    61    1
    83   125   122    1
    84    26    27    1
    85    26    23    1
    86    76    77    1
    87    76    78    1
    88   124   123    2
    89    43    40    1
    90   123   122    1
    91    61    62    1
    92    61    60    1
    93   122   121    1
    94    24    25    2
    95    24    23    1
    96    23    22    1
    97    60    57    1
    98    40    41    1
    99    40    39    1
   100   104   103    1
   101    41    42    2
   102   121   115   am
   103    39    30   am
   104    57    58    1
   105    57    56    1
   106    37    36    1
   107   103   105    1
   108   103   102    1
   109    59    58    2
   110   116   115    2
   111   115   114    1
   112    35    36    2
   113    35    34    1
   114    56    50   am
   115    36    38    1
   116    30    31    2
   117    30    29    1
   118    70    69    1
   119    67    66    2
   120    34    33    1
   121    28    29    1
   122   102    99    1
   123    32    33    1
   124    32    29    1
   125    68    69    1
   126    68    65    1
   127   114   117    1
   128   114   113    1
   129    66    65    1
   130   111   110    1
   131    50    51    2
   132    50    49    1
   133    69    71    1
   134   117   118    1
   135    52    49    1
   136    52    53    1
   137    54    53    1
   138    98    99    1
   139    65    64    1
   140    99   100    1
   141   109   108    2
   142   113   108   am
   143    49    48    1
   144    53    55    1
   145   108   107    1
   146   110   107    1
   147   110   112    1
   148   118   119    1
   149   118   120    1
   150   100   101    2
   151   107   106    1
