@<TRIPOS>MOLECULE
tmp/4f6uA00.pdb
 222 210 0 0 0
SMALL
GASTEIGER

@<TRIPOS>ATOM
      1  N        -44.0490   19.6490   89.1380 N.3    29  VAL29      -0.1245
      2  CA       -42.8360   20.4580   88.9360 C.3    29  VAL29       0.1561
      3  C        -41.6380   19.9500   89.7430 C.2    29  VAL29       0.2260
      4  O        -40.5330   20.4430   89.5590 O.2    29  VAL29      -0.2867
      5  CB       -43.0860   21.9450   89.2870 C.3    29  VAL29       0.0252
      6  CG1      -44.1580   22.5280   88.3720 C.3    29  VAL29       0.0019
      7  CG2      -43.4700   22.1090   90.7700 C.3    29  VAL29       0.0019
      8  N        -38.4000   13.1700   99.1390 N.3    34  TYR34      -0.1241
      9  CA       -39.4740   13.5250  100.0920 C.3    34  TYR34       0.1605
     10  C        -40.9100   13.4460   99.5410 C.2    34  TYR34       0.2264
     11  O        -41.8670   13.4160  100.3230 O.2    34  TYR34      -0.2867
     12  CB       -39.2650   14.9390  100.6420 C.3    34  TYR34       0.0534
     13  CG       -37.9970   15.1740  101.4380 C.ar   34  TYR34      -0.0201
     14  CD1      -37.4900   14.2110  102.3290 C.ar   34  TYR34      -0.0009
     15  CD2      -37.3250   16.3960  101.3420 C.ar   34  TYR34      -0.0009
     16  CE1      -36.3250   14.4570  103.0740 C.ar   34  TYR34       0.0417
     17  CE2      -36.1690   16.6470  102.0850 C.ar   34  TYR34       0.0417
     18  CZ       -35.6710   15.6800  102.9430 C.ar   34  TYR34       0.1957
     19  OH       -34.5280   15.9500  103.6640 O.3    34  TYR34      -0.2866
     20  N        -44.1270   17.3700   94.0460 N.3    37  VAL37      -0.1245
     21  CA       -44.6190   18.7450   94.1700 C.3    37  VAL37       0.1561
     22  C        -45.3330   19.1490   92.8820 C.2    37  VAL37       0.2260
     23  O        -44.7720   19.0040   91.7900 O.2    37  VAL37      -0.2867
     24  CB       -43.4780   19.7370   94.4860 C.3    37  VAL37       0.0252
     25  CG1      -43.9770   21.1740   94.4590 C.3    37  VAL37       0.0019
     26  CG2      -42.8850   19.4240   95.8350 C.3    37  VAL37       0.0019
     27  N        -48.5720   25.5300   95.6180 N.3    52  ALA52      -0.1245
     28  CA       -47.7620   24.3340   95.5670 C.3    52  ALA52       0.1562
     29  C        -48.4210   23.2850   96.4520 C.2    52  ALA52       0.2260
     30  O        -48.7630   23.5620   97.6100 O.2    52  ALA52      -0.2867
     31  CB       -46.3490   24.6220   96.0270 C.3    52  ALA52       0.0290
     32  N        -47.5980   19.4540   97.8800 N.3    54  LYS54      -0.1245
     33  CA       -46.6480   18.3600   98.0550 C.3    54  LYS54       0.1561
     34  C        -47.3800   17.1170   98.5330 C.2    54  LYS54       0.2260
     35  O        -47.9880   17.1300   99.6150 O.2    54  LYS54      -0.2867
     36  CB       -45.5580   18.7490   99.0600 C.3    54  LYS54       0.0271
     37  CG       -44.4550   17.6950   99.2380 C.3    54  LYS54       0.0035
     38  CD       -43.4440   18.1180  100.3170 C.3    54  LYS54       0.0206
     39  CE       -42.4830   16.9890  100.6180 C.3    54  LYS54       0.1093
     40  NZ       -41.5660   17.2970  101.7340 N.3    54  LYS54      -0.1314
     41  N        -40.5750   11.2050  108.5240 N.3    64  SER64      -0.1217
     42  CA       -40.4150   12.3440  107.6200 C.3    64  SER64       0.1889
     43  C        -41.6270   13.2510  107.5950 C.2    64  SER64       0.2288
     44  O        -41.4830   14.4640  107.7080 O.2    64  SER64      -0.2866
     45  CB       -40.1230   11.8620  106.1930 C.3    64  SER64       0.2089
     46  OG       -38.8310   11.3100  106.1550 O.3    64  SER64      -0.2183
     47  N        -42.0690   14.9060  111.0600 N.3    67  ARG67      -0.1231
     48  CA       -41.0920   15.9870  111.2490 C.3    67  ARG67       0.1694
     49  C        -41.4670   17.2510  110.4850 C.2    67  ARG67       0.2591
     50  O        -41.4880   18.3470  111.0520 O.2    67  ARG67      -0.2718
     51  CB       -39.6760   15.5250  110.8530 C.3    67  ARG67       0.0321
     52  CG       -38.6320   16.6320  110.9540 C.3    67  ARG67       0.0489
     53  CD       -37.2000   16.1270  110.9370 C.3    67  ARG67       0.2205
     54  NE       -36.3300   17.2370  111.3080 N.pl3  67  ARG67      -0.0865
     55  CZ       -35.9010   18.1990  110.4910 C.cat  67  ARG67       0.5346
     56  NH1      -35.1310   19.1690  110.9920 N.pl3  67  ARG67       0.1354
     57  NH2      -36.2050   18.2010  109.1830 N.pl3  67  ARG67       0.1354
     58  N        -41.7860   17.1020  109.2000 N.am   68  GLU68      -0.1979
     59  CA       -42.1360   18.2510  108.3770 C.3    68  GLU68       0.1602
     60  C        -43.3810   18.9740  108.8910 C.2    68  GLU68       0.2287
     61  O        -43.4020   20.2070  108.9700 O.2    68  GLU68      -0.2864
     62  CB       -42.3650   17.8520  106.9160 C.3    68  GLU68       0.0415
     63  CG       -42.5710   19.0590  106.0230 C.3    68  GLU68       0.1163
     64  CD       -42.5040   18.7620  104.5320 C.2    68  GLU68       0.3649
     65  OE1      -42.6150   17.5900  104.1240 O.co2  68  GLU68      -0.2457
     66  OE2      -42.3850   19.7390  103.7610 O.co2  68  GLU68      -0.2457
     67  N        -42.7470   20.6690  112.5920 N.3    71  LEU71      -0.1231
     68  CA       -41.9220   21.8720  112.4880 C.3    71  LEU71       0.1693
     69  C        -42.6070   23.0040  111.7540 C.2    71  LEU71       0.2591
     70  O        -42.6710   24.1220  112.2720 O.2    71  LEU71      -0.2718
     71  CB       -40.5820   21.5660  111.8060 C.3    71  LEU71       0.0284
     72  CG       -39.5340   20.8730  112.6540 C.3    71  LEU71       0.0019
     73  CD1      -38.2710   20.6250  111.8190 C.3    71  LEU71       0.0001
     74  CD2      -39.2020   21.6980  113.8930 C.3    71  LEU71       0.0001
     75  N        -43.1300   22.7300  110.5570 N.am   72  LEU72      -0.1980
     76  CA       -43.7810   23.7830  109.7470 C.3    72  LEU72       0.1596
     77  C        -45.0630   24.3490  110.3600 C.2    72  LEU72       0.2287
     78  O        -45.4270   25.5190  110.1240 O.2    72  LEU72      -0.2864
     79  CB       -44.0590   23.2910  108.3190 C.3    72  LEU72       0.0297
     80  CG       -42.8500   23.0820  107.4100 C.3    72  LEU72       0.0022
     81  CD1      -43.3030   22.6310  106.0160 C.3    72  LEU72       0.0001
     82  CD2      -42.0050   24.3400  107.3060 C.3    72  LEU72       0.0001
     83  N        -43.3020   27.0690  112.7160 N.3    75  LEU75      -0.1245
     84  CA       -42.4090   28.0850  112.1480 C.3    75  LEU75       0.1561
     85  C        -43.1910   29.1760  111.4140 C.2    75  LEU75       0.2260
     86  O        -44.0830   28.8870  110.6280 O.2    75  LEU75      -0.2867
     87  CB       -41.3940   27.4360  111.2090 C.3    75  LEU75       0.0270
     88  CG       -40.3840   26.4900  111.8630 C.3    75  LEU75       0.0019
     89  CD1      -39.6390   25.7000  110.7910 C.3    75  LEU75       0.0001
     90  CD2      -39.4150   27.2460  112.7600 C.3    75  LEU75       0.0001
     91  N        -38.9150   31.9170  105.5280 N.3    80  VAL80      -0.1231
     92  CA       -39.0620   30.4710  105.6490 C.3    80  VAL80       0.1692
     93  C        -40.3900   30.1160  105.0060 C.2    80  VAL80       0.2591
     94  O        -41.4020   30.7740  105.2720 O.2    80  VAL80      -0.2718
     95  CB       -39.0410   30.0150  107.1270 C.3    80  VAL80       0.0266
     96  CG1      -39.2370   28.4920  107.2320 C.3    80  VAL80       0.0020
     97  CG2      -37.7160   30.4400  107.7790 C.3    80  VAL80       0.0020
     98  N        -40.3750   29.1080  104.1350 N.am   81  ILE81      -0.1980
     99  CA       -41.5840   28.6320  103.4650 C.3    81  ILE81       0.1595
    100  C        -42.6600   28.2670  104.5050 C.2    81  ILE81       0.2287
    101  O        -42.3710   27.6230  105.5250 O.2    81  ILE81      -0.2864
    102  CB       -41.2680   27.4320  102.5180 C.3    81  ILE81       0.0276
    103  CG1      -42.4120   27.1860  101.5280 C.3    81  ILE81       0.0022
    104  CG2      -40.9200   26.1670  103.3090 C.3    81  ILE81       0.0022
    105  CD1      -42.5230   28.2580  100.4380 C.3    81  ILE81       0.0001
    106  N        -48.8160   24.9460  100.0420 N.3    99  PHE99      -0.1227
    107  CA       -48.0260   26.1750  100.1960 C.3    99  PHE99       0.1736
    108  C        -48.4180   27.1760   99.1200 C.2    99  PHE99       0.2595
    109  O        -48.9450   26.7970   98.0630 O.2    99  PHE99      -0.2718
    110  CB       -46.5250   25.9080  100.0250 C.3    99  PHE99       0.0547
    111  CG       -45.9990   24.7210  100.7900 C.ar   99  PHE99      -0.0202
    112  CD1      -46.0610   23.4440  100.2420 C.ar   99  PHE99      -0.0042
    113  CD2      -45.3890   24.8840  102.0310 C.ar   99  PHE99      -0.0042
    114  CE1      -45.5450   22.3450  100.9240 C.ar   99  PHE99      -0.0003
    115  CE2      -44.8650   23.7860  102.7260 C.ar   99  PHE99      -0.0003
    116  CZ       -44.9380   22.5130  102.1690 C.ar   99  PHE99      -0.0000
    117  N        -48.1420   28.4520   99.3790 N.am  100  ASP100     -0.1960
    118  CA       -48.1540   29.4690   98.3300 C.3   100  ASP100      0.1840
    119  C        -47.0020   29.1330   97.3850 C.2   100  ASP100      0.2622
    120  O        -45.9080   28.8130   97.8460 O.2   100  ASP100     -0.2715
    121  CB       -47.9510   30.8720   98.9100 C.3   100  ASP100      0.1450
    122  CG       -49.1910   31.4230   99.6140 C.2   100  ASP100      0.3671
    123  OD1      -50.2710   30.7970   99.5920 O.co2 100  ASP100     -0.2456
    124  OD2      -49.0740   32.5170  100.1880 O.co2 100  ASP100     -0.2456
    125  N        -47.2480   29.1860   96.0780 N.am  101  TYR101     -0.1960
    126  CA       -46.2430   28.7730   95.0950 C.3   101  TYR101      0.1771
    127  C        -45.1300   29.8030   94.9750 C.2   101  TYR101      0.2619
    128  O        -45.4020   30.9860   94.7820 O.2   101  TYR101     -0.2715
    129  CB       -46.8920   28.5720   93.7310 C.3   101  TYR101      0.0574
    130  CG       -46.0060   27.9490   92.6900 C.ar  101  TYR101     -0.0198
    131  CD1      -45.6390   26.6100   92.7790 C.ar  101  TYR101     -0.0009
    132  CD2      -45.5630   28.6800   91.5880 C.ar  101  TYR101     -0.0009
    133  CE1      -44.8300   26.0170   91.8130 C.ar  101  TYR101      0.0417
    134  CE2      -44.7610   28.0920   90.6130 C.ar  101  TYR101      0.0417
    135  CZ       -44.4000   26.7620   90.7340 C.ar  101  TYR101      0.1957
    136  OH       -43.6010   26.1720   89.7820 O.3   101  TYR101     -0.2866
    137  N        -43.8880   29.3360   95.0830 N.am  102  ALA102     -0.1977
    138  CA       -42.7020   30.1400   94.8180 C.3   102  ALA102      0.1597
    139  C        -42.2020   29.7720   93.4230 C.2   102  ALA102      0.2287
    140  O        -41.7330   28.6540   93.1930 O.2   102  ALA102     -0.2864
    141  CB       -41.6250   29.8750   95.8580 C.3   102  ALA102      0.0319
    142  N        -34.4370   30.2300  112.1080 N.3   139  LEU139     -0.1245
    143  CA       -34.3590   28.7840  112.3040 C.3   139  LEU139      0.1561
    144  C        -33.3630   28.4130  113.4110 C.2   139  LEU139      0.2260
    145  O        -33.6870   27.6270  114.3100 O.2   139  LEU139     -0.2867
    146  CB       -33.9970   28.0750  110.9910 C.3   139  LEU139      0.0270
    147  CG       -35.0180   28.1410  109.8510 C.3   139  LEU139      0.0019
    148  CD1      -34.4350   27.4880  108.6000 C.3   139  LEU139      0.0001
    149  CD2      -36.3750   27.4940  110.2470 C.3   139  LEU139      0.0001
    150  N        -33.4250   24.8650  114.9110 N.3   144  VAL144     -0.1231
    151  CA       -33.7400   24.1350  113.7000 C.3   144  VAL144      0.1692
    152  C        -32.5490   24.3620  112.7790 C.2   144  VAL144      0.2592
    153  O        -32.2530   25.4900  112.4000 O.2   144  VAL144     -0.2718
    154  CB       -35.0550   24.6470  113.0540 C.3   144  VAL144      0.0266
    155  CG1      -35.3130   23.9480  111.7120 C.3   144  VAL144      0.0020
    156  CG2      -36.2360   24.4330  114.0230 C.3   144  VAL144      0.0020
    157  N        -31.8610   23.2730  112.4660 N.am  145  LEU145     -0.1966
    158  CA       -30.7620   23.2590  111.5290 C.3   145  LEU145      0.1728
    159  C        -31.3200   22.8250  110.1820 C.2   145  LEU145      0.2616
    160  O        -32.1810   21.9500  110.1180 O.2   145  LEU145     -0.2715
    161  CB       -29.6990   22.2690  111.9960 C.3   145  LEU145      0.0311
    162  CG       -29.1560   22.4770  113.4190 C.3   145  LEU145      0.0022
    163  CD1      -28.0280   21.4640  113.7100 C.3   145  LEU145      0.0001
    164  CD2      -28.6700   23.9190  113.6260 C.3   145  LEU145      0.0001
    165  N        -30.8560   23.4580  109.1100 N.am  146  HIS146     -0.1973
    166  CA       -31.3450   23.1100  107.7820 C.3   146  HIS146      0.1656
    167  C        -30.7370   21.8040  107.3160 C.2   146  HIS146      0.2291
    168  O        -31.4730   20.8890  106.9650 O.2   146  HIS146     -0.2864
    169  CB       -31.0910   24.2110  106.7670 C.3   146  HIS146      0.0771
    170  CG       -31.7820   23.9630  105.4660 C.ar  146  HIS146      0.0820
    171  ND1      -31.3550   23.0020  104.5730 N.ar  146  HIS146     -0.2267
    172  CD2      -32.8880   24.5210  104.9220 C.ar  146  HIS146      0.1154
    173  CE1      -32.1690   22.9830  103.5320 C.ar  146  HIS146      0.1986
    174  NE2      -33.1090   23.8920  103.7190 N.ar  146  HIS146     -0.2212
    175  N        -35.7160   29.3670   97.5910 N.3   155  LEU155     -0.1245
    176  CA       -36.8050   29.7640   96.7060 C.3   155  LEU155      0.1561
    177  C        -36.9230   31.2830   96.7120 C.2   155  LEU155      0.2260
    178  O        -36.5280   31.9410   97.6710 O.2   155  LEU155     -0.2867
    179  CB       -38.1280   29.1080   97.1140 C.3   155  LEU155      0.0270
    180  CG       -38.1200   27.6060   97.4240 C.3   155  LEU155      0.0019
    181  CD1      -39.5230   27.1600   97.7690 C.3   155  LEU155      0.0001
    182  CD2      -37.5530   26.7710   96.2720 C.3   155  LEU155      0.0001
    183  N        -36.7300   30.0750  102.3230 N.3   168  ILE168     -0.1231
    184  CA       -35.9090   28.8920  102.5850 C.3   168  ILE168      0.1692
    185  C        -36.8270   27.6790  102.6160 C.2   168  ILE168      0.2592
    186  O        -37.8750   27.6960  103.2690 O.2   168  ILE168     -0.2718
    187  CB       -35.1210   29.0070  103.9080 C.3   168  ILE168      0.0266
    188  CG1      -34.1510   30.2000  103.8630 C.3   168  ILE168      0.0019
    189  CG2      -34.3470   27.6900  104.2160 C.3   168  ILE168      0.0020
    190  CD1      -33.2610   30.3210  105.1400 C.3   168  ILE168      0.0001
    191  N        -36.4380   26.6410  101.8810 N.am  169  ALA169     -0.1966
    192  CA       -37.2130   25.4160  101.7810 C.3   169  ALA169      0.1728
    193  C        -36.2750   24.2410  101.8740 C.2   169  ALA169      0.2616
    194  O        -35.0540   24.4120  101.9100 O.2   169  ALA169     -0.2715
    195  CB       -37.9780   25.3760  100.4660 C.3   169  ALA169      0.0334
    196  N        -36.8530   23.0500  101.9350 N.am  170  ASP170     -0.1957
    197  CA       -36.0890   21.8090  101.8820 C.3   170  ASP170      0.1840
    198  C        -36.7750   20.8930  100.8710 C.2   170  ASP170      0.2621
    199  O        -37.7760   20.2380  101.1780 O.2   170  ASP170     -0.2715
    200  CB       -35.9870   21.1750  103.2720 C.3   170  ASP170      0.1450
    201  CG       -35.0120   20.0080  103.3220 C.2   170  ASP170      0.3671
    202  OD1      -34.4780   19.5920  102.2740 O.co2 170  ASP170     -0.2456
    203  OD2      -34.7890   19.4840  104.4230 O.co2 170  ASP170     -0.2456
    204  N        -36.2390   20.8890   99.6530 N.am  171  MET171     -0.1977
    205  CA       -36.7920   20.1090   98.5410 C.3   171  MET171      0.1605
    206  C        -36.3630   18.6340   98.5420 C.2   171  MET171      0.2287
    207  O        -37.0420   17.8020   97.9480 O.2   171  MET171     -0.2864
    208  CB       -36.3900   20.7520   97.2040 C.3   171  MET171      0.0413
    209  CG       -36.8110   22.2160   97.0390 C.3   171  MET171      0.0598
    210  SD       -38.5820   22.5000   97.2640 S.3   171  MET171     -0.1393
    211  CE       -39.2720   21.2600   96.1680 C.3   171  MET171      0.0692
    212  N        -40.6900   28.1530   86.3060 N.3   331  ARG331     -0.1245
    213  CA       -40.2460   26.7670   86.4920 C.3   331  ARG331      0.1563
    214  C        -41.0500   25.8490   85.5660 C.2   331  ARG331      0.2260
    215  O        -42.2700   25.9870   85.4420 O.2   331  ARG331     -0.2867
    216  CB       -40.3600   26.3060   87.9530 C.3   331  ARG331      0.0307
    217  CG       -39.5640   25.0360   88.2400 C.3   331  ARG331      0.0489
    218  CD       -39.7520   24.5250   89.6670 C.3   331  ARG331      0.2205
    219  NE       -39.1250   25.3860   90.6820 N.pl3 331  ARG331     -0.0865
    220  CZ       -39.7430   26.3050   91.4300 C.cat 331  ARG331      0.5346
    221  NH1      -41.0550   26.5440   91.3220 N.pl3 331  ARG331      0.1354
    222  NH2      -39.0290   27.0060   92.3120 N.pl3 331  ARG331      0.1354
@<TRIPOS>BOND
     1   215   214    2
     2   214   213    1
     3   212   213    1
     4   213   216    1
     5   216   217    1
     6   217   218    1
     7     6     5    1
     8     2     1    1
     9     2     5    1
    10     2     3    1
    11     5     7    1
    12     4     3    2
    13   218   219    1
    14   136   135    1
    15   134   135   ar
    16   134   132   ar
    17   219   220    2
    18   135   133   ar
    19   221   220    1
    20   220   222    1
    21   132   130   ar
    22    23    22    2
    23   133   131   ar
    24   130   131   ar
    25   130   129    1
    26    22    21    1
    27   140   139    2
    28   139   138    1
    29   129   126    1
    30    20    21    1
    31    21    24    1
    32    25    24    1
    33    24    26    1
    34   128   127    2
    35   138   137    1
    36   138   141    1
    37   127   137   am
    38   127   126    1
    39   126   125    1
    40    28    27    1
    41    28    31    1
    42    28    29    1
    43   125   119   am
    44   211   210    1
    45   182   180    1
    46    29    30    2
    47   176   177    1
    48   176   179    1
    49   176   175    1
    50   177   178    2
    51   209   208    1
    52   209   210    1
    53   179   180    1
    54   208   205    1
    55   119   120    2
    56   119   118    1
    57   180   181    1
    58    32    33    1
    59   207   206    2
    60    33    34    1
    61    33    36    1
    62   109   108    2
    63   118   121    1
    64   118   117    1
    65    34    35    2
    66   205   206    1
    67   205   204    1
    68   121   122    1
    69    36    37    1
    70   108   117   am
    71   108   107    1
    72     8     9    1
    73    37    38    1
    74    10     9    1
    75    10    11    2
    76   123   122   ar
    77   122   124   ar
    78   204   198   am
    79   110   107    1
    80   110   111    1
    81   106   107    1
    82     9    12    1
    83   112   111   ar
    84   112   114   ar
    85    38    39    1
    86   105   103    1
    87   195   192    1
    88    39    40    1
    89    12    13    1
    90   111   113   ar
    91   198   199    2
    92   198   197    1
    93   114   116   ar
    94    15    13   ar
    95    15    17   ar
    96    13    14   ar
    97   103   102    1
    98   192   193    1
    99   192   191    1
   100   193   194    2
   101   193   196   am
   102   191   185   am
   103   197   196    1
   104   197   200    1
   105   113   115   ar
   106    17    18   ar
   107   116   115   ar
   108   202   201   ar
   109   183   184    1
   110    14    16   ar
   111   102   104    1
   112   102    99    1
   113   184   185    1
   114   184   187    1
   115   185   186    2
   116    18    16   ar
   117    18    19    1
   118   200   201    1
   119   201   203   ar
   120    99    98    1
   121    99   100    1
   122   173   174   ar
   123   173   171   ar
   124   174   172   ar
   125    66    64   ar
   126   188   187    1
   127   188   190    1
   128   187   189    1
   129    65    64   ar
   130    98    93   am
   131   100   101    2
   132    64    63    1
   133   171   170   ar
   134   172   170   ar
   135    93    94    2
   136    93    92    1
   137   170   169    1
   138    91    92    1
   139    92    95    1
   140    81    80    1
   141    63    62    1
   142    46    45    1
   143    45    42    1
   144   169   166    1
   145    62    59    1
   146   168   167    2
   147    95    96    1
   148    95    97    1
   149    82    80    1
   150   167   166    1
   151    80    79    1
   152    43    42    1
   153    43    44    2
   154    42    41    1
   155   166   165    1
   156    79    76    1
   157    59    60    1
   158    59    58    1
   159   148   147    1
   160    60    61    2
   161   165   159   am
   162    57    55    1
   163    58    49   am
   164    76    77    1
   165    76    75    1
   166   147   149    1
   167   147   146    1
   168   160   159    2
   169    78    77    2
   170   159   158    1
   171    49    50    2
   172    49    48    1
   173    55    56    1
   174    55    54    2
   175    75    69   am
   176    86    85    2
   177    89    88    1
   178    51    52    1
   179    51    48    1
   180    53    52    1
   181    53    54    1
   182   146   143    1
   183    47    48    1
   184    87    88    1
   185    87    84    1
   186    85    84    1
   187   158   161    1
   188   158   157    1
   189   155   154    1
   190    69    70    2
   191    69    68    1
   192    71    68    1
   193    71    72    1
   194    73    72    1
   195    88    90    1
   196   161   162    1
   197   142   143    1
   198    84    83    1
   199   143   144    1
   200   153   152    2
   201   157   152   am
   202    68    67    1
   203    72    74    1
   204   152   151    1
   205   154   151    1
   206   154   156    1
   207   144   145    2
   208   162   164    1
   209   162   163    1
   210   151   150    1
