@<TRIPOS>MOLECULE
tmp/4f6vA00.pdb
 203 190 0 0 0
SMALL
GASTEIGER

@<TRIPOS>ATOM
      1  N         26.9070   -9.8550   18.7280 N.3    15  MET15      -0.1245
      2  CA        25.8210  -10.4300   17.9410 C.3    15  MET15       0.1570
      3  C         24.4480   -9.8520   18.3150 C.2    15  MET15       0.2261
      4  O         23.6760   -9.4660   17.4370 O.2    15  MET15      -0.2867
      5  CB        25.8300  -11.9630   18.0230 C.3    15  MET15       0.0387
      6  CG        24.9180  -12.6300   17.0120 C.3    15  MET15       0.0595
      7  SD        25.0670  -14.4290   16.9350 S.3    15  MET15      -0.1393
      8  CE        23.9050  -14.7770   15.6160 C.3    15  MET15       0.0692
      9  N         24.1980   -6.2270   16.9650 N.3    18  HIS18      -0.1241
     10  CA        24.2500   -5.9660   15.5320 C.3    18  HIS18       0.1621
     11  C         23.2010   -6.7080   14.7030 C.2    18  HIS18       0.2264
     12  O         22.6830   -6.1570   13.7340 O.2    18  HIS18      -0.2867
     13  CB        25.6580   -6.1900   14.9860 C.3    18  HIS18       0.0745
     14  CG        26.6130   -5.0800   15.3120 C.ar   18  HIS18       0.0817
     15  ND1       27.6430   -5.2240   16.2170 N.ar   18  HIS18      -0.2268
     16  CD2       26.6480   -3.7870   14.9070 C.ar   18  HIS18       0.1154
     17  CE1       28.2850   -4.0760   16.3390 C.ar   18  HIS18       0.1986
     18  NE2       27.6920   -3.1840   15.5660 N.ar   18  HIS18      -0.2212
     19  N         19.1110  -12.8130   14.0410 N.3    22  PHE22      -0.1241
     20  CA        19.9710  -13.9890   14.1800 C.3    22  PHE22       0.1605
     21  C         20.3080  -14.2870   15.6300 C.2    22  PHE22       0.2264
     22  O         20.3910  -15.4510   16.0300 O.2    22  PHE22      -0.2867
     23  CB        21.2550  -13.8300   13.3630 C.3    22  PHE22       0.0534
     24  CG        21.0270  -13.8520   11.8840 C.ar   22  PHE22      -0.0203
     25  CD1       20.2160  -14.8210   11.3140 C.ar   22  PHE22      -0.0042
     26  CD2       21.5310  -12.8480   11.0770 C.ar   22  PHE22      -0.0042
     27  CE1       19.9200  -14.7910    9.9670 C.ar   22  PHE22      -0.0003
     28  CE2       21.2640  -12.8310    9.7230 C.ar   22  PHE22      -0.0003
     29  CZ        20.4600  -13.8060    9.1650 C.ar   22  PHE22      -0.0000
     30  N         19.4870  -17.8150   17.2490 N.3    26  PHE26      -0.1241
     31  CA        20.6110  -18.7150   17.4930 C.3    26  PHE26       0.1605
     32  C         20.9550  -18.8650   18.9740 C.2    26  PHE26       0.2264
     33  O         21.5570  -19.8580   19.3770 O.2    26  PHE26      -0.2867
     34  CB        21.8450  -18.2990   16.6920 C.3    26  PHE26       0.0534
     35  CG        21.7820  -18.6830   15.2400 C.ar   26  PHE26      -0.0203
     36  CD1       21.6160  -20.0100   14.8670 C.ar   26  PHE26      -0.0042
     37  CD2       21.8400  -17.7150   14.2480 C.ar   26  PHE26      -0.0042
     38  CE1       21.5360  -20.3680   13.5300 C.ar   26  PHE26      -0.0003
     39  CE2       21.7530  -18.0620   12.9060 C.ar   26  PHE26      -0.0003
     40  CZ        21.6060  -19.3900   12.5460 C.ar   26  PHE26      -0.0000
     41  N         28.6210  -20.1690   17.3980 N.3    37  VAL37      -0.1245
     42  CA        27.9720  -19.2230   16.4860 C.3    37  VAL37       0.1561
     43  C         28.2520  -17.7610   16.8500 C.2    37  VAL37       0.2260
     44  O         28.5490  -16.9490   15.9690 O.2    37  VAL37      -0.2867
     45  CB        26.4370  -19.4720   16.3900 C.3    37  VAL37       0.0252
     46  CG1       25.7560  -18.3450   15.6330 C.3    37  VAL37       0.0019
     47  CG2       26.1560  -20.8050   15.7100 C.3    37  VAL37       0.0019
     48  N         31.8770  -17.0680   15.4940 N.3    40  ILE40      -0.1231
     49  CA        31.9340  -16.9710   14.0340 C.3    40  ILE40       0.1692
     50  C         31.2530  -15.6970   13.5440 C.2    40  ILE40       0.2592
     51  O         31.8440  -14.9280   12.7840 O.2    40  ILE40      -0.2718
     52  CB        31.3240  -18.2200   13.3490 C.3    40  ILE40       0.0266
     53  CG1       32.3110  -19.3870   13.4340 C.3    40  ILE40       0.0019
     54  CG2       30.9670  -17.9270   11.8940 C.3    40  ILE40       0.0020
     55  CD1       31.6610  -20.7360   13.2670 C.3    40  ILE40       0.0001
     56  N         30.1180  -15.3720   14.1490 N.am   41  TYR41      -0.1976
     57  CA        29.4650  -14.0980   13.8950 C.3    41  TYR41       0.1639
     58  C         30.3740  -12.9100   14.1780 C.2    41  TYR41       0.2290
     59  O         30.4490  -11.9680   13.3830 O.2    41  TYR41      -0.2864
     60  CB        28.1800  -13.9550   14.7090 C.3    41  TYR41       0.0560
     61  CG        27.4890  -12.6440   14.4420 C.ar   41  TYR41      -0.0198
     62  CD1       27.9360  -11.4750   15.0420 C.ar   41  TYR41      -0.0009
     63  CD2       26.5480  -12.5370   13.4280 C.ar   41  TYR41      -0.0009
     64  CE1       27.3920  -10.2460   14.7090 C.ar   41  TYR41       0.0417
     65  CE2       26.0020  -11.3180   13.0880 C.ar   41  TYR41       0.0417
     66  CZ        26.4490  -10.1720   13.7090 C.ar   41  TYR41       0.1957
     67  OH        25.9070   -8.9560   13.3680 O.3    41  TYR41      -0.2866
     68  N         33.1060  -12.4060   11.6800 N.3    44  CYS44      -0.1221
     69  CA        32.5810  -11.9210   10.4120 C.3    44  CYS44       0.1808
     70  C         32.1260  -10.4700   10.5260 C.2    44  CYS44       0.2601
     71  O         32.3240   -9.6770    9.6080 O.2    44  CYS44      -0.2717
     72  CB        31.4260  -12.8040    9.9460 C.3    44  CYS44       0.0970
     73  SG        31.9650  -14.4380    9.4540 S.3    44  CYS44      -0.0800
     74  N         31.6060  -10.1020   11.6910 N.am   45  ARG45      -0.1979
     75  CA        31.2530   -8.7100   11.9420 C.3    45  ARG45       0.1597
     76  C         32.4790   -7.7970   11.9030 C.2    45  ARG45       0.2287
     77  O         32.4430   -6.7210   11.3020 O.2    45  ARG45      -0.2864
     78  CB        30.5070   -8.5620   13.2720 C.3    45  ARG45       0.0334
     79  CG        30.3060   -7.1130   13.7080 C.3    45  ARG45       0.0492
     80  CD        28.9890   -6.5430   13.1900 C.3    45  ARG45       0.2205
     81  NE        29.0550   -6.1930   11.7750 N.pl3  45  ARG45      -0.0865
     82  CZ        28.2640   -6.7140   10.8420 C.cat  45  ARG45       0.5346
     83  NH1       27.3430   -7.6050   11.1800 N.pl3  45  ARG45       0.1354
     84  NH2       28.3810   -6.3330    9.5770 N.pl3  45  ARG45       0.1354
     85  N         33.6780   -7.3170    8.4160 N.3    48  ASP48      -0.1239
     86  CA        32.7720   -6.4640    7.6630 C.3    48  ASP48       0.1674
     87  C         32.9310   -4.9930    8.0380 C.2    48  ASP48       0.2266
     88  O         32.6690   -4.1090    7.2190 O.2    48  ASP48      -0.2867
     89  CB        31.3190   -6.9060    7.8440 C.3    48  ASP48       0.1410
     90  CG        30.3910   -6.2670    6.8250 C.2    48  ASP48       0.3668
     91  OD1       30.6520   -6.4180    5.6120 O.co2  48  ASP48      -0.2456
     92  OD2       29.4670   -5.5330    7.2350 O.co2  48  ASP48      -0.2456
     93  N         35.5850  -14.3030    2.3250 N.3   104  LEU104     -0.1245
     94  CA        34.8660  -13.1550    2.8590 C.3   104  LEU104      0.1561
     95  C         35.7840  -11.9450    2.9440 C.2   104  LEU104      0.2260
     96  O         35.3560  -10.8090    2.7440 O.2   104  LEU104     -0.2867
     97  CB        34.3070  -13.4900    4.2450 C.3   104  LEU104      0.0270
     98  CG        33.7020  -12.3320    5.0440 C.3   104  LEU104      0.0019
     99  CD1       32.6190  -11.6320    4.2340 C.3   104  LEU104      0.0001
    100  CD2       33.1450  -12.8340    6.3810 C.3   104  LEU104      0.0001
    101  N         28.7530  -11.9430   -5.5410 N.3   126  TYR126     -0.1241
    102  CA        28.9330  -11.1360   -4.3460 C.3   126  TYR126      0.1605
    103  C         28.2130  -11.7530   -3.1450 C.2   126  TYR126      0.2264
    104  O         28.7890  -11.8870   -2.0710 O.2   126  TYR126     -0.2867
    105  CB        28.4480   -9.7070   -4.5950 C.3   126  TYR126      0.0534
    106  CG        28.4450   -8.8470   -3.3570 C.ar  126  TYR126     -0.0201
    107  CD1       27.2740   -8.6320   -2.6450 C.ar  126  TYR126     -0.0009
    108  CD2       29.6220   -8.3050   -2.8630 C.ar  126  TYR126     -0.0009
    109  CE1       27.2720   -7.9020   -1.4770 C.ar  126  TYR126      0.0417
    110  CE2       29.6190   -7.5170   -1.7250 C.ar  126  TYR126      0.0417
    111  CZ        28.4450   -7.3410   -1.0240 C.ar  126  TYR126      0.1957
    112  OH        28.4310   -6.5730    0.1190 O.3   126  TYR126     -0.2866
    113  N         30.0220  -12.7840    0.5940 N.3   130  VAL130     -0.1231
    114  CA        29.7850  -12.1530    1.8960 C.3   130  VAL130      0.1692
    115  C         28.8450  -12.9460    2.7900 C.2   130  VAL130      0.2591
    116  O         28.7260  -12.6590    3.9820 O.2   130  VAL130     -0.2718
    117  CB        29.2430  -10.7050    1.7750 C.3   130  VAL130      0.0266
    118  CG1       30.1660   -9.8640    0.9250 C.3   130  VAL130      0.0020
    119  CG2       27.8250  -10.6990    1.2090 C.3   130  VAL130      0.0020
    120  N         28.1640  -13.9340    2.2220 N.am  131  ALA131     -0.1980
    121  CA        27.1560  -14.6510    2.9880 C.3   131  ALA131      0.1597
    122  C         27.2180  -16.1520    2.7630 C.2   131  ALA131      0.2287
    123  O         27.1190  -16.9300    3.7110 O.2   131  ALA131     -0.2864
    124  CB        25.7570  -14.1060    2.6740 C.3   131  ALA131      0.0319
    125  N         29.8590  -17.6630    4.7470 N.3   134  VAL134     -0.1245
    126  CA        29.5060  -17.7370    6.1640 C.3   134  VAL134      0.1561
    127  C         28.5940  -18.9210    6.4560 C.2   134  VAL134      0.2260
    128  O         28.7450  -19.5930    7.4770 O.2   134  VAL134     -0.2867
    129  CB        28.8230  -16.4360    6.6410 C.3   134  VAL134      0.0252
    130  CG1       28.4910  -16.5200    8.1260 C.3   134  VAL134      0.0019
    131  CG2       29.7200  -15.2320    6.3600 C.3   134  VAL134      0.0019
    132  N         29.5820  -22.1450    9.0360 N.3   138  LEU138     -0.1245
    133  CA        28.6640  -22.5200   10.1140 C.3   138  LEU138      0.1561
    134  C         28.2150  -23.9730   10.0050 C.2   138  LEU138      0.2260
    135  O         27.5450  -24.4880   10.8980 O.2   138  LEU138     -0.2867
    136  CB        27.4240  -21.6100   10.1100 C.3   138  LEU138      0.0270
    137  CG        27.6290  -20.1580   10.5440 C.3   138  LEU138      0.0019
    138  CD1       26.3940  -19.2990   10.2500 C.3   138  LEU138      0.0001
    139  CD2       27.9890  -20.1000   12.0130 C.3   138  LEU138      0.0001
    140  N         21.3770  -12.7680    2.3100 N.3   162  GLN162     -0.1245
    141  CA        22.0690  -11.5910    1.7830 C.3   162  GLN162      0.1566
    142  C         21.2070  -10.8120    0.7840 C.2   162  GLN162      0.2260
    143  O         21.1510   -9.5890    0.8260 O.2   162  GLN162     -0.2867
    144  CB        23.4100  -11.9690    1.1550 C.3   162  GLN162      0.0367
    145  CG        24.2270  -10.7790    0.6920 C.3   162  GLN162      0.0905
    146  CD        24.3660   -9.7010    1.7600 C.2   162  GLN162      0.2608
    147  OE1       24.6580   -9.9900    2.9210 O.2   162  GLN162     -0.2717
    148  NE2       24.2620   -8.4450    1.3440 N.am  162  GLN162     -0.0878
    149  N         18.5700   -8.9830    2.6320 N.3   165  ASN165     -0.1240
    150  CA        19.3020   -7.8340    3.1350 C.3   165  ASN165      0.1653
    151  C         19.4070   -6.6800    2.1350 C.2   165  ASN165      0.2266
    152  O         19.1470   -5.5300    2.4740 O.2   165  ASN165     -0.2867
    153  CB        20.7000   -8.2770    3.5620 C.3   165  ASN165      0.1155
    154  CG        21.3410   -7.3190    4.5210 C.2   165  ASN165      0.2627
    155  OD1       22.0270   -6.3790    4.1120 O.2   165  ASN165     -0.2716
    156  ND2       21.1880   -7.5900    5.8110 N.am  165  ASN165     -0.0877
    157  N         16.2780   -4.8580    1.6560 N.3   168  ARG168     -0.1231
    158  CA        15.8230   -4.0270    2.7700 C.3   168  ARG168      0.1694
    159  C         16.4770   -2.6510    2.6880 C.2   168  ARG168      0.2592
    160  O         15.8810   -1.6480    3.0530 O.2   168  ARG168     -0.2718
    161  CB        16.1650   -4.7000    4.1100 C.3   168  ARG168      0.0321
    162  CG        15.4850   -4.0770    5.3380 C.3   168  ARG168      0.0489
    163  CD        16.1560   -4.5180    6.6490 C.3   168  ARG168      0.2205
    164  NE        17.5860   -4.2220    6.6390 N.pl3 168  ARG168     -0.0865
    165  CZ        18.4900   -4.8250    7.4050 C.cat 168  ARG168      0.5346
    166  NH1       18.1210   -5.7550    8.2760 N.pl3 168  ARG168      0.1354
    167  NH2       19.7740   -4.5230    7.2720 N.pl3 168  ARG168      0.1354
    168  N         17.7010   -2.6150    2.1830 N.am  169  ASP169     -0.1974
    169  CA        18.6160   -1.5270    2.4650 C.3   169  ASP169      0.1709
    170  C         18.8770   -0.7180    1.1990 C.2   169  ASP169      0.2293
    171  O         19.8360    0.0560    1.1380 O.2   169  ASP169     -0.2864
    172  CB        19.9460   -2.0750    3.0060 C.3   169  ASP169      0.1436
    173  CG        19.7900   -2.8120    4.3290 C.2   169  ASP169      0.3671
    174  OD1       18.8230   -2.5370    5.0740 O.co2 169  ASP169     -0.2456
    175  OD2       20.6880   -3.6110    4.6640 O.co2 169  ASP169     -0.2456
    176  N         19.3230    3.0390    1.9870 N.3   172  GLU172     -0.1231
    177  CA        20.4940    3.2890    2.8150 C.3   172  GLU172      0.1699
    178  C         21.7770    2.9810    2.0520 C.2   172  GLU172      0.2592
    179  O         22.7780    3.6940    2.1820 O.2   172  GLU172     -0.2718
    180  CB        20.4210    2.4580    4.0950 C.3   172  GLU172      0.0402
    181  CG        21.7080    2.4360    4.9050 C.3   172  GLU172      0.1161
    182  CD        21.6010    1.5740    6.1550 C.2   172  GLU172      0.3649
    183  OE1       20.5640    0.8920    6.3330 O.co2 172  GLU172     -0.2457
    184  OE2       22.5330    1.6260    6.9860 O.co2 172  GLU172     -0.2457
    185  N         21.7420    1.9250    1.2450 N.am  173  ASP173     -0.1974
    186  CA        22.8780    1.5880    0.3930 C.3   173  ASP173      0.1709
    187  C         23.1470    2.6760   -0.6540 C.2   173  ASP173      0.2293
    188  O         24.3000    3.0470   -0.8970 O.2   173  ASP173     -0.2864
    189  CB        22.6740    0.2240   -0.2770 C.3   173  ASP173      0.1436
    190  CG        22.9750   -0.9410    0.6580 C.2   173  ASP173      0.3671
    191  OD1       23.8060   -0.7740    1.5730 O.co2 173  ASP173     -0.2456
    192  OD2       22.3480   -2.0110    0.5090 O.co2 173  ASP173     -0.2456
    193  N         14.9380    2.0040    7.2060 N.3   262  ARG262     -0.1245
    194  CA        15.0970    0.5720    7.4450 C.3   262  ARG262      0.1563
    195  C         13.8650   -0.0310    8.1200 C.2   262  ARG262      0.2260
    196  O         13.6060    0.2310    9.2880 O.2   262  ARG262     -0.2867
    197  CB        16.3470    0.2920    8.2860 C.3   262  ARG262      0.0307
    198  CG        16.7070   -1.1910    8.3630 C.3   262  ARG262      0.0489
    199  CD        17.9040   -1.4480    9.2650 C.3   262  ARG262      0.2205
    200  NE        19.1660   -1.1910    8.5800 N.pl3 262  ARG262     -0.0865
    201  CZ        20.3510   -1.6250    9.0040 C.cat 262  ARG262      0.5346
    202  NH1       20.4340   -2.3580   10.1070 N.pl3 262  ARG262      0.1354
    203  NH2       21.4510   -1.3510    8.3090 N.pl3 262  ARG262      0.1354
@<TRIPOS>BOND
     1   101   102    1
     2   105   102    1
     3   105   106    1
     4   102   103    1
     5   106   108   ar
     6   106   107   ar
     7   103   104    2
     8   108   110   ar
     9   107   109   ar
    10   110   111   ar
    11   109   111   ar
    12   111   112    1
    13   188   187    2
    14   187   186    1
    15   189   186    1
    16   189   190    1
    17   186   185    1
    18   192   190   ar
    19   113   114    1
    20   190   191   ar
    21   145   144    1
    22   145   146    1
    23   142   143    2
    24   142   141    1
    25   118   117    1
    26   171   170    2
    27   144   141    1
    28   170   169    1
    29   119   117    1
    30   185   178   am
    31   148   146   am
    32   157   158    1
    33   146   147    2
    34   117   114    1
    35   141   140    1
    36   114   115    1
    37   176   177    1
    38   178   179    2
    39   178   177    1
    40   151   152    2
    41   151   150    1
    42   168   169    1
    43   168   159   am
    44   120   115   am
    45   120   121    1
    46    93    94    1
    47   169   172    1
    48   149   150    1
    49   124   121    1
    50   159   158    1
    51   159   160    2
    52    96    95    2
    53   122   121    1
    54   122   123    2
    55   158   161    1
    56   115   116    2
    57   177   180    1
    58    94    95    1
    59    94    97    1
    60   172   173    1
    61   150   153    1
    62   153   154    1
    63   180   181    1
    64   161   162    1
    65   155   154    2
    66    99    98    1
    67    97    98    1
    68   173   175   ar
    69   173   174   ar
    70   154   156   am
    71   125   126    1
    72   181   182    1
    73    98   100    1
    74   162   163    1
    75    91    90   ar
    76   182   183   ar
    77   182   184   ar
    78   126   127    1
    79   126   129    1
    80   131   129    1
    81   127   128    2
    82   164   163    1
    83   164   165    2
    84   129   130    1
    85    90    92   ar
    86    90    89    1
    87   193   194    1
    88    88    87    2
    89   167   165    1
    90   165   166    1
    91   194   195    1
    92   194   197    1
    93    86    89    1
    94    86    87    1
    95    86    85    1
    96   195   196    2
    97   197   198    1
    98   203   201    1
    99   198   199    1
   100   200   201    2
   101   200   199    1
   102   201   202    1
   103   132   133    1
   104    29    28   ar
   105    29    27   ar
   106    73    72    1
   107    84    82    1
   108    71    70    2
   109    28    26   ar
   110    72    69    1
   111    27    25   ar
   112   134   133    1
   113   134   135    2
   114   136   133    1
   115   136   137    1
   116   138   137    1
   117    69    70    1
   118    69    68    1
   119    70    74   am
   120   137   139    1
   121    82    83    1
   122    82    81    2
   123    26    24   ar
   124    77    76    2
   125    25    24   ar
   126    74    75    1
   127    81    80    1
   128    24    23    1
   129    54    52    1
   130    76    75    1
   131    75    78    1
   132    40    39   ar
   133    40    38   ar
   134    51    50    2
   135    39    37   ar
   136    65    63   ar
   137    65    66   ar
   138    80    79    1
   139    55    53    1
   140    78    79    1
   141    52    53    1
   142    52    49    1
   143    23    20    1
   144    67    66    1
   145    59    58    2
   146    63    61   ar
   147    38    36   ar
   148    50    49    1
   149    50    56   am
   150    66    64   ar
   151    12    11    2
   152    57    56    1
   153    57    58    1
   154    57    60    1
   155    49    48    1
   156    19    20    1
   157    20    21    1
   158    37    35   ar
   159    61    60    1
   160    61    62   ar
   161    11    10    1
   162    64    62   ar
   163    36    35   ar
   164    16    14   ar
   165    16    18   ar
   166    13    14    1
   167    13    10    1
   168    35    34    1
   169    14    15   ar
   170    10     9    1
   171    18    17   ar
   172     8     7    1
   173    21    22    2
   174    46    45    1
   175    47    45    1
   176    44    43    2
   177    15    17   ar
   178    45    42    1
   179    42    43    1
   180    42    41    1
   181    34    31    1
   182     7     6    1
   183     6     5    1
   184    30    31    1
   185     4     3    2
   186    31    32    1
   187     2     5    1
   188     2     3    1
   189     2     1    1
   190    32    33    2
