@<TRIPOS>MOLECULE
tmp/4f6vA02.pdb
 189 177 0 0 0
SMALL
GASTEIGER

@<TRIPOS>ATOM
      1  N         24.1980   -6.2270   16.9650 N.3    18  HIS18      -0.1226
      2  CA        24.2500   -5.9660   15.5320 C.3    18  HIS18       0.1752
      3  C         23.2010   -6.7080   14.7030 C.2    18  HIS18       0.2596
      4  O         22.6830   -6.1570   13.7340 O.2    18  HIS18      -0.2718
      5  CB        25.6580   -6.1900   14.9860 C.3    18  HIS18       0.0759
      6  CG        26.6130   -5.0800   15.3120 C.ar   18  HIS18       0.0818
      7  ND1       27.6430   -5.2240   16.2170 N.ar   18  HIS18      -0.2268
      8  CD2       26.6480   -3.7870   14.9070 C.ar   18  HIS18       0.1154
      9  CE1       28.2850   -4.0760   16.3390 C.ar   18  HIS18       0.1986
     10  NE2       27.6920   -3.1840   15.5660 N.ar   18  HIS18      -0.2212
     11  N         22.8300   -7.9160   15.1260 N.am   19  SER19      -0.1952
     12  CA        21.7460   -8.6550   14.4690 C.3    19  SER19       0.1924
     13  C         20.7100   -9.2040   15.4480 C.2    19  SER19       0.2314
     14  O         20.8430  -10.3270   15.9390 O.2    19  SER19      -0.2863
     15  CB        22.2910   -9.7970   13.6020 C.3    19  SER19       0.2116
     16  OG        21.2380  -10.4170   12.8730 O.3    19  SER19      -0.2180
     17  N         19.1110  -12.8130   14.0410 N.3    22  PHE22      -0.1241
     18  CA        19.9710  -13.9890   14.1800 C.3    22  PHE22       0.1605
     19  C         20.3080  -14.2870   15.6300 C.2    22  PHE22       0.2264
     20  O         20.3910  -15.4510   16.0300 O.2    22  PHE22      -0.2867
     21  CB        21.2550  -13.8300   13.3630 C.3    22  PHE22       0.0534
     22  CG        21.0270  -13.8520   11.8840 C.ar   22  PHE22      -0.0203
     23  CD1       20.2160  -14.8210   11.3140 C.ar   22  PHE22      -0.0042
     24  CD2       21.5310  -12.8480   11.0770 C.ar   22  PHE22      -0.0042
     25  CE1       19.9200  -14.7910    9.9670 C.ar   22  PHE22      -0.0003
     26  CE2       21.2640  -12.8310    9.7230 C.ar   22  PHE22      -0.0003
     27  CZ        20.4600  -13.8060    9.1650 C.ar   22  PHE22      -0.0000
     28  N         19.4870  -17.8150   17.2490 N.3    26  PHE26      -0.1241
     29  CA        20.6110  -18.7150   17.4930 C.3    26  PHE26       0.1605
     30  C         20.9550  -18.8650   18.9740 C.2    26  PHE26       0.2264
     31  O         21.5570  -19.8580   19.3770 O.2    26  PHE26      -0.2867
     32  CB        21.8450  -18.2990   16.6920 C.3    26  PHE26       0.0534
     33  CG        21.7820  -18.6830   15.2400 C.ar   26  PHE26      -0.0203
     34  CD1       21.6160  -20.0100   14.8670 C.ar   26  PHE26      -0.0042
     35  CD2       21.8400  -17.7150   14.2480 C.ar   26  PHE26      -0.0042
     36  CE1       21.5360  -20.3680   13.5300 C.ar   26  PHE26      -0.0003
     37  CE2       21.7530  -18.0620   12.9060 C.ar   26  PHE26      -0.0003
     38  CZ        21.6060  -19.3900   12.5460 C.ar   26  PHE26      -0.0000
     39  N         30.1180  -15.3720   14.1490 N.3    41  TYR41      -0.1241
     40  CA        29.4650  -14.0980   13.8950 C.3    41  TYR41       0.1605
     41  C         30.3740  -12.9100   14.1780 C.2    41  TYR41       0.2264
     42  O         30.4490  -11.9680   13.3830 O.2    41  TYR41      -0.2867
     43  CB        28.1800  -13.9550   14.7090 C.3    41  TYR41       0.0534
     44  CG        27.4890  -12.6440   14.4420 C.ar   41  TYR41      -0.0201
     45  CD1       27.9360  -11.4750   15.0420 C.ar   41  TYR41      -0.0009
     46  CD2       26.5480  -12.5370   13.4280 C.ar   41  TYR41      -0.0009
     47  CE1       27.3920  -10.2460   14.7090 C.ar   41  TYR41       0.0417
     48  CE2       26.0020  -11.3180   13.0880 C.ar   41  TYR41       0.0417
     49  CZ        26.4490  -10.1720   13.7090 C.ar   41  TYR41       0.1957
     50  OH        25.9070   -8.9560   13.3680 O.3    41  TYR41      -0.2866
     51  N         31.6060  -10.1020   11.6910 N.3    45  ARG45      -0.1245
     52  CA        31.2530   -8.7100   11.9420 C.3    45  ARG45       0.1563
     53  C         32.4790   -7.7970   11.9030 C.2    45  ARG45       0.2260
     54  O         32.4430   -6.7210   11.3020 O.2    45  ARG45      -0.2867
     55  CB        30.5070   -8.5620   13.2720 C.3    45  ARG45       0.0307
     56  CG        30.3060   -7.1130   13.7080 C.3    45  ARG45       0.0489
     57  CD        28.9890   -6.5430   13.1900 C.3    45  ARG45       0.2205
     58  NE        29.0550   -6.1930   11.7750 N.pl3  45  ARG45      -0.0865
     59  CZ        28.2640   -6.7140   10.8420 C.cat  45  ARG45       0.5346
     60  NH1       27.3430   -7.6050   11.1800 N.pl3  45  ARG45       0.1354
     61  NH2       28.3810   -6.3330    9.5770 N.pl3  45  ARG45       0.1354
     62  N         30.0220  -12.7840    0.5940 N.3   130  VAL130     -0.1231
     63  CA        29.7850  -12.1530    1.8960 C.3   130  VAL130      0.1692
     64  C         28.8450  -12.9460    2.7900 C.2   130  VAL130      0.2591
     65  O         28.7260  -12.6590    3.9820 O.2   130  VAL130     -0.2718
     66  CB        29.2430  -10.7050    1.7750 C.3   130  VAL130      0.0266
     67  CG1       30.1660   -9.8640    0.9250 C.3   130  VAL130      0.0020
     68  CG2       27.8250  -10.6990    1.2090 C.3   130  VAL130      0.0020
     69  N         28.1640  -13.9340    2.2220 N.am  131  ALA131     -0.1980
     70  CA        27.1560  -14.6510    2.9880 C.3   131  ALA131      0.1597
     71  C         27.2180  -16.1520    2.7630 C.2   131  ALA131      0.2287
     72  O         27.1190  -16.9300    3.7110 O.2   131  ALA131     -0.2864
     73  CB        25.7570  -14.1060    2.6740 C.3   131  ALA131      0.0319
     74  N         29.8590  -17.6630    4.7470 N.3   134  VAL134     -0.1231
     75  CA        29.5060  -17.7370    6.1640 C.3   134  VAL134      0.1692
     76  C         28.5940  -18.9210    6.4560 C.2   134  VAL134      0.2592
     77  O         28.7450  -19.5930    7.4770 O.2   134  VAL134     -0.2718
     78  CB        28.8230  -16.4360    6.6410 C.3   134  VAL134      0.0266
     79  CG1       28.4910  -16.5200    8.1260 C.3   134  VAL134      0.0020
     80  CG2       29.7200  -15.2320    6.3600 C.3   134  VAL134      0.0020
     81  N         27.6690  -19.1930    5.5370 N.am  135  GLY135     -0.1957
     82  CA        26.8770  -20.4180    5.5790 C.3   135  GLY135      0.1869
     83  C         27.7450  -21.6610    5.6260 C.2   135  GLY135      0.2309
     84  O         27.4530  -22.6080    6.3580 O.2   135  GLY135     -0.2863
     85  N         29.5820  -22.1450    9.0360 N.3   138  LEU138     -0.1245
     86  CA        28.6640  -22.5200   10.1140 C.3   138  LEU138      0.1561
     87  C         28.2150  -23.9730   10.0050 C.2   138  LEU138      0.2260
     88  O         27.5450  -24.4880   10.8980 O.2   138  LEU138     -0.2867
     89  CB        27.4240  -21.6100   10.1100 C.3   138  LEU138      0.0270
     90  CG        27.6290  -20.1580   10.5440 C.3   138  LEU138      0.0019
     91  CD1       26.3940  -19.2990   10.2500 C.3   138  LEU138      0.0001
     92  CD2       27.9890  -20.1000   12.0130 C.3   138  LEU138      0.0001
     93  N         26.2930  -26.6110   12.7590 N.3   142  LEU142     -0.1245
     94  CA        24.8410  -26.7910   12.7460 C.3   142  LEU142      0.1561
     95  C         24.3790  -28.1520   12.2100 C.2   142  LEU142      0.2260
     96  O         23.1790  -28.3860   12.0510 O.2   142  LEU142     -0.2867
     97  CB        24.1540  -25.6570   11.9730 C.3   142  LEU142      0.0270
     98  CG        24.4070  -24.2150   12.4330 C.3   142  LEU142      0.0019
     99  CD1       23.5880  -23.2310   11.6160 C.3   142  LEU142      0.0001
    100  CD2       24.1190  -24.0410   13.9070 C.3   142  LEU142      0.0001
    101  N         23.3570  -24.7830    3.2340 N.3   154  ALA154     -0.1245
    102  CA        23.7890  -23.7040    4.1120 C.3   154  ALA154      0.1562
    103  C         24.2140  -22.4800    3.2940 C.2   154  ALA154      0.2260
    104  O         23.8420  -21.3480    3.6060 O.2   154  ALA154     -0.2867
    105  CB        24.9370  -24.1810    5.0010 C.3   154  ALA154      0.0290
    106  N         21.2210  -20.8240    1.6840 N.3   157  LEU157     -0.1231
    107  CA        20.4920  -20.0630    2.6930 C.3   157  LEU157      0.1693
    108  C         21.1780  -18.7220    2.9250 C.2   157  LEU157      0.2592
    109  O         20.5400  -17.6720    2.8700 O.2   157  LEU157     -0.2718
    110  CB        20.3820  -20.8400    4.0100 C.3   157  LEU157      0.0284
    111  CG        19.7030  -20.0560    5.1400 C.3   157  LEU157      0.0019
    112  CD1       18.2970  -19.6350    4.7190 C.3   157  LEU157      0.0001
    113  CD2       19.6670  -20.8630    6.4290 C.3   157  LEU157      0.0001
    114  N         22.4910  -18.7650    3.1470 N.am  158  GLY158     -0.1957
    115  CA        23.2740  -17.5530    3.3680 C.3   158  GLY158      0.1869
    116  C         23.0970  -16.5410    2.2530 C.2   158  GLY158      0.2309
    117  O         22.9260  -15.3490    2.5060 O.2   158  GLY158     -0.2863
    118  N         19.4900  -14.9280    2.3390 N.3   161  LEU161     -0.1231
    119  CA        19.4920  -13.8980    3.3770 C.3   161  LEU161      0.1693
    120  C         20.2340  -12.6220    2.9680 C.2   161  LEU161      0.2591
    121  O         19.7850  -11.5100    3.2650 O.2   161  LEU161     -0.2718
    122  CB        20.0740  -14.4510    4.6780 C.3   161  LEU161      0.0284
    123  CG        19.4070  -15.7280    5.1980 C.3   161  LEU161      0.0019
    124  CD1       20.2230  -16.3730    6.3220 C.3   161  LEU161      0.0001
    125  CD2       18.0050  -15.4310    5.6720 C.3   161  LEU161      0.0001
    126  N         21.3770  -12.7680    2.3100 N.am  162  GLN162     -0.1979
    127  CA        22.0690  -11.5910    1.7830 C.3   162  GLN162      0.1601
    128  C         21.2070  -10.8120    0.7840 C.2   162  GLN162      0.2287
    129  O         21.1510   -9.5890    0.8260 O.2   162  GLN162     -0.2864
    130  CB        23.4100  -11.9690    1.1550 C.3   162  GLN162      0.0394
    131  CG        24.2270  -10.7790    0.6920 C.3   162  GLN162      0.0908
    132  CD        24.3660   -9.7010    1.7600 C.2   162  GLN162      0.2608
    133  OE1       24.6580   -9.9900    2.9210 O.2   162  GLN162     -0.2717
    134  NE2       24.2620   -8.4450    1.3440 N.am  162  GLN162     -0.0878
    135  N         18.5700   -8.9830    2.6320 N.3   165  ASN165     -0.1240
    136  CA        19.3020   -7.8340    3.1350 C.3   165  ASN165      0.1653
    137  C         19.4070   -6.6800    2.1350 C.2   165  ASN165      0.2266
    138  O         19.1470   -5.5300    2.4740 O.2   165  ASN165     -0.2867
    139  CB        20.7000   -8.2770    3.5620 C.3   165  ASN165      0.1155
    140  CG        21.3410   -7.3190    4.5210 C.2   165  ASN165      0.2627
    141  OD1       22.0270   -6.3790    4.1120 O.2   165  ASN165     -0.2716
    142  ND2       21.1880   -7.5900    5.8110 N.am  165  ASN165     -0.0877
    143  N         16.2780   -4.8580    1.6560 N.3   168  ARG168     -0.1245
    144  CA        15.8230   -4.0270    2.7700 C.3   168  ARG168      0.1563
    145  C         16.4770   -2.6510    2.6880 C.2   168  ARG168      0.2260
    146  O         15.8810   -1.6480    3.0530 O.2   168  ARG168     -0.2867
    147  CB        16.1650   -4.7000    4.1100 C.3   168  ARG168      0.0307
    148  CG        15.4850   -4.0770    5.3380 C.3   168  ARG168      0.0489
    149  CD        16.1560   -4.5180    6.6490 C.3   168  ARG168      0.2205
    150  NE        17.5860   -4.2220    6.6390 N.pl3 168  ARG168     -0.0865
    151  CZ        18.4900   -4.8250    7.4050 C.cat 168  ARG168      0.5346
    152  NH1       18.1210   -5.7550    8.2760 N.pl3 168  ARG168      0.1354
    153  NH2       19.7740   -4.5230    7.2720 N.pl3 168  ARG168      0.1354
    154  N         20.4570  -30.6660    8.5070 N.3   230  PHE230     -0.1241
    155  CA        20.9610  -30.0760    9.7370 C.3   230  PHE230      0.1605
    156  C         20.5590  -30.9230   10.9370 C.2   230  PHE230      0.2264
    157  O         19.5880  -31.6810   10.8760 O.2   230  PHE230     -0.2867
    158  CB        20.4470  -28.6450    9.8970 C.3   230  PHE230      0.0534
    159  CG        20.9110  -27.7090    8.8140 C.ar  230  PHE230     -0.0203
    160  CD1       22.2520  -27.3870    8.6860 C.ar  230  PHE230     -0.0042
    161  CD2       19.9980  -27.1150    7.9550 C.ar  230  PHE230     -0.0042
    162  CE1       22.6850  -26.5370    7.6800 C.ar  230  PHE230     -0.0003
    163  CE2       20.4250  -26.2540    6.9550 C.ar  230  PHE230     -0.0003
    164  CZ        21.7720  -25.9980    6.7940 C.ar  230  PHE230     -0.0000
    165  N         17.1600  -22.8420   12.6260 N.3   238  ILE238     -0.1245
    166  CA        17.5240  -22.3270   11.3140 C.3   238  ILE238      0.1561
    167  C         16.2760  -21.9220   10.5370 C.2   238  ILE238      0.2260
    168  O         16.2590  -20.8870    9.8680 O.2   238  ILE238     -0.2867
    169  CB        18.3470  -23.3600   10.5050 C.3   238  ILE238      0.0252
    170  CG1       19.7510  -23.5090   11.1040 C.3   238  ILE238      0.0019
    171  CG2       18.4260  -22.9570    9.0460 C.3   238  ILE238      0.0019
    172  CD1       20.4650  -24.8140   10.7130 C.3   238  ILE238      0.0001
    173  N         15.3530  -18.5170   12.1360 N.3   241  ALA241     -0.1245
    174  CA        16.2210  -17.4640   11.6020 C.3   241  ALA241      0.1562
    175  C         15.8500  -17.0810   10.1700 C.2   241  ALA241      0.2260
    176  O         15.7530  -15.8980    9.8350 O.2   241  ALA241     -0.2867
    177  CB        17.6850  -17.8940   11.6750 C.3   241  ALA241      0.0290
    178  N         13.7810  -13.6490    8.8470 N.3   245  TYR245     -0.1241
    179  CA        14.4770  -12.7850    7.8960 C.3   245  TYR245      0.1605
    180  C         13.6660  -12.5640    6.6230 C.2   245  TYR245      0.2264
    181  O         13.5690  -11.4420    6.1330 O.2   245  TYR245     -0.2867
    182  CB        15.8650  -13.3380    7.5650 C.3   245  TYR245      0.0534
    183  CG        16.9400  -12.2790    7.5360 C.ar  245  TYR245     -0.0201
    184  CD1       17.3400  -11.7060    6.3390 C.ar  245  TYR245     -0.0009
    185  CD2       17.5050  -11.8010    8.7120 C.ar  245  TYR245     -0.0009
    186  CE1       18.2850  -10.7070    6.3070 C.ar  245  TYR245      0.0417
    187  CE2       18.4380  -10.7740    8.6930 C.ar  245  TYR245      0.0417
    188  CZ        18.8170  -10.2280    7.4860 C.ar  245  TYR245      0.1957
    189  OH        19.7440   -9.2120    7.4430 O.3   245  TYR245     -0.2866
@<TRIPOS>BOND
     1    62    63    1
     2   131   130    1
     3   131   132    1
     4   128   129    2
     5   128   127    1
     6    67    66    1
     7   130   127    1
     8    68    66    1
     9   134   132   am
    10   143   144    1
    11   106   107    1
    12   132   133    2
    13    66    63    1
    14   127   126    1
    15    63    64    1
    16   137   138    2
    17   137   136    1
    18    69    64   am
    19    69    70    1
    20   116   117    2
    21   116   115    1
    22   126   120   am
    23   118   119    1
    24   135   136    1
    25    73    70    1
    26   145   144    1
    27   145   146    2
    28   107   108    1
    29   107   110    1
    30    71    70    1
    31    71    72    2
    32   144   147    1
    33    64    65    2
    34   109   108    2
    35   108   114   am
    36   120   121    2
    37   120   119    1
    38   136   139    1
    39   114   115    1
    40   101   102    1
    41   103   104    2
    42   103   102    1
    43   119   122    1
    44   139   140    1
    45   110   111    1
    46   147   148    1
    47   141   140    2
    48   102   105    1
    49   140   142   am
    50   122   123    1
    51   112   111    1
    52    74    75    1
    53   111   113    1
    54   123   125    1
    55   123   124    1
    56   148   149    1
    57    81    82    1
    58    81    76   am
    59    82    83    1
    60    83    84    2
    61   181   180    2
    62    75    76    1
    63    75    78    1
    64   186   184   ar
    65   186   188   ar
    66   184   183   ar
    67    80    78    1
    68    76    77    2
    69   180   179    1
    70   150   149    1
    71   150   151    2
    72    78    79    1
    73   164   163   ar
    74   164   162   ar
    75   163   161   ar
    76   153   151    1
    77   151   152    1
    78   189   188    1
    79   188   187   ar
    80   183   182    1
    81   183   185   ar
    82   182   179    1
    83   162   160   ar
    84   179   178    1
    85   161   159   ar
    86   154   155    1
    87   160   159   ar
    88   187   185   ar
    89   159   158    1
    90    85    86    1
    91   171   169    1
    92    27    26   ar
    93    27    25   ar
    94    61    59    1
    95    26    24   ar
    96   155   158    1
    97   155   156    1
    98   176   175    2
    99   168   167    2
   100    25    23   ar
   101    87    86    1
   102    87    88    2
   103    89    86    1
   104    89    90    1
   105   175   174    1
   106    91    90    1
   107   169   170    1
   108   169   166    1
   109   167   166    1
   110    90    92    1
   111   172   170    1
   112    59    60    1
   113    59    58    2
   114   157   156    2
   115    24    22   ar
   116    54    53    2
   117    23    22   ar
   118   166   165    1
   119   174   177    1
   120   174   173    1
   121    99    98    1
   122    51    52    1
   123    58    57    1
   124    22    21    1
   125    53    52    1
   126    52    55    1
   127    97    98    1
   128    97    94    1
   129    96    95    2
   130    95    94    1
   131    98   100    1
   132    38    37   ar
   133    38    36   ar
   134    94    93    1
   135    16    15    1
   136    37    35   ar
   137    48    46   ar
   138    48    49   ar
   139    57    56    1
   140    55    56    1
   141    21    18    1
   142    50    49    1
   143    42    41    2
   144    46    44   ar
   145    36    34   ar
   146    15    12    1
   147    49    47   ar
   148     4     3    2
   149    40    39    1
   150    40    41    1
   151    40    43    1
   152    17    18    1
   153    18    19    1
   154    35    33   ar
   155    44    43    1
   156    44    45   ar
   157    12    11    1
   158    12    13    1
   159     3    11   am
   160     3     2    1
   161    47    45   ar
   162    34    33   ar
   163     8     6   ar
   164     8    10   ar
   165     5     6    1
   166     5     2    1
   167    33    32    1
   168     6     7   ar
   169    13    14    2
   170     2     1    1
   171    10     9   ar
   172    19    20    2
   173     7     9   ar
   174    32    29    1
   175    28    29    1
   176    29    30    1
   177    30    31    2
