@<TRIPOS>MOLECULE
tmp/4f6xA00.pdb
 210 197 0 0 0
SMALL
GASTEIGER

@<TRIPOS>ATOM
      1  N        -24.5570    6.1970   15.7950 N.3    18  HIS18      -0.1226
      2  CA       -24.4150    6.1480   14.3620 C.3    18  HIS18       0.1752
      3  C        -23.0710    6.6970   13.8780 C.2    18  HIS18       0.2596
      4  O        -22.4970    6.1800   12.9160 O.2    18  HIS18      -0.2718
      5  CB       -25.5480    6.9130   13.6910 C.3    18  HIS18       0.0759
      6  CG       -25.4260    6.9570   12.2070 C.ar   18  HIS18       0.0818
      7  ND1      -25.6150    5.8430   11.4170 N.ar   18  HIS18      -0.2268
      8  CD2      -25.0980    7.9670   11.3670 C.ar   18  HIS18       0.1154
      9  CE1      -25.4200    6.1690   10.1510 C.ar   18  HIS18       0.1986
     10  NE2      -25.1140    7.4530   10.0930 N.ar   18  HIS18      -0.2212
     11  N        -22.5770    7.7500   14.5260 N.am   19  SER19      -0.1952
     12  CA       -21.3580    8.4060   14.0530 C.3    19  SER19       0.1924
     13  C        -20.4820    9.0210   15.1530 C.2    19  SER19       0.2314
     14  O        -20.7990   10.0710   15.7060 O.2    19  SER19      -0.2863
     15  CB       -21.6790    9.4500   12.9820 C.3    19  SER19       0.2116
     16  OG       -20.4870   10.0740   12.5400 O.3    19  SER19      -0.2180
     17  N        -19.0360   12.5180   13.8310 N.3    22  PHE22      -0.1241
     18  CA       -19.8770   13.7060   13.9050 C.3    22  PHE22       0.1605
     19  C        -20.1930   14.0600   15.3360 C.2    22  PHE22       0.2264
     20  O        -20.2120   15.2310   15.6860 O.2    22  PHE22      -0.2867
     21  CB       -21.1480   13.5530   13.0600 C.3    22  PHE22       0.0534
     22  CG       -20.8730   13.4620   11.5990 C.ar   22  PHE22      -0.0203
     23  CD1      -19.7500   14.0640   11.0630 C.ar   22  PHE22      -0.0042
     24  CD2      -21.7110   12.7600   10.7610 C.ar   22  PHE22      -0.0042
     25  CE1      -19.4770   13.9800    9.7110 C.ar   22  PHE22      -0.0003
     26  CE2      -21.4400   12.6700    9.4060 C.ar   22  PHE22      -0.0003
     27  CZ       -20.3210   13.2790    8.8840 C.ar   22  PHE22      -0.0000
     28  N        -19.3630   17.6830   16.8510 N.3    26  PHE26      -0.1241
     29  CA       -20.5070   18.5560   17.1380 C.3    26  PHE26       0.1605
     30  C        -20.8350   18.7140   18.6060 C.2    26  PHE26       0.2264
     31  O        -21.4410   19.7030   18.9950 O.2    26  PHE26      -0.2867
     32  CB       -21.7470   18.1180   16.3610 C.3    26  PHE26       0.0534
     33  CG       -21.6620   18.4070   14.8980 C.ar   26  PHE26      -0.0203
     34  CD1      -21.7940   19.7070   14.4280 C.ar   26  PHE26      -0.0042
     35  CD2      -21.4260   17.3910   13.9930 C.ar   26  PHE26      -0.0042
     36  CE1      -21.7070   19.9870   13.0740 C.ar   26  PHE26      -0.0003
     37  CE2      -21.3380   17.6580   12.6370 C.ar   26  PHE26      -0.0003
     38  CZ       -21.4820   18.9600   12.1720 C.ar   26  PHE26      -0.0000
     39  N        -30.2120   15.6410   13.6370 N.3    41  TYR41      -0.1241
     40  CA       -29.4710   14.4520   13.2540 C.3    41  TYR41       0.1605
     41  C        -30.2490   13.1890   13.6320 C.2    41  TYR41       0.2264
     42  O        -30.3470   12.2470   12.8310 O.2    41  TYR41      -0.2867
     43  CB       -28.0950   14.4380   13.9280 C.3    41  TYR41       0.0534
     44  CG       -27.1320   13.4500   13.3070 C.ar   41  TYR41      -0.0201
     45  CD1      -27.1490   12.1100   13.6700 C.ar   41  TYR41      -0.0009
     46  CD2      -26.2230   13.8590   12.3380 C.ar   41  TYR41      -0.0009
     47  CE1      -26.2670   11.2040   13.1050 C.ar   41  TYR41       0.0417
     48  CE2      -25.3360   12.9570   11.7560 C.ar   41  TYR41       0.0417
     49  CZ       -25.3640   11.6330   12.1400 C.ar   41  TYR41       0.1957
     50  OH       -24.4930   10.7400   11.5530 O.3    41  TYR41      -0.2866
     51  N        -31.6320   10.2430   11.1800 N.3    45  ARG45      -0.1245
     52  CA       -31.2730    8.8440   11.3610 C.3    45  ARG45       0.1563
     53  C        -32.4960    7.9370   11.4220 C.2    45  ARG45       0.2260
     54  O        -32.5060    6.8810   10.7980 O.2    45  ARG45      -0.2867
     55  CB       -30.4230    8.6490   12.6210 C.3    45  ARG45       0.0307
     56  CG       -29.0010    9.2050   12.5000 C.3    45  ARG45       0.0489
     57  CD       -28.4030    8.9500   11.1100 C.3    45  ARG45       0.2205
     58  NE       -28.4540    7.5410   10.7120 N.pl3  45  ARG45      -0.0865
     59  CZ       -28.3530    7.1160    9.4500 C.cat  45  ARG45       0.5346
     60  NH1      -28.1830    7.9810    8.4510 N.pl3  45  ARG45       0.1354
     61  NH2      -28.4210    5.8220    9.1830 N.pl3  45  ARG45       0.1354
     62  N        -33.6830    7.5940    7.9510 N.3    48  ASP48      -0.1239
     63  CA       -32.7900    6.7630    7.1510 C.3    48  ASP48       0.1674
     64  C        -32.9660    5.2710    7.4470 C.2    48  ASP48       0.2266
     65  O        -32.9470    4.4270    6.5360 O.2    48  ASP48      -0.2867
     66  CB       -31.3380    7.1770    7.3920 C.3    48  ASP48       0.1410
     67  CG       -31.0860    8.6340    7.0570 C.2    48  ASP48       0.3668
     68  OD1      -31.6800    9.1210    6.0750 O.co2  48  ASP48      -0.2456
     69  OD2      -30.3080    9.2960    7.7760 O.co2  48  ASP48      -0.2456
     70  N        -30.0490   12.3530    0.3720 N.3   130  VAL130     -0.1231
     71  CA       -29.8430   11.7760    1.6920 C.3   130  VAL130      0.1692
     72  C        -28.9300   12.5950    2.5900 C.2   130  VAL130      0.2591
     73  O        -28.8470   12.3230    3.7790 O.2   130  VAL130     -0.2718
     74  CB       -29.3230   10.3030    1.6730 C.3   130  VAL130      0.0266
     75  CG1      -30.2790    9.3910    0.8970 C.3   130  VAL130      0.0020
     76  CG2      -27.8740   10.2230    1.1450 C.3   130  VAL130      0.0020
     77  N        -28.2440   13.5880    2.0360 N.am  131  ALA131     -0.1980
     78  CA       -27.1780   14.2270    2.7930 C.3   131  ALA131      0.1597
     79  C        -27.0790   15.7200    2.5800 C.2   131  ALA131      0.2287
     80  O        -26.8280   16.4530    3.5310 O.2   131  ALA131     -0.2864
     81  CB       -25.8460   13.5490    2.5070 C.3   131  ALA131      0.0319
     82  N        -29.6330   17.2340    4.6550 N.3   134  VAL134     -0.1231
     83  CA       -29.2720   17.3410    6.0630 C.3   134  VAL134      0.1692
     84  C        -28.4420   18.5920    6.3160 C.2   134  VAL134      0.2592
     85  O        -28.6460   19.2990    7.3010 O.2   134  VAL134     -0.2718
     86  CB       -28.5300   16.1040    6.5690 C.3   134  VAL134      0.0266
     87  CG1      -28.2560   16.2640    8.0660 C.3   134  VAL134      0.0020
     88  CG2      -29.3590   14.8430    6.2860 C.3   134  VAL134      0.0020
     89  N        -27.5240   18.8790    5.4080 N.am  135  GLY135     -0.1957
     90  CA       -26.8130   20.1460    5.4470 C.3   135  GLY135      0.1869
     91  C        -27.7980   21.3070    5.4680 C.2   135  GLY135      0.2309
     92  O        -27.6500   22.2340    6.2740 O.2   135  GLY135     -0.2863
     93  N        -29.4980   21.7100    8.7860 N.3   138  LEU138     -0.1231
     94  CA       -28.5670   22.1700    9.8200 C.3   138  LEU138      0.1693
     95  C        -28.1460   23.6220    9.6690 C.2   138  LEU138      0.2592
     96  O        -27.6070   24.2260   10.6020 O.2   138  LEU138     -0.2718
     97  CB       -27.3240   21.2960    9.8380 C.3   138  LEU138      0.0284
     98  CG       -27.5980   19.9320   10.4460 C.3   138  LEU138      0.0019
     99  CD1      -26.4000   19.0470   10.2530 C.3   138  LEU138      0.0001
    100  CD2      -27.9710   20.0880   11.9090 C.3   138  LEU138      0.0001
    101  N        -28.3770   24.1680    8.4880 N.am  139  THR139     -0.1953
    102  CA       -27.9240   25.5160    8.1570 C.3   139  THR139      0.1897
    103  C        -28.3050   26.6110    9.1700 C.2   139  THR139      0.2313
    104  O        -27.4230   27.3170    9.6620 O.2   139  THR139     -0.2863
    105  CB       -28.3130   25.9030    6.7210 C.3   139  THR139      0.1794
    106  OG1      -27.5930   25.0700    5.8050 O.3   139  THR139     -0.2208
    107  CG2      -27.9560   27.3450    6.4340 C.3   139  THR139      0.0378
    108  N        -26.2720   26.5720   12.3680 N.3   142  LEU142     -0.1245
    109  CA       -24.8280   26.7370   12.3650 C.3   142  LEU142      0.1561
    110  C        -24.3760   28.0420   11.7130 C.2   142  LEU142      0.2260
    111  O        -23.2000   28.2350   11.4300 O.2   142  LEU142     -0.2867
    112  CB       -24.1810   25.5310   11.6880 C.3   142  LEU142      0.0270
    113  CG       -24.4230   24.2070   12.4170 C.3   142  LEU142      0.0019
    114  CD1      -23.6290   23.1230   11.7480 C.3   142  LEU142      0.0001
    115  CD2      -24.0140   24.3370   13.8880 C.3   142  LEU142      0.0001
    116  N        -23.3570   24.3860    2.8330 N.3   154  ALA154     -0.1245
    117  CA       -23.7870   23.3080    3.7190 C.3   154  ALA154      0.1562
    118  C        -24.2390   22.1090    2.9220 C.2   154  ALA154      0.2260
    119  O        -23.9960   20.9730    3.3060 O.2   154  ALA154     -0.2867
    120  CB       -24.9130   23.7830    4.6240 C.3   154  ALA154      0.0290
    121  N        -21.1780   20.4210    1.4350 N.3   157  LEU157     -0.1231
    122  CA       -20.4860   19.6590    2.4570 C.3   157  LEU157      0.1693
    123  C        -21.2150   18.3400    2.7390 C.2   157  LEU157      0.2592
    124  O        -20.6000   17.2720    2.7630 O.2   157  LEU157     -0.2718
    125  CB       -20.3330   20.4870    3.7270 C.3   157  LEU157      0.0284
    126  CG       -19.6210   19.7840    4.8920 C.3   157  LEU157      0.0019
    127  CD1      -18.2010   19.4370    4.5090 C.3   157  LEU157      0.0001
    128  CD2      -19.6540   20.6570    6.1340 C.3   157  LEU157      0.0001
    129  N        -22.5280   18.4120    2.9350 N.am  158  GLY158     -0.1957
    130  CA       -23.3250   17.2240    3.1780 C.3   158  GLY158      0.1869
    131  C        -23.0750   16.2030    2.0890 C.2   158  GLY158      0.2309
    132  O        -22.8210   15.0270    2.3510 O.2   158  GLY158     -0.2863
    133  N        -19.6100   14.5790    2.1900 N.3   161  LEU161     -0.1231
    134  CA       -19.5480   13.6450    3.2910 C.3   161  LEU161      0.1693
    135  C        -20.2040   12.3440    2.8850 C.2   161  LEU161      0.2591
    136  O        -19.6790   11.2860    3.1760 O.2   161  LEU161     -0.2718
    137  CB       -20.2170   14.2280    4.5340 C.3   161  LEU161      0.0284
    138  CG       -19.4290   15.4060    5.1080 C.3   161  LEU161      0.0019
    139  CD1      -20.1560   16.0690    6.2610 C.3   161  LEU161      0.0001
    140  CD2      -18.0420   14.9200    5.5410 C.3   161  LEU161      0.0001
    141  N        -21.3520   12.4180    2.2160 N.am  162  GLN162     -0.1979
    142  CA       -22.0030   11.2060    1.7220 C.3   162  GLN162      0.1601
    143  C        -21.1020   10.4490    0.7400 C.2   162  GLN162      0.2287
    144  O        -21.0240    9.2190    0.7600 O.2   162  GLN162     -0.2864
    145  CB       -23.3400   11.5360    1.0290 C.3   162  GLN162      0.0394
    146  CG       -24.1150   10.2930    0.6140 C.3   162  GLN162      0.0908
    147  CD       -24.4740    9.4370    1.8110 C.2   162  GLN162      0.2608
    148  OE1      -24.8180    9.9620    2.8670 O.2   162  GLN162     -0.2717
    149  NE2      -24.3810    8.1220    1.6640 N.am  162  GLN162     -0.0878
    150  N        -18.4670    8.7000    2.5830 N.3   165  ASN165     -0.1240
    151  CA       -19.1250    7.5490    3.1650 C.3   165  ASN165      0.1653
    152  C        -19.2630    6.3780    2.1700 C.2   165  ASN165      0.2266
    153  O        -18.9400    5.2370    2.4790 O.2   165  ASN165     -0.2867
    154  CB       -20.4890    7.9650    3.6990 C.3   165  ASN165      0.1155
    155  CG       -21.1060    6.9050    4.5470 C.2   165  ASN165      0.2627
    156  OD1      -20.8130    6.7920    5.7360 O.2   165  ASN165     -0.2716
    157  ND2      -21.9400    6.1040    3.9440 N.am  165  ASN165     -0.0877
    158  N        -15.9290    4.7540    1.6280 N.3   168  ARG168     -0.1245
    159  CA       -15.5610    3.9180    2.7480 C.3   168  ARG168      0.1563
    160  C        -16.2910    2.5870    2.7080 C.2   168  ARG168      0.2260
    161  O        -15.7710    1.5850    3.1800 O.2   168  ARG168     -0.2867
    162  CB       -15.8880    4.6220    4.0790 C.3   168  ARG168      0.0307
    163  CG       -15.5780    3.8000    5.2970 C.3   168  ARG168      0.0489
    164  CD       -16.1830    4.4100    6.5410 C.3   168  ARG168      0.2205
    165  NE       -17.6180    4.1430    6.5670 N.pl3 168  ARG168     -0.0865
    166  CZ       -18.4590    4.6370    7.4620 C.cat 168  ARG168      0.5346
    167  NH1      -18.0030    5.4370    8.4120 N.pl3 168  ARG168      0.1354
    168  NH2      -19.7520    4.3350    7.3960 N.pl3 168  ARG168      0.1354
    169  N        -20.3800   30.3500    7.9660 N.3   230  PHE230     -0.1241
    170  CA       -20.8950   29.7780    9.1970 C.3   230  PHE230      0.1605
    171  C        -20.5310   30.6360   10.4130 C.2   230  PHE230      0.2264
    172  O        -19.6260   31.4680   10.3420 O.2   230  PHE230     -0.2867
    173  CB       -20.3690   28.3530    9.3750 C.3   230  PHE230      0.0534
    174  CG       -20.8300   27.4010    8.3200 C.ar  230  PHE230     -0.0203
    175  CD1      -22.1720   27.0670    8.2070 C.ar  230  PHE230     -0.0042
    176  CD2      -19.9220   26.8310    7.4400 C.ar  230  PHE230     -0.0042
    177  CE1      -22.6000   26.1770    7.2240 C.ar  230  PHE230     -0.0003
    178  CE2      -20.3370   25.9560    6.4640 C.ar  230  PHE230     -0.0003
    179  CZ       -21.6770   25.6220    6.3550 C.ar  230  PHE230     -0.0000
    180  N        -17.1520   22.6030   12.2760 N.3   238  ILE238     -0.1245
    181  CA       -17.5160   22.1380   10.9490 C.3   238  ILE238      0.1561
    182  C        -16.2600   21.6950   10.1900 C.2   238  ILE238      0.2260
    183  O        -16.2310   20.6240    9.5720 O.2   238  ILE238     -0.2867
    184  CB       -18.2790   23.2270   10.1880 C.3   238  ILE238      0.0252
    185  CG1      -19.6860   23.3420   10.7650 C.3   238  ILE238      0.0019
    186  CG2      -18.3330   22.9000    8.7010 C.3   238  ILE238      0.0019
    187  CD1      -20.3300   24.6940   10.5850 C.3   238  ILE238      0.0001
    188  N        -13.6490   13.4870    8.5670 N.3   245  TYR245     -0.1241
    189  CA       -14.3140   12.6490    7.5810 C.3   245  TYR245      0.1605
    190  C        -13.4750   12.4090    6.3440 C.2   245  TYR245      0.2264
    191  O        -13.5090   11.3230    5.7790 O.2   245  TYR245     -0.2867
    192  CB       -15.7070   13.1670    7.2270 C.3   245  TYR245      0.0534
    193  CG       -16.7360   12.0690    7.2690 C.ar  245  TYR245     -0.0201
    194  CD1      -17.3050   11.5880    6.1080 C.ar  245  TYR245     -0.0009
    195  CD2      -17.1100   11.4910    8.4740 C.ar  245  TYR245     -0.0009
    196  CE1      -18.2400   10.5780    6.1380 C.ar  245  TYR245      0.0417
    197  CE2      -18.0430   10.4740    8.5220 C.ar  245  TYR245      0.0417
    198  CZ       -18.6020   10.0140    7.3460 C.ar  245  TYR245      0.1957
    199  OH       -19.5340    9.0010    7.3620 O.3   245  TYR245     -0.2866
    200  N        -14.7500   -2.1340    7.5210 N.3   262  ARG262     -0.1245
    201  CA       -14.9580   -0.7000    7.6080 C.3   262  ARG262      0.1563
    202  C        -13.7280   -0.0760    8.2450 C.2   262  ARG262      0.2260
    203  O        -13.4220   -0.3550    9.4050 O.2   262  ARG262     -0.2867
    204  CB       -16.1830   -0.3780    8.4630 C.3   262  ARG262      0.0307
    205  CG       -16.3990    1.1240    8.6310 C.3   262  ARG262      0.0489
    206  CD       -17.5830    1.4550    9.4970 C.3   262  ARG262      0.2205
    207  NE       -18.8410    1.2490    8.8030 N.pl3 262  ARG262     -0.0865
    208  CZ       -20.0210    1.6500    9.2680 C.cat 262  ARG262      0.5346
    209  NH1      -20.0980    2.2910   10.4290 N.pl3 262  ARG262      0.1354
    210  NH2      -21.1260    1.4240    8.5660 N.pl3 262  ARG262      0.1354
@<TRIPOS>BOND
     1    70    71    1
     2   146   145    1
     3   146   147    1
     4   143   144    2
     5   143   142    1
     6    75    74    1
     7   145   142    1
     8    76    74    1
     9   121   122    1
    10   158   159    1
    11   149   147   am
    12    74    71    1
    13    71    72    1
    14   142   141    1
    15   147   148    2
    16    77    72   am
    17    77    78    1
    18   131   132    2
    19   131   130    1
    20   152   153    2
    21   152   151    1
    22   133   134    1
    23   141   135   am
    24   122   123    1
    25   122   125    1
    26    81    78    1
    27    79    78    1
    28    79    80    2
    29   150   151    1
    30    72    73    2
    31   160   159    1
    32   160   161    2
    33   123   124    2
    34   123   129   am
    35   159   162    1
    36   116   117    1
    37   135   136    2
    38   135   134    1
    39   118   119    2
    40   118   117    1
    41   129   130    1
    42   151   154    1
    43   134   137    1
    44   154   155    1
    45   117   120    1
    46   125   126    1
    47   157   155   am
    48   162   163    1
    49   127   126    1
    50   137   138    1
    51   155   156    2
    52    82    83    1
    53   126   128    1
    54   138   140    1
    55   138   139    1
    56   163   164    1
    57    89    90    1
    58    89    84   am
    59    90    91    1
    60    91    92    2
    61   191   190    2
    62   106   105    1
    63    83    84    1
    64    83    86    1
    65    68    67   ar
    66   194   196   ar
    67   194   193   ar
    68   196   198   ar
    69    88    86    1
    70    84    85    2
    71   190   189    1
    72   179   178   ar
    73   179   177   ar
    74   107   105    1
    75   178   176   ar
    76    65    64    2
    77   164   165    1
    78   165   166    2
    79    86    87    1
    80   105   102    1
    81    67    66    1
    82    67    69   ar
    83    63    66    1
    84    63    64    1
    85    63    62    1
    86   177   175   ar
    87   192   193    1
    88   192   189    1
    89   193   195   ar
    90   198   199    1
    91   198   197   ar
    92   168   166    1
    93   176   174   ar
    94   166   167    1
    95   200   201    1
    96   189   188    1
    97   201   202    1
    98   201   204    1
    99   169   170    1
   100   102   101    1
   101   102   103    1
   102   175   174   ar
   103   202   203    2
   104   174   173    1
   105    60    59    1
   106   204   205    1
   107   195   197   ar
   108   101    95   am
   109   210   208    1
   110   205   206    1
   111   186   184    1
   112    93    94    1
   113   207   208    2
   114   207   206    1
   115    27    26   ar
   116    27    25   ar
   117   103   104    2
   118    61    59    1
   119   170   173    1
   120   170   171    1
   121   208   209    1
   122    26    24   ar
   123    59    58    2
   124   183   182    2
   125    95    94    1
   126    95    96    2
   127    25    23   ar
   128    94    97    1
   129    97    98    1
   130    10     9   ar
   131    10     8   ar
   132     9     7   ar
   133   184   185    1
   134   184   181    1
   135   182   181    1
   136    99    98    1
   137   172   171    2
   138    98   100    1
   139   187   185    1
   140    58    57    1
   141    24    22   ar
   142    54    53    2
   143   181   180    1
   144    23    22   ar
   145    57    56    1
   146    51    52    1
   147    52    53    1
   148    52    55    1
   149     8     6   ar
   150     7     6   ar
   151   111   110    2
   152    50    49    1
   153    22    21    1
   154   112   109    1
   155   112   113    1
   156   110   109    1
   157   114   113    1
   158    48    49   ar
   159    48    46   ar
   160    49    47   ar
   161    38    37   ar
   162    38    36   ar
   163     6     5    1
   164    46    44   ar
   165   109   108    1
   166   113   115    1
   167    56    55    1
   168    16    15    1
   169    37    35   ar
   170    42    41    2
   171     4     3    2
   172    15    12    1
   173    21    18    1
   174    36    34   ar
   175    47    45   ar
   176    40    41    1
   177    40    39    1
   178    40    43    1
   179    44    45   ar
   180    44    43    1
   181     5     2    1
   182    17    18    1
   183     3     2    1
   184     3    11   am
   185    18    19    1
   186    35    33   ar
   187    12    11    1
   188    12    13    1
   189     2     1    1
   190    34    33   ar
   191    33    32    1
   192    13    14    2
   193    19    20    2
   194    32    29    1
   195    28    29    1
   196    29    30    1
   197    30    31    2
