@<TRIPOS>MOLECULE
tmp/4f70A00.pdb
 198 186 0 0 0
SMALL
GASTEIGER

@<TRIPOS>ATOM
      1  N         44.9150  -20.1040   88.9850 N.3    28  VAL28      -0.1231
      2  CA        43.7440  -20.9960   88.9480 C.3    28  VAL28       0.1692
      3  C         42.4240  -20.2790   89.2750 C.2    28  VAL28       0.2592
      4  O         41.3770  -20.6450   88.7340 O.2    28  VAL28      -0.2718
      5  CB        43.9720  -22.2410   89.8740 C.3    28  VAL28       0.0266
      6  CG1       42.6650  -22.8730   90.3750 C.3    28  VAL28       0.0020
      7  CG2       44.8100  -23.2760   89.1420 C.3    28  VAL28       0.0020
      8  N         42.4670  -19.2850   90.1600 N.am   29  GLY29      -0.1957
      9  CA        41.2630  -18.5390   90.5250 C.3    29  GLY29       0.1869
     10  C         41.5510  -17.1780   91.1190 C.2    29  GLY29       0.2309
     11  O         42.5850  -16.9840   91.7570 O.2    29  GLY29      -0.2863
     12  N         38.8000  -13.6870   98.3980 N.3    33  TYR33      -0.1241
     13  CA        39.9960  -14.2620   99.0440 C.3    33  TYR33       0.1605
     14  C         41.3540  -13.7180   98.5720 C.2    33  TYR33       0.2264
     15  O         42.2510  -13.4920   99.3890 O.2    33  TYR33      -0.2867
     16  CB        39.9930  -15.7970   98.8940 C.3    33  TYR33       0.0534
     17  CG        39.8920  -16.3240   97.4660 C.ar   33  TYR33      -0.0201
     18  CD1       41.0370  -16.5540   96.6940 C.ar   33  TYR33      -0.0009
     19  CD2       38.6500  -16.6150   96.8940 C.ar   33  TYR33      -0.0009
     20  CE1       40.9400  -17.0450   95.3790 C.ar   33  TYR33       0.0417
     21  CE2       38.5440  -17.1080   95.5840 C.ar   33  TYR33       0.0417
     22  CZ        39.6930  -17.3220   94.8340 C.ar   33  TYR33       0.1957
     23  OH        39.5950  -17.8080   93.5490 O.3    33  TYR33      -0.2866
     24  N         44.7560  -17.4430   93.5690 N.3    36  VAL36      -0.1245
     25  CA        45.2240  -18.8150   93.8040 C.3    36  VAL36       0.1561
     26  C         45.9880  -19.3160   92.5800 C.2    36  VAL36       0.2260
     27  O         45.5310  -19.1450   91.4490 O.2    36  VAL36      -0.2867
     28  CB        44.0420  -19.7480   94.1350 C.3    36  VAL36       0.0252
     29  CG1       44.4500  -21.2230   94.1350 C.3    36  VAL36       0.0019
     30  CG2       43.4930  -19.3860   95.4860 C.3    36  VAL36       0.0019
     31  N         48.0430  -19.7140   97.6820 N.3    53  LYS53      -0.1245
     32  CA        47.1240  -18.5790   97.8050 C.3    53  LYS53       0.1561
     33  C         47.8280  -17.3280   98.3240 C.2    53  LYS53       0.2260
     34  O         48.3170  -17.3200   99.4520 O.2    53  LYS53      -0.2867
     35  CB        45.9740  -18.9490   98.7520 C.3    53  LYS53       0.0271
     36  CG        44.9820  -17.8200   99.0460 C.3    53  LYS53       0.0035
     37  CD        43.7450  -18.3450   99.7530 C.3    53  LYS53       0.0206
     38  CE        43.0900  -17.2800  100.6060 C.3    53  LYS53       0.1093
     39  NZ        41.7890  -17.7470  101.1450 N.3    53  LYS53      -0.1314
     40  N         40.6120  -10.9590  108.3550 N.3    63  SER63      -0.1217
     41  CA        40.3600  -12.1830  107.5930 C.3    63  SER63       0.1889
     42  C         41.5980  -13.0880  107.6040 C.2    63  SER63       0.2288
     43  O         41.5190  -14.2490  108.0210 O.2    63  SER63      -0.2866
     44  CB        39.9660  -11.8410  106.1510 C.3    63  SER63       0.2089
     45  OG        40.9070  -11.0130  105.5340 O.3    63  SER63      -0.2183
     46  N         42.4030  -14.8090  111.0370 N.3    66  ARG66      -0.1231
     47  CA        41.5100  -15.9260  111.3920 C.3    66  ARG66       0.1694
     48  C         41.8320  -17.1980  110.6090 C.2    66  ARG66       0.2591
     49  O         41.8970  -18.2830  111.1900 O.2    66  ARG66      -0.2718
     50  CB        40.0420  -15.5510  111.1540 C.3    66  ARG66       0.0321
     51  CG        39.0250  -16.6130  111.6290 C.3    66  ARG66       0.0489
     52  CD        37.5710  -16.1380  111.5020 C.3    66  ARG66       0.2205
     53  NE        37.0230  -16.3050  110.1470 N.pl3  66  ARG66      -0.0865
     54  CZ        36.3880  -17.3880  109.6800 C.cat  66  ARG66       0.5346
     55  NH1       35.9380  -17.3880  108.4230 N.pl3  66  ARG66       0.1354
     56  NH2       36.1910  -18.4710  110.4380 N.pl3  66  ARG66       0.1354
     57  N         41.9950  -17.0570  109.2930 N.am   67  GLU67      -0.1979
     58  CA        42.3250  -18.1790  108.4000 C.3    67  GLU67       0.1602
     59  C         43.5770  -18.9110  108.8650 C.2    67  GLU67       0.2287
     60  O         43.5750  -20.1340  108.9850 O.2    67  GLU67      -0.2864
     61  CB        42.5350  -17.6820  106.9640 C.3    67  GLU67       0.0415
     62  CG        42.7310  -18.7930  105.9280 C.3    67  GLU67       0.1163
     63  CD        42.7570  -18.2960  104.4860 C.2    67  GLU67       0.3649
     64  OE1       42.6910  -17.0660  104.2520 O.co2  67  GLU67      -0.2457
     65  OE2       42.8610  -19.1520  103.5790 O.co2  67  GLU67      -0.2457
     66  N         42.9660  -20.5920  112.5520 N.3    70  LEU70      -0.1231
     67  CA        42.1330  -21.8110  112.5430 C.3    70  LEU70       0.1693
     68  C         42.7910  -22.9850  111.8240 C.2    70  LEU70       0.2591
     69  O         42.9060  -24.0740  112.3900 O.2    70  LEU70      -0.2718
     70  CB        40.7480  -21.5500  111.9310 C.3    70  LEU70       0.0284
     71  CG        39.5790  -21.5270  112.9160 C.3    70  LEU70       0.0019
     72  CD1       39.6920  -20.3880  113.9250 C.3    70  LEU70       0.0001
     73  CD2       38.2690  -21.4360  112.1470 C.3    70  LEU70       0.0001
     74  N         43.2180  -22.7550  110.5820 N.am   71  LEU71      -0.1980
     75  CA        43.8180  -23.8090  109.7440 C.3    71  LEU71       0.1596
     76  C         45.1030  -24.3980  110.3170 C.2    71  LEU71       0.2287
     77  O         45.4300  -25.5510  110.0390 O.2    71  LEU71      -0.2864
     78  CB        44.1090  -23.2890  108.3370 C.3    71  LEU71       0.0297
     79  CG        42.9080  -22.8670  107.4900 C.3    71  LEU71       0.0022
     80  CD1       43.4120  -22.1040  106.2850 C.3    71  LEU71       0.0001
     81  CD2       42.0690  -24.0580  107.0560 C.3    71  LEU71       0.0001
     82  N         43.6700  -27.1020  112.6800 N.3    74  LEU74      -0.1245
     83  CA        42.8160  -28.1220  112.0700 C.3    74  LEU74       0.1561
     84  C         43.6330  -29.2060  111.3670 C.2    74  LEU74       0.2260
     85  O         44.6220  -28.9060  110.6910 O.2    74  LEU74      -0.2867
     86  CB        41.8370  -27.4790  111.0860 C.3    74  LEU74       0.0270
     87  CG        40.7830  -26.6000  111.7760 C.3    74  LEU74       0.0019
     88  CD1       40.2740  -25.5040  110.8500 C.3    74  LEU74       0.0001
     89  CD2       39.6240  -27.4430  112.3000 C.3    74  LEU74       0.0001
     90  N         39.0600  -32.1480  105.3340 N.3    79  VAL79      -0.1231
     91  CA        39.1870  -30.6940  105.4330 C.3    79  VAL79       0.1692
     92  C         40.5350  -30.3080  104.8470 C.2    79  VAL79       0.2591
     93  O         41.5370  -30.9770  105.1070 O.2    79  VAL79      -0.2718
     94  CB        39.0880  -30.2010  106.8950 C.3    79  VAL79       0.0266
     95  CG1       39.1580  -28.6820  106.9620 C.3    79  VAL79       0.0020
     96  CG2       37.7930  -30.6800  107.5330 C.3    79  VAL79       0.0020
     97  N         40.5490  -29.2270  104.0650 N.am   80  ILE80      -0.1980
     98  CA        41.7580  -28.7410  103.3890 C.3    80  ILE80       0.1595
     99  C         42.8760  -28.4830  104.4020 C.2    80  ILE80       0.2287
    100  O         42.6050  -28.0450  105.5220 O.2    80  ILE80      -0.2864
    101  CB        41.4520  -27.4600  102.5430 C.3    80  ILE80       0.0276
    102  CG1       42.6260  -27.0720  101.6280 C.3    80  ILE80       0.0022
    103  CG2       41.0580  -26.2810  103.4330 C.3    80  ILE80       0.0022
    104  CD1       42.9140  -28.0660  100.4970 C.3    80  ILE80       0.0001
    105  N         48.7190  -24.8900  100.1720 N.3    98  PHE98      -0.1241
    106  CA        47.8210  -26.0300  100.3770 C.3    98  PHE98       0.1605
    107  C         48.1650  -27.1230   99.3700 C.2    98  PHE98       0.2264
    108  O         48.8310  -26.8520   98.3680 O.2    98  PHE98      -0.2867
    109  CB        46.3660  -25.6140  100.1500 C.3    98  PHE98       0.0534
    110  CG        45.9310  -24.4230  100.9540 C.ar   98  PHE98      -0.0203
    111  CD1       46.0710  -23.1330  100.4470 C.ar   98  PHE98      -0.0042
    112  CD2       45.3560  -24.5880  102.2060 C.ar   98  PHE98      -0.0042
    113  CE1       45.6570  -22.0210  101.1880 C.ar   98  PHE98      -0.0003
    114  CE2       44.9340  -23.4860  102.9510 C.ar   98  PHE98      -0.0003
    115  CZ        45.0840  -22.2000  102.4400 C.ar   98  PHE98      -0.0000
    116  N         34.6050  -30.2980  112.0790 N.3   137  LEU137     -0.1245
    117  CA        34.6150  -28.8450  112.3170 C.3   137  LEU137      0.1561
    118  C         33.6180  -28.4450  113.4060 C.2   137  LEU137      0.2260
    119  O         33.9530  -27.6900  114.3260 O.2   137  LEU137     -0.2867
    120  CB        34.3100  -28.0750  111.0230 C.3   137  LEU137      0.0270
    121  CG        35.3250  -28.1870  109.8770 C.3   137  LEU137      0.0019
    122  CD1       34.7790  -27.5530  108.6070 C.3   137  LEU137      0.0001
    123  CD2       36.6500  -27.5490  110.2430 C.3   137  LEU137      0.0001
    124  N         33.6500  -24.9740  114.9930 N.3   142  VAL142     -0.1231
    125  CA        33.9980  -24.2170  113.7980 C.3   142  VAL142      0.1692
    126  C         32.8500  -24.3940  112.8200 C.2   142  VAL142      0.2592
    127  O         32.5690  -25.5160  112.4010 O.2   142  VAL142     -0.2718
    128  CB        35.3120  -24.7330  113.1670 C.3   142  VAL142      0.0266
    129  CG1       35.6090  -24.0310  111.8340 C.3   142  VAL142      0.0020
    130  CG2       36.4690  -24.5360  114.1330 C.3   142  VAL142      0.0020
    131  N         32.1870  -23.2900  112.4760 N.am  143  LEU143     -0.1966
    132  CA        31.1390  -23.2850  111.4500 C.3   143  LEU143      0.1728
    133  C         31.7370  -22.8770  110.1110 C.2   143  LEU143      0.2616
    134  O         32.7090  -22.1180  110.0640 O.2   143  LEU143     -0.2715
    135  CB        30.0140  -22.3190  111.8290 C.3   143  LEU143      0.0311
    136  CG        29.3460  -22.5320  113.1920 C.3   143  LEU143      0.0022
    137  CD1       28.3370  -21.4300  113.4760 C.3   143  LEU143      0.0001
    138  CD2       28.6740  -23.8960  113.2770 C.3   143  LEU143      0.0001
    139  N         31.1560  -23.3840  109.0270 N.am  144  HIS144     -0.1973
    140  CA        31.6190  -23.0540  107.6740 C.3   144  HIS144      0.1656
    141  C         31.0290  -21.7270  107.1970 C.2   144  HIS144      0.2291
    142  O         31.7470  -20.8870  106.6590 O.2   144  HIS144     -0.2864
    143  CB        31.2590  -24.1670  106.6850 C.3   144  HIS144      0.0771
    144  CG        32.0060  -24.0770  105.3930 C.ar  144  HIS144      0.0820
    145  ND1       31.7160  -23.1360  104.4300 N.ar  144  HIS144     -0.2267
    146  CD2       33.0480  -24.7960  104.9160 C.ar  144  HIS144      0.1154
    147  CE1       32.5460  -23.2820  103.4130 C.ar  144  HIS144      0.1986
    148  NE2       33.3640  -24.2820  103.6830 N.ar  144  HIS144     -0.2212
    149  N         31.1260  -25.3030   94.8670 N.3   150  ALA150     -0.1231
    150  CA        32.4470  -24.7240   94.5930 C.3   150  ALA150      0.1694
    151  C         33.4390  -24.8320   95.7660 C.2   150  ALA150      0.2592
    152  O         34.6450  -24.9280   95.5410 O.2   150  ALA150     -0.2718
    153  CB        32.2990  -23.2680   94.1580 C.3   150  ALA150      0.0304
    154  N         32.9310  -24.8140   97.0000 N.am  151  ASN151     -0.1974
    155  CA        33.7610  -24.9930   98.2050 C.3   151  ASN151      0.1688
    156  C         34.0290  -26.4610   98.5910 C.2   151  ASN151      0.2292
    157  O         34.8070  -26.7210   99.5120 O.2   151  ASN151     -0.2864
    158  CB        33.1360  -24.2440   99.3950 C.3   151  ASN151      0.1181
    159  CG        33.2280  -22.7290   99.2580 C.2   151  ASN151      0.2629
    160  OD1       34.0830  -22.2000   98.5470 O.2   151  ASN151     -0.2716
    161  ND2       32.3470  -22.0250   99.9530 N.am  151  ASN151     -0.0877
    162  N         35.8810  -29.3380   97.3640 N.3   153  LEU153     -0.1245
    163  CA        36.9240  -29.7750   96.4360 C.3   153  LEU153      0.1561
    164  C         37.0540  -31.2910   96.4640 C.2   153  LEU153      0.2260
    165  O         36.6770  -31.9300   97.4430 O.2   153  LEU153     -0.2867
    166  CB        38.2720  -29.1380   96.7840 C.3   153  LEU153      0.0270
    167  CG        38.2970  -27.6330   97.0670 C.3   153  LEU153      0.0019
    168  CD1       39.7180  -27.1820   97.3380 C.3   153  LEU153      0.0001
    169  CD2       37.6910  -26.8440   95.9160 C.3   153  LEU153      0.0001
    170  N         37.0000  -30.2170  102.0730 N.3   166  ILE166     -0.1231
    171  CA        36.1810  -29.0320  102.3360 C.3   166  ILE166      0.1692
    172  C         37.1010  -27.8170  102.3930 C.2   166  ILE166      0.2592
    173  O         38.0580  -27.7960  103.1640 O.2   166  ILE166     -0.2718
    174  CB        35.3460  -29.1650  103.6440 C.3   166  ILE166      0.0266
    175  CG1       34.2940  -30.2640  103.4750 C.3   166  ILE166      0.0019
    176  CG2       34.6360  -27.8440  104.0040 C.3   166  ILE166      0.0020
    177  CD1       33.6250  -30.6850  104.7590 C.3   166  ILE166      0.0001
    178  N         36.8000  -26.8250  101.5590 N.am  167  ALA167     -0.1966
    179  CA        37.5630  -25.5800  101.4740 C.3   167  ALA167      0.1728
    180  C         36.6240  -24.4010  101.7260 C.2   167  ALA167      0.2616
    181  O         35.4440  -24.6060  102.0120 O.2   167  ALA167     -0.2715
    182  CB        38.2200  -25.4750  100.1030 C.3   167  ALA167      0.0334
    183  N         37.1510  -23.1780  101.6430 N.am  168  ASP168     -0.1957
    184  CA        36.3490  -21.9630  101.8290 C.3   168  ASP168      0.1840
    185  C         36.9750  -20.7730  101.0840 C.2   168  ASP168      0.2621
    186  O         38.0700  -20.3290  101.4320 O.2   168  ASP168     -0.2715
    187  CB        36.2240  -21.6640  103.3310 C.3   168  ASP168      0.1450
    188  CG        35.1960  -20.5850  103.6580 C.2   168  ASP168      0.3671
    189  OD1       34.3700  -20.2160  102.7920 O.co2 168  ASP168     -0.2456
    190  OD2       35.2160  -20.1090  104.8160 O.co2 168  ASP168     -0.2456
    191  N         36.2830  -20.2820  100.0530 N.am  169  MET169     -0.1977
    192  CA        36.7030  -19.0890   99.2960 C.3   169  MET169      0.1605
    193  C         36.0890  -17.8260   99.9100 C.2   169  MET169      0.2287
    194  O         36.7260  -16.7750   99.9740 O.2   169  MET169     -0.2864
    195  CB        36.3200  -19.2270   97.8100 C.3   169  MET169      0.0413
    196  CG        34.8430  -19.0230   97.4640 C.3   169  MET169      0.0598
    197  SD        34.4680  -19.5500   95.7750 S.3   169  MET169     -0.1393
    198  CE        32.8880  -18.7530   95.5070 C.3   169  MET169      0.0692
@<TRIPOS>BOND
     1     4     3    2
     2     2     1    1
     3     2     3    1
     4     2     5    1
     5     7     5    1
     6     3     8   am
     7     5     6    1
     8     8     9    1
     9     9    10    1
    10    10    11    2
    11    27    26    2
    12    26    25    1
    13    23    22    1
    14    24    25    1
    15    25    28    1
    16    29    28    1
    17    28    30    1
    18   153   150    1
    19   150   149    1
    20   150   151    1
    21    22    20   ar
    22    22    21   ar
    23    20    18   ar
    24   198   197    1
    25   152   151    2
    26    21    19   ar
    27   151   154   am
    28   197   196    1
    29   169   167    1
    30   163   164    1
    31   163   166    1
    32   163   162    1
    33   164   165    2
    34    18    17   ar
    35   166   167    1
    36    19    17   ar
    37   154   155    1
    38   167   168    1
    39   196   195    1
    40    17    16    1
    41    31    32    1
    42    32    33    1
    43    32    35    1
    44   195   192    1
    45   155   156    1
    46   155   158    1
    47    33    34    2
    48   108   107    2
    49    12    13    1
    50   160   159    2
    51    14    13    1
    52    14    15    2
    53   156   157    2
    54    35    36    1
    55    16    13    1
    56    36    37    1
    57   159   158    1
    58   159   161   am
    59   192   193    1
    60   192   191    1
    61   107   106    1
    62    37    38    1
    63   193   194    2
    64   191   185   am
    65   182   179    1
    66   109   106    1
    67   109   110    1
    68   105   106    1
    69   111   110   ar
    70   111   113   ar
    71   104   102    1
    72    38    39    1
    73   110   112   ar
    74   185   186    2
    75   185   184    1
    76   113   115   ar
    77   179   178    1
    78   179   180    1
    79   178   172   am
    80   102   101    1
    81   183   180   am
    82   183   184    1
    83   180   181    2
    84   184   187    1
    85   170   171    1
    86   112   114   ar
    87   171   172    1
    88   171   174    1
    89   172   173    2
    90   115   114   ar
    91   101    98    1
    92   101   103    1
    93   189   188   ar
    94   187   188    1
    95    98    97    1
    96    98    99    1
    97   147   148   ar
    98   147   145   ar
    99   175   174    1
   100   175   177    1
   101    65    63   ar
   102   174   176    1
   103   188   190   ar
   104   148   146   ar
   105    97    92   am
   106    64    63   ar
   107    99   100    2
   108   145   144   ar
   109    63    62    1
   110    92    93    2
   111    92    91    1
   112   146   144   ar
   113    90    91    1
   114   144   143    1
   115    91    94    1
   116    45    44    1
   117    62    61    1
   118    44    41    1
   119    80    79    1
   120   142   141    2
   121   143   140    1
   122    94    95    1
   123    94    96    1
   124    61    58    1
   125    81    79    1
   126   141   140    1
   127    79    78    1
   128    41    42    1
   129    41    40    1
   130    42    43    2
   131   140   139    1
   132    78    75    1
   133    58    59    1
   134    58    57    1
   135    55    54    1
   136   122   121    1
   137    59    60    2
   138   139   133   am
   139    57    48   am
   140    54    53    2
   141    54    56    1
   142    75    76    1
   143    75    74    1
   144   121   123    1
   145   121   120    1
   146    77    76    2
   147   134   133    2
   148   133   132    1
   149    53    52    1
   150    74    68   am
   151    48    49    2
   152    48    47    1
   153    85    84    2
   154    88    87    1
   155   120   117    1
   156    46    47    1
   157    86    87    1
   158    86    83    1
   159    50    47    1
   160    50    51    1
   161    84    83    1
   162   132   135    1
   163   132   131    1
   164    52    51    1
   165    87    89    1
   166    68    69    2
   167    68    67    1
   168   135   136    1
   169   129   128    1
   170    70    67    1
   171    70    71    1
   172    83    82    1
   173   116   117    1
   174    73    71    1
   175   117   118    1
   176   127   126    2
   177   131   126   am
   178    67    66    1
   179   126   125    1
   180    71    72    1
   181   128   125    1
   182   128   130    1
   183   136   138    1
   184   136   137    1
   185   118   119    2
   186   125   124    1
