@<TRIPOS>MOLECULE
tmp/4f73B01.pdb
 100 95 0 0 0
SMALL
GASTEIGER

@<TRIPOS>ATOM
      1  N         16.0970    3.6070   10.2240 N.3    25  ASP25      -0.1239
      2  CA        17.1960    2.7720   10.6770 C.3    25  ASP25       0.1674
      3  C         17.6730    1.8060    9.5920 C.2    25  ASP25       0.2266
      4  O         17.0960    0.7270    9.4160 O.2    25  ASP25      -0.2867
      5  CB        16.7370    2.0370   11.9400 C.3    25  ASP25       0.1410
      6  CG        17.8310    1.2150   12.5840 C.2    25  ASP25       0.3668
      7  OD1       18.9770    1.1850   12.0810 O.co2  25  ASP25      -0.2456
      8  OD2       17.5560    0.6370   13.6580 O.co2  25  ASP25      -0.2456
      9  N         20.2860    0.0830    9.6320 N.3    27  GLY27      -0.1210
     10  CA        20.8170   -1.1000   10.3010 C.3    27  GLY27       0.1956
     11  C         19.7750   -2.1190   10.7480 C.2    27  GLY27       0.2612
     12  O         20.1340   -3.1570   11.3340 O.2    27  GLY27      -0.2717
     13  N         18.5040   -1.8400   10.4850 N.am   28  ALA28      -0.1965
     14  CA        17.4200   -2.7370   10.8610 C.3    28  ALA28       0.1728
     15  C         16.8470   -3.4310    9.6360 C.2    28  ALA28       0.2616
     16  O         16.4350   -2.7420    8.6980 O.2    28  ALA28      -0.2715
     17  CB        16.3400   -1.9760   11.5700 C.3    28  ALA28       0.0334
     18  N         16.8030   -4.7630    9.6490 N.am   29  ASP29      -0.1957
     19  CA        16.1560   -5.5120    8.5530 C.3    29  ASP29       0.1840
     20  C         14.6360   -5.3080    8.5500 C.2    29  ASP29       0.2622
     21  O         13.9840   -5.2920    7.4910 O.2    29  ASP29      -0.2715
     22  CB        16.3780   -7.0170    8.6880 C.3    29  ASP29       0.1450
     23  CG        17.8380   -7.4310    8.6630 C.2    29  ASP29       0.3671
     24  OD1       18.7080   -6.7050    8.1360 O.co2  29  ASP29      -0.2456
     25  OD2       18.0910   -8.5520    9.1550 O.co2  29  ASP29      -0.2456
     26  N         14.0950   -5.1840    9.7610 N.am   30  ASP30      -0.1971
     27  CA        12.6670   -5.2040   10.0210 C.3    30  ASP30       0.1709
     28  C         12.2550   -3.9060   10.7050 C.2    30  ASP30       0.2293
     29  O         13.0820   -3.1680   11.2660 O.2    30  ASP30      -0.2864
     30  CB        12.3040   -6.3560   10.9680 C.3    30  ASP30       0.1436
     31  CG        12.7150   -7.7270   10.4500 C.2    30  ASP30       0.3671
     32  OD1       12.6500   -7.9890    9.2240 O.co2  30  ASP30      -0.2456
     33  OD2       13.1310   -8.5600   11.2850 O.co2  30  ASP30      -0.2456
     34  N         10.0880   -2.2540   13.7370 N.3    32  VAL32      -0.1245
     35  CA         9.7420   -2.6920   15.0880 C.3    32  VAL32       0.1561
     36  C          9.1250   -1.5100   15.8130 C.2    32  VAL32       0.2260
     37  O          9.7450   -0.4470   15.9530 O.2    32  VAL32      -0.2867
     38  CB        10.9300   -3.1800   15.9010 C.3    32  VAL32       0.0252
     39  CG1       10.4210   -3.9250   17.1660 C.3    32  VAL32       0.0019
     40  CG2       11.8700   -4.0640   15.0690 C.3    32  VAL32       0.0019
     41  N          7.7620  -13.9650   17.1730 N.3    45  LYS45      -0.1231
     42  CA         9.0770  -13.8970   16.5500 C.3    45  LYS45       0.1693
     43  C         10.0640  -13.3970   17.6160 C.2    45  LYS45       0.2592
     44  O          9.6770  -12.7480   18.5920 O.2    45  LYS45      -0.2718
     45  CB         9.0280  -12.9480   15.3450 C.3    45  LYS45       0.0285
     46  CG        10.2780  -12.9390   14.4650 C.3    45  LYS45       0.0035
     47  CD        10.1880  -11.8960   13.3480 C.3    45  LYS45       0.0206
     48  CE        11.5030  -11.7490   12.6100 C.3    45  LYS45       0.1093
     49  NZ        11.6870  -12.7790   11.5580 N.3    45  LYS45      -0.1314
     50  N         11.3320  -13.7460   17.4300 N.am   46  MET46      -0.1965
     51  CA        12.4410  -13.1950   18.1930 C.3    46  MET46       0.1736
     52  C         13.3420  -12.4100   17.2550 C.2    46  MET46       0.2616
     53  O         13.7300  -12.9220   16.1880 O.2    46  MET46      -0.2715
     54  CB        13.2620  -14.3360   18.7930 C.3    46  MET46       0.0427
     55  CG        12.4820  -15.1210   19.8250 C.3    46  MET46       0.0599
     56  SD        12.5990  -14.3800   21.4410 S.3    46  MET46      -0.1393
     57  CE        14.1730  -14.9690   22.0560 C.3    46  MET46       0.0692
     58  N         13.6780  -11.1890   17.6530 N.am   47  ILE47      -0.1963
     59  CA        14.6070  -10.3340   16.9150 C.3    47  ILE47       0.1727
     60  C         15.7520   -9.9110   17.8120 C.2    47  ILE47       0.2617
     61  O         15.5940   -9.7690   19.0150 O.2    47  ILE47      -0.2715
     62  CB        13.9330   -9.0730   16.3420 C.3    47  ILE47       0.0290
     63  CG1       13.3610   -8.1840   17.4580 C.3    47  ILE47       0.0022
     64  CG2       12.8820   -9.4650   15.3270 C.3    47  ILE47       0.0023
     65  CD1       12.8340   -6.8410   16.9680 C.3    47  ILE47       0.0001
     66  N         16.9160   -9.7150   17.2140 N.am   48  GLY48      -0.1940
     67  CA        18.1410   -9.5160   17.9570 C.3    48  GLY48       0.2014
     68  C         18.8500   -8.2570   17.5300 C.2    48  GLY48       0.2639
     69  O         18.7230   -7.7800   16.3880 O.2    48  GLY48      -0.2714
     70  N         19.6490   -7.7610   18.4610 N.am   49  GLY49      -0.1939
     71  CA        20.5540   -6.6620   18.1900 C.3    49  GLY49       0.2014
     72  C         21.5260   -6.5400   19.3470 C.2    49  GLY49       0.2638
     73  O         21.8030   -7.5150   20.0350 O.2    49  GLY49      -0.2714
     74  N         22.0470   -5.3410   19.5660 N.am   50  ILE50      -0.1977
     75  CA        22.9160   -5.1440   20.7230 C.3    50  ILE50       0.1596
     76  C         22.1330   -5.4570   21.9980 C.2    50  ILE50       0.2287
     77  O         21.0090   -5.0010   22.1900 O.2    50  ILE50      -0.2864
     78  CB        23.5870   -3.7640   20.7320 C.3    50  ILE50       0.0276
     79  CG1       24.7640   -3.8080   19.7410 C.3    50  ILE50       0.0022
     80  CG2       24.0840   -3.4070   22.1250 C.3    50  ILE50       0.0022
     81  CD1       25.2520   -2.4580   19.2450 C.3    50  ILE50       0.0001
     82  N         18.1830  -10.5770   22.4300 N.3    53  PHE53      -0.1241
     83  CA        16.9610  -10.7610   21.6590 C.3    53  PHE53       0.1605
     84  C         15.7790  -10.2690   22.4650 C.2    53  PHE53       0.2264
     85  O         15.8030  -10.3410   23.6840 O.2    53  PHE53      -0.2867
     86  CB        16.7750  -12.2360   21.3100 C.3    53  PHE53       0.0534
     87  CG        17.5960  -12.6700   20.1340 C.ar   53  PHE53      -0.0203
     88  CD1       18.9570  -12.9510   20.2870 C.ar   53  PHE53      -0.0042
     89  CD2       17.0280  -12.7710   18.8810 C.ar   53  PHE53      -0.0042
     90  CE1       19.7270  -13.3440   19.2040 C.ar   53  PHE53      -0.0003
     91  CE2       17.8030  -13.1700   17.7830 C.ar   53  PHE53      -0.0003
     92  CZ        19.1430  -13.4410   17.9490 C.ar   53  PHE53      -0.0000
     93  N         11.1100    1.9100   15.2350 N.3    84  ILE84      -0.1245
     94  CA        12.1960    1.7450   14.2890 C.3    84  ILE84       0.1561
     95  C         11.6390    1.3870   12.9140 C.2    84  ILE84       0.2260
     96  O         10.9290    0.3820   12.7590 O.2    84  ILE84      -0.2867
     97  CB        13.1300    0.6140   14.7550 C.3    84  ILE84       0.0252
     98  CG1       13.8520    0.9890   16.0570 C.3    84  ILE84       0.0019
     99  CG2       14.1200    0.2700   13.6610 C.3    84  ILE84       0.0019
    100  CD1       14.5310   -0.1920   16.7290 C.3    84  ILE84       0.0001
@<TRIPOS>BOND
     1    21    20    2
     2    24    23   ar
     3    20    19    1
     4    20    26   am
     5    19    22    1
     6    19    18    1
     7    23    22    1
     8    23    25   ar
     9    16    15    2
    10    32    31   ar
    11     4     3    2
    12     3     2    1
    13     9    10    1
    14    15    18   am
    15    15    14    1
    16    26    27    1
    17    27    28    1
    18    27    30    1
    19     1     2    1
    20    10    11    1
    21    31    30    1
    22    31    33   ar
    23    13    11   am
    24    13    14    1
    25     2     5    1
    26    28    29    2
    27    11    12    2
    28    14    17    1
    29    49    48    1
    30     5     6    1
    31     7     6   ar
    32     6     8   ar
    33    48    47    1
    34    96    95    2
    35    95    94    1
    36    47    46    1
    37    99    97    1
    38    34    35    1
    39    94    97    1
    40    94    93    1
    41    46    45    1
    42    97    98    1
    43    40    38    1
    44    35    36    1
    45    35    38    1
    46    64    62    1
    47    45    42    1
    48    36    37    2
    49    38    39    1
    50    98   100    1
    51    53    52    2
    52    62    59    1
    53    62    63    1
    54    69    68    2
    55    42    41    1
    56    42    43    1
    57    59    58    1
    58    59    60    1
    59    65    63    1
    60    66    60   am
    61    66    67    1
    62    52    58   am
    63    52    51    1
    64    50    43   am
    65    50    51    1
    66    68    67    1
    67    68    70   am
    68    43    44    2
    69    91    92   ar
    70    91    89   ar
    71    60    61    2
    72    92    90   ar
    73    71    70    1
    74    71    72    1
    75    51    54    1
    76    54    55    1
    77    89    87   ar
    78    90    88   ar
    79    81    79    1
    80    72    74   am
    81    72    73    2
    82    74    75    1
    83    79    78    1
    84    55    56    1
    85    87    88   ar
    86    87    86    1
    87    75    78    1
    88    75    76    1
    89    78    80    1
    90    86    83    1
    91    56    57    1
    92    83    82    1
    93    83    84    1
    94    76    77    2
    95    84    85    2
