@<TRIPOS>MOLECULE
tmp/4f74A00.pdb
 100 95 0 0 0
SMALL
GASTEIGER

@<TRIPOS>ATOM
      1  N         24.7380    2.2830    9.4390 N.3    25  ASP25      -0.1239
      2  CA        23.6090    2.1390   10.3490 C.3    25  ASP25       0.1674
      3  C         23.1640    3.4720   10.9370 C.2    25  ASP25       0.2266
      4  O         23.6370    3.9120   11.9870 O.2    25  ASP25      -0.2867
      5  CB        24.0000    1.1630   11.4690 C.3    25  ASP25       0.1410
      6  CG        22.8530    0.8800   12.4110 C.2    25  ASP25       0.3668
      7  OD1       21.7430    1.4320   12.2260 O.co2  25  ASP25      -0.2456
      8  OD2       23.0750    0.0640   13.3240 O.co2  25  ASP25      -0.2456
      9  N         20.5270    4.0700   12.4930 N.3    27  GLY27      -0.1210
     10  CA        19.8440    3.8400   13.7590 C.3    27  GLY27       0.1956
     11  C         20.7660    3.7270   14.9630 C.2    27  GLY27       0.2612
     12  O         20.2990    3.5220   16.0840 O.2    27  GLY27      -0.2717
     13  N         22.0670    3.8740   14.7440 N.am   28  ALA28      -0.1965
     14  CA        23.0510    3.8070   15.8200 C.3    28  ALA28       0.1728
     15  C         23.6810    5.1860   16.0650 C.2    28  ALA28       0.2616
     16  O         24.1380    5.8520   15.1200 O.2    28  ALA28      -0.2715
     17  CB        24.1500    2.7700   15.5180 C.3    28  ALA28       0.0334
     18  N         23.6760    5.6040   17.3310 N.am   29  ASP29      -0.1957
     19  CA        24.3610    6.8240   17.7290 C.3    29  ASP29       0.1840
     20  C         25.8610    6.6660   17.4960 C.2    29  ASP29       0.2622
     21  O         26.5420    7.6050   17.0750 O.2    29  ASP29      -0.2715
     22  CB        24.1790    7.0980   19.2190 C.3    29  ASP29       0.1450
     23  CG        22.7580    7.4500   19.5970 C.2    29  ASP29       0.3671
     24  OD1       21.8750    7.6660   18.7280 O.co2  29  ASP29      -0.2456
     25  OD2       22.5560    7.5420   20.8200 O.co2  29  ASP29      -0.2456
     26  N         26.3570    5.4700   17.8000 N.am   30  ASP30      -0.1971
     27  CA        27.7870    5.2020   17.8630 C.3    30  ASP30       0.1709
     28  C         28.1930    4.0810   16.9240 C.2    30  ASP30       0.2293
     29  O         27.3460    3.3850   16.3670 O.2    30  ASP30      -0.2864
     30  CB        28.1810    4.8570   19.2980 C.3    30  ASP30       0.1436
     31  CG        28.1370    6.0730   20.2140 C.2    30  ASP30       0.3671
     32  OD1       28.9850    6.9690   20.0040 O.co2  30  ASP30      -0.2456
     33  OD2       27.2820    6.1220   21.1320 O.co2  30  ASP30      -0.2456
     34  N         30.1520    0.6420   16.6320 N.3    32  VAL32      -0.1245
     35  CA        30.4260   -0.4760   17.5400 C.3    32  VAL32       0.1561
     36  C         30.9700   -1.6180   16.6850 C.2    32  VAL32       0.2260
     37  O         30.3090   -2.0800   15.7720 O.2    32  VAL32      -0.2867
     38  CB        29.1570   -0.9490   18.3230 C.3    32  VAL32       0.0252
     39  CG1       29.5400   -1.9400   19.4270 C.3    32  VAL32       0.0019
     40  CG2       28.3790    0.2270   18.9010 C.3    32  VAL32       0.0019
     41  N         32.6170    1.4510   28.9480 N.3    45  LYS45      -0.1231
     42  CA        31.3670    2.1750   28.6920 C.3    45  LYS45       0.1693
     43  C         30.2510    1.1390   28.5720 C.2    45  LYS45       0.2592
     44  O         30.5100   -0.0380   28.2990 O.2    45  LYS45      -0.2718
     45  CB        31.4650    3.0080   27.4080 C.3    45  LYS45       0.0285
     46  CG        30.4010    4.1380   27.4090 C.3    45  LYS45       0.0035
     47  CD        30.2660    4.8380   26.1070 C.3    45  LYS45       0.0206
     48  CE        29.3180    6.0190   26.2030 C.3    45  LYS45       0.1093
     49  NZ        28.9380    6.5250   24.8350 N.3    45  LYS45      -0.1314
     50  N         29.0200    1.5780   28.8140 N.am   46  MET46      -0.1965
     51  CA        27.8280    0.7630   28.5880 C.3    46  MET46       0.1736
     52  C         26.9940    1.4160   27.5030 C.2    46  MET46       0.2616
     53  O         26.8430    2.6250   27.5130 O.2    46  MET46      -0.2715
     54  CB        26.9890    0.6300   29.8620 C.3    46  MET46       0.0427
     55  CG        27.7340   -0.1020   30.9530 C.3    46  MET46       0.0599
     56  SD        26.6920   -0.7400   32.2550 S.3    46  MET46      -0.1393
     57  CE        25.4800   -1.6950   31.3320 C.3    46  MET46       0.0692
     58  N         26.4760    0.6250   26.5700 N.am   47  ILE47      -0.1963
     59  CA        25.5730    1.1230   25.5310 C.3    47  ILE47       0.1727
     60  C         24.3080    0.2630   25.4430 C.2    47  ILE47       0.2617
     61  O         24.2920   -0.8850   25.8660 O.2    47  ILE47      -0.2715
     62  CB        26.2720    1.2020   24.1360 C.3    47  ILE47       0.0290
     63  CG1       26.6720   -0.1880   23.6260 C.3    47  ILE47       0.0022
     64  CG2       27.4870    2.1670   24.2070 C.3    47  ILE47       0.0023
     65  CD1       27.1780   -0.2130   22.1700 C.3    47  ILE47       0.0001
     66  N         23.2490    0.8450   24.8920 N.am   48  GLY48      -0.1940
     67  CA        21.9700    0.1760   24.7410 C.3    48  GLY48       0.2014
     68  C         21.6780   -0.1680   23.2940 C.2    48  GLY48       0.2639
     69  O         22.0780    0.5410   22.3680 O.2    48  GLY48      -0.2714
     70  N         21.0040   -1.2940   23.1070 N.am   49  GLY49      -0.1939
     71  CA        20.4730   -1.6450   21.8040 C.3    49  GLY49       0.2014
     72  C         19.0530   -2.1290   21.9870 C.2    49  GLY49       0.2638
     73  O         18.4560   -1.9350   23.0520 O.2    49  GLY49      -0.2714
     74  N         18.5410   -2.8060   20.9620 N.am   50  ILE50      -0.1977
     75  CA        17.1680   -3.2950   20.9700 C.3    50  ILE50       0.1596
     76  C         16.9740   -4.3930   22.0270 C.2    50  ILE50       0.2287
     77  O         15.8920   -4.5040   22.5880 O.2    50  ILE50      -0.2864
     78  CB        16.7180   -3.7590   19.5570 C.3    50  ILE50       0.0276
     79  CG1       15.1920   -3.7310   19.4370 C.3    50  ILE50       0.0022
     80  CG2       17.2850   -5.1370   19.1990 C.3    50  ILE50       0.0022
     81  CD1       14.6690   -4.1490   18.0520 C.3    50  ILE50       0.0001
     82  N         21.3200   -3.7930   27.2760 N.3    53  PHE53      -0.1241
     83  CA        22.5630   -3.0450   27.4120 C.3    53  PHE53       0.1605
     84  C         23.7690   -3.9750   27.4180 C.2    53  PHE53       0.2264
     85  O         23.6830   -5.1130   27.8740 O.2    53  PHE53      -0.2867
     86  CB        22.5450   -2.2080   28.7010 C.3    53  PHE53       0.0534
     87  CG        21.7780   -0.9240   28.5750 C.ar   53  PHE53      -0.0203
     88  CD1       20.3860   -0.9330   28.5270 C.ar   53  PHE53      -0.0042
     89  CD2       22.4400    0.2880   28.5070 C.ar   53  PHE53      -0.0042
     90  CE1       19.6610    0.2470   28.3980 C.ar   53  PHE53      -0.0003
     91  CE2       21.7220    1.4730   28.4060 C.ar   53  PHE53      -0.0003
     92  CZ        20.3320    1.4530   28.3430 C.ar   53  PHE53      -0.0000
     93  N         29.0990   -2.1380   13.2040 N.3    84  ILE84      -0.1245
     94  CA        28.2590   -1.0230   12.7760 C.3    84  ILE84       0.1561
     95  C         28.9980    0.3150   12.7640 C.2    84  ILE84       0.2260
     96  O         29.7610    0.6460   13.6670 O.2    84  ILE84      -0.2867
     97  CB        26.9030   -0.9100   13.5210 C.3    84  ILE84       0.0252
     98  CG1       27.0860   -0.3910   14.9420 C.3    84  ILE84       0.0019
     99  CG2       26.1200   -2.2290   13.5260 C.3    84  ILE84       0.0019
    100  CD1       25.8140   -0.4850   15.7450 C.3    84  ILE84       0.0001
@<TRIPOS>BOND
     1     1     2    1
     2     2     3    1
     3     2     5    1
     4     3     4    2
     5     5     6    1
     6     7     6   ar
     7     6     8   ar
     8     9    10    1
     9    95    94    1
    10    95    96    2
    11    94    93    1
    12    94    97    1
    13    97    99    1
    14    97    98    1
    15    10    11    1
    16    13    11   am
    17    13    14    1
    18    98   100    1
    19    11    12    2
    20    16    15    2
    21    17    14    1
    22    37    36    2
    23    14    15    1
    24    15    18   am
    25    29    28    2
    26    34    35    1
    27    36    35    1
    28    28    27    1
    29    21    20    2
    30    18    19    1
    31    20    19    1
    32    20    26   am
    33    35    38    1
    34    19    22    1
    35    26    27    1
    36    27    30    1
    37    81    79    1
    38    38    40    1
    39    38    39    1
    40    24    23   ar
    41    80    78    1
    42    22    23    1
    43    30    31    1
    44    79    78    1
    45    78    75    1
    46    23    25   ar
    47    32    31   ar
    48    31    33   ar
    49    74    75    1
    50    74    72   am
    51    75    76    1
    52    71    72    1
    53    71    70    1
    54    72    73    2
    55    76    77    2
    56    65    63    1
    57    69    68    2
    58    70    68   am
    59    68    67    1
    60    63    62    1
    61    62    64    1
    62    62    59    1
    63    67    66    1
    64    49    48    1
    65    66    60   am
    66    60    59    1
    67    60    61    2
    68    59    58    1
    69    47    48    1
    70    47    46    1
    71    58    52   am
    72    82    83    1
    73    45    46    1
    74    45    42    1
    75    83    84    1
    76    83    86    1
    77    84    85    2
    78    52    53    2
    79    52    51    1
    80    44    43    2
    81    92    90   ar
    82    92    91   ar
    83    90    88   ar
    84    91    89   ar
    85    89    87   ar
    86    88    87   ar
    87    43    42    1
    88    43    50   am
    89    87    86    1
    90    51    50    1
    91    51    54    1
    92    42    41    1
    93    54    55    1
    94    55    56    1
    95    57    56    1
