@<TRIPOS>MOLECULE
tmp/4f76B00.pdb
 100 95 0 0 0
SMALL
GASTEIGER

@<TRIPOS>ATOM
      1  N         16.1440    3.6050   10.2410 N.3    25  ASP25      -0.1239
      2  CA        17.2470    2.7850   10.7260 C.3    25  ASP25       0.1674
      3  C         17.7410    1.8240    9.6400 C.2    25  ASP25       0.2266
      4  O         17.1890    0.7270    9.4630 O.2    25  ASP25      -0.2867
      5  CB        16.7730    2.0100   11.9550 C.3    25  ASP25       0.1410
      6  CG        17.8530    1.2150   12.6380 C.2    25  ASP25       0.3668
      7  OD1       19.0110    1.1560   12.1680 O.co2  25  ASP25      -0.2456
      8  OD2       17.5410    0.6840   13.7400 O.co2  25  ASP25      -0.2456
      9  N         20.3450    0.0970    9.6660 N.3    27  GLY27      -0.1210
     10  CA        20.8630   -1.0870   10.3110 C.3    27  GLY27       0.1956
     11  C         19.8130   -2.1180   10.6950 C.2    27  GLY27       0.2612
     12  O         20.1800   -3.2010   11.1540 O.2    27  GLY27      -0.2717
     13  N         18.5340   -1.8070   10.5420 N.am   28  ALA28      -0.1965
     14  CA        17.4590   -2.7350   10.9150 C.3    28  ALA28       0.1728
     15  C         16.8930   -3.4480    9.6860 C.2    28  ALA28       0.2616
     16  O         16.4800   -2.7890    8.7170 O.2    28  ALA28      -0.2715
     17  CB        16.3550   -1.9920   11.6540 C.3    28  ALA28       0.0334
     18  N         16.8940   -4.7820    9.7140 N.am   29  ASP29      -0.1957
     19  CA        16.2380   -5.5650    8.6440 C.3    29  ASP29       0.1840
     20  C         14.7150   -5.3460    8.6470 C.2    29  ASP29       0.2622
     21  O         14.0660   -5.2800    7.5840 O.2    29  ASP29      -0.2715
     22  CB        16.4710   -7.0730    8.8100 C.3    29  ASP29       0.1450
     23  CG        17.9250   -7.4780    8.7610 C.2    29  ASP29       0.3671
     24  OD1       18.7680   -6.7650    8.1640 O.co2  29  ASP29      -0.2456
     25  OD2       18.2150   -8.5790    9.3020 O.co2  29  ASP29      -0.2456
     26  N         14.1710   -5.2170    9.8570 N.am   30  ASP30      -0.1971
     27  CA        12.7380   -5.2010   10.1020 C.3    30  ASP30       0.1709
     28  C         12.3190   -3.9090   10.7790 C.2    30  ASP30       0.2293
     29  O         13.1530   -3.1640   11.3170 O.2    30  ASP30      -0.2864
     30  CB        12.3280   -6.3560   11.0240 C.3    30  ASP30       0.1436
     31  CG        12.8640   -7.6860   10.5800 C.2    30  ASP30       0.3671
     32  OD1       12.8150   -7.9730    9.3650 O.co2  30  ASP30      -0.2456
     33  OD2       13.3300   -8.4500   11.4550 O.co2  30  ASP30      -0.2456
     34  N         10.1840   -2.2870   13.8100 N.3    32  VAL32      -0.1245
     35  CA         9.8290   -2.7280   15.1660 C.3    32  VAL32       0.1561
     36  C          9.1920   -1.5400   15.8740 C.2    32  VAL32       0.2260
     37  O          9.8010   -0.4760   15.9870 O.2    32  VAL32      -0.2867
     38  CB        11.0300   -3.1940   16.0030 C.3    32  VAL32       0.0252
     39  CG1       10.5330   -3.8530   17.3070 C.3    32  VAL32       0.0019
     40  CG2       11.9660   -4.1170   15.2040 C.3    32  VAL32       0.0019
     41  N          7.8450  -13.9710   17.2500 N.3    45  LYS45      -0.1231
     42  CA         9.1560  -13.8800   16.6400 C.3    45  LYS45       0.1693
     43  C         10.1300  -13.3780   17.7100 C.2    45  LYS45       0.2592
     44  O          9.7290  -12.7190   18.6720 O.2    45  LYS45      -0.2718
     45  CB         9.1050  -12.9390   15.4250 C.3    45  LYS45       0.0285
     46  CG        10.3820  -12.8710   14.5820 C.3    45  LYS45       0.0035
     47  CD        10.2350  -11.8660   13.4410 C.3    45  LYS45       0.0206
     48  CE        11.4950  -11.7300   12.6390 C.3    45  LYS45       0.1093
     49  NZ        11.7770  -12.9210   11.8030 N.3    45  LYS45      -0.1314
     50  N         11.4030  -13.7190   17.5350 N.am   46  MET46      -0.1965
     51  CA        12.4820  -13.1840   18.3490 C.3    46  MET46       0.1736
     52  C         13.4330  -12.4050   17.4520 C.2    46  MET46       0.2616
     53  O         13.8640  -12.9140   16.4220 O.2    46  MET46      -0.2715
     54  CB        13.2350  -14.3340   19.0150 C.3    46  MET46       0.0427
     55  CG        12.4840  -14.8670   20.2020 C.3    46  MET46       0.0599
     56  SD        12.8100  -13.8350   21.6100 S.3    46  MET46      -0.1393
     57  CE        14.2840  -14.5970   22.2990 C.3    46  MET46       0.0692
     58  N         13.7680  -11.1840   17.8470 N.am   47  ILE47      -0.1963
     59  CA        14.7010  -10.3640   17.0720 C.3    47  ILE47       0.1727
     60  C         15.8120   -9.9010   17.9830 C.2    47  ILE47       0.2617
     61  O         15.6190   -9.7350   19.1920 O.2    47  ILE47      -0.2715
     62  CB        14.0120   -9.1480   16.4190 C.3    47  ILE47       0.0290
     63  CG1       13.3450   -8.2770   17.4880 C.3    47  ILE47       0.0022
     64  CG2       13.0680   -9.6070   15.3330 C.3    47  ILE47       0.0023
     65  CD1       12.8550   -6.9290   17.0010 C.3    47  ILE47       0.0001
     66  N         16.9920   -9.7550   17.3990 N.am   48  GLY48      -0.1940
     67  CA        18.1750   -9.4530   18.1730 C.3    48  GLY48       0.2014
     68  C         18.8740   -8.1900   17.7110 C.2    48  GLY48       0.2639
     69  O         18.6980   -7.6920   16.5910 O.2    48  GLY48      -0.2714
     70  N         19.7290   -7.7180   18.5970 N.am   49  GLY49      -0.1939
     71  CA        20.6170   -6.6070   18.3280 C.3    49  GLY49       0.2014
     72  C         21.5700   -6.4860   19.5060 C.2    49  GLY49       0.2638
     73  O         21.8240   -7.4560   20.2280 O.2    49  GLY49      -0.2714
     74  N         22.0600   -5.2760   19.7370 N.am   50  ILE50      -0.1977
     75  CA        22.9500   -5.0590   20.8600 C.3    50  ILE50       0.1596
     76  C         22.1460   -5.3370   22.1410 C.2    50  ILE50       0.2287
     77  O         21.0180   -4.8640   22.3060 O.2    50  ILE50      -0.2864
     78  CB        23.5850   -3.6520   20.8240 C.3    50  ILE50       0.0276
     79  CG1       24.7470   -3.6570   19.8100 C.3    50  ILE50       0.0022
     80  CG2       24.0770   -3.2530   22.2060 C.3    50  ILE50       0.0022
     81  CD1       25.2190   -2.2830   19.3450 C.3    50  ILE50       0.0001
     82  N         18.2210  -10.4950   22.6310 N.3    53  PHE53      -0.1241
     83  CA        16.9850  -10.6940   21.8920 C.3    53  PHE53       0.1605
     84  C         15.7810  -10.2170   22.6840 C.2    53  PHE53       0.2264
     85  O         15.7850  -10.2280   23.9270 O.2    53  PHE53      -0.2867
     86  CB        16.8030  -12.1640   21.4820 C.3    53  PHE53       0.0534
     87  CG        17.6800  -12.5860   20.3350 C.ar   53  PHE53      -0.0203
     88  CD1       19.0370  -12.8620   20.5320 C.ar   53  PHE53      -0.0042
     89  CD2       17.1600  -12.7320   19.0660 C.ar   53  PHE53      -0.0042
     90  CE1       19.8410  -13.2640   19.4750 C.ar   53  PHE53      -0.0003
     91  CE2       17.9680  -13.1330   18.0130 C.ar   53  PHE53      -0.0003
     92  CZ        19.3060  -13.3910   18.2150 C.ar   53  PHE53      -0.0000
     93  N         11.1430    1.8560   15.2600 N.3    84  ILE84      -0.1245
     94  CA        12.2560    1.6990   14.3330 C.3    84  ILE84       0.1561
     95  C         11.7090    1.3500   12.9480 C.2    84  ILE84       0.2260
     96  O         10.9860    0.3610   12.8020 O.2    84  ILE84      -0.2867
     97  CB        13.1650    0.5490   14.7980 C.3    84  ILE84       0.0252
     98  CG1       13.9280    0.9380   16.0730 C.3    84  ILE84       0.0019
     99  CG2       14.1170    0.1600   13.6880 C.3    84  ILE84       0.0019
    100  CD1       14.6030   -0.2530   16.7440 C.3    84  ILE84       0.0001
@<TRIPOS>BOND
     1    21    20    2
     2    24    23   ar
     3    19    20    1
     4    19    22    1
     5    19    18    1
     6    20    26   am
     7    16    15    2
     8    23    22    1
     9    23    25   ar
    10    32    31   ar
    11     4     3    2
    12     3     2    1
    13     9    10    1
    14    15    18   am
    15    15    14    1
    16    26    27    1
    17    27    28    1
    18    27    30    1
    19     1     2    1
    20    10    11    1
    21    13    11   am
    22    13    14    1
    23    31    30    1
    24    31    33   ar
    25    11    12    2
    26     2     5    1
    27    28    29    2
    28    14    17    1
    29    49    48    1
    30     5     6    1
    31     7     6   ar
    32     6     8   ar
    33    48    47    1
    34    96    95    2
    35    95    94    1
    36    47    46    1
    37    99    97    1
    38    34    35    1
    39    94    97    1
    40    94    93    1
    41    46    45    1
    42    97    98    1
    43    35    36    1
    44    35    38    1
    45    40    38    1
    46    64    62    1
    47    45    42    1
    48    36    37    2
    49    38    39    1
    50    98   100    1
    51    62    59    1
    52    62    63    1
    53    53    52    2
    54    69    68    2
    55    42    41    1
    56    42    43    1
    57    65    63    1
    58    59    58    1
    59    59    60    1
    60    66    60   am
    61    66    67    1
    62    52    58   am
    63    52    51    1
    64    50    43   am
    65    50    51    1
    66    43    44    2
    67    68    67    1
    68    68    70   am
    69    60    61    2
    70    91    92   ar
    71    91    89   ar
    72    92    90   ar
    73    71    70    1
    74    71    72    1
    75    51    54    1
    76    54    55    1
    77    89    87   ar
    78    81    79    1
    79    90    88   ar
    80    72    74   am
    81    72    73    2
    82    74    75    1
    83    79    78    1
    84    55    56    1
    85    87    88   ar
    86    87    86    1
    87    78    75    1
    88    78    80    1
    89    75    76    1
    90    86    83    1
    91    56    57    1
    92    83    82    1
    93    83    84    1
    94    76    77    2
    95    84    85    2
