@<TRIPOS>MOLECULE
tmp/4f79A00.pdb
 194 187 0 0 0
SMALL
GASTEIGER

@<TRIPOS>ATOM
      1  N         36.4890   -7.6480   13.7160 N.3    19  GLN19      -0.1245
      2  CA        37.2810   -6.5600   14.2860 C.3    19  GLN19       0.1566
      3  C         37.7190   -6.7600   15.7380 C.2    19  GLN19       0.2260
      4  O         38.6160   -6.0480   16.2050 O.2    19  GLN19      -0.2867
      5  CB        36.5830   -5.2100   14.1160 C.3    19  GLN19       0.0367
      6  CG        36.5630   -4.7130   12.6710 C.3    19  GLN19       0.0905
      7  CD        35.7970   -3.4190   12.5170 C.2    19  GLN19       0.2608
      8  OE1       34.6350   -3.4250   12.1410 O.2    19  GLN19      -0.2717
      9  NE2       36.4440   -2.3050   12.8140 N.am   19  GLN19      -0.0878
     10  N         29.2250   -8.2730    7.7030 N.3   131  HIS131     -0.1226
     11  CA        29.9860   -7.0840    8.0430 C.3   131  HIS131      0.1752
     12  C         31.4500   -7.2420    7.6670 C.2   131  HIS131      0.2596
     13  O         32.2910   -7.4650    8.5260 O.2   131  HIS131     -0.2718
     14  CB        29.8250   -6.7560    9.5320 C.3   131  HIS131      0.0759
     15  CG        30.3020   -5.3910    9.9100 C.ar  131  HIS131      0.0818
     16  ND1       29.7170   -4.6540   10.9210 N.ar  131  HIS131     -0.2268
     17  CD2       31.3210   -4.6360    9.4370 C.ar  131  HIS131      0.1154
     18  CE1       30.3480   -3.5010   11.0460 C.ar  131  HIS131      0.1986
     19  NE2       31.3260   -3.4640   10.1560 N.ar  131  HIS131     -0.2212
     20  N         31.7300   -7.1220    6.3700 N.am  132  PHE132     -0.1976
     21  CA        33.0940   -7.0920    5.8490 C.3   132  PHE132      0.1639
     22  C         33.8770   -8.3530    6.1730 C.2   132  PHE132      0.2290
     23  O         35.0800   -8.2770    6.4290 O.2   132  PHE132     -0.2864
     24  CB        33.8600   -5.8890    6.4060 C.3   132  PHE132      0.0560
     25  CG        33.1500   -4.5700    6.2220 C.ar  132  PHE132     -0.0200
     26  CD1       32.0520   -4.4630    5.3750 C.ar  132  PHE132     -0.0042
     27  CD2       33.5950   -3.4320    6.8880 C.ar  132  PHE132     -0.0042
     28  CE1       31.4020   -3.2520    5.2060 C.ar  132  PHE132     -0.0003
     29  CE2       32.9540   -2.2120    6.7200 C.ar  132  PHE132     -0.0003
     30  CZ        31.8520   -2.1210    5.8860 C.ar  132  PHE132     -0.0000
     31  N         26.0400   -4.7580    6.0890 N.3   176  ASN176     -0.1225
     32  CA        26.6180   -3.5500    6.6620 C.3   176  ASN176      0.1785
     33  C         27.0250   -2.5430    5.6010 C.2   176  ASN176      0.2597
     34  O         27.7170   -2.8990    4.6450 O.2   176  ASN176     -0.2718
     35  CB        27.8270   -3.8580    7.5450 C.3   176  ASN176      0.1169
     36  CG        28.1450   -2.7140    8.5000 C.2   176  ASN176      0.2627
     37  OD1       27.3470   -2.4000    9.3900 O.2   176  ASN176     -0.2716
     38  ND2       29.3060   -2.0830    8.3190 N.am  176  ASN176     -0.0877
     39  N         26.5960   -1.2940    5.7870 N.am  177  GLU177     -0.1979
     40  CA        27.0160   -0.1780    4.9440 C.3   177  GLU177      0.1602
     41  C         27.0780   -0.5520    3.4660 C.2   177  GLU177      0.2287
     42  O         28.0610   -0.2880    2.7640 O.2   177  GLU177     -0.2864
     43  CB        28.3470    0.3620    5.4460 C.3   177  GLU177      0.0415
     44  CG        28.2150    0.9940    6.8210 C.3   177  GLU177      0.1163
     45  CD        29.4870    1.6600    7.2960 C.2   177  GLU177      0.3649
     46  OE1       30.5780    1.2460    6.8550 O.co2 177  GLU177     -0.2457
     47  OE2       29.3920    2.6060    8.1080 O.co2 177  GLU177     -0.2457
     48  N         28.6270    1.5770    0.7770 N.3   180  ASN180     -0.1240
     49  CA        30.0100    2.0470    0.7670 C.3   180  ASN180      0.1653
     50  C         30.6010    1.9360   -0.6300 C.2   180  ASN180      0.2266
     51  O         31.3860    2.7810   -1.0600 O.2   180  ASN180     -0.2867
     52  CB        30.8690    1.2700    1.7520 C.3   180  ASN180      0.1155
     53  CG        30.7870    1.8240    3.1550 C.2   180  ASN180      0.2627
     54  OD1       30.3780    2.9700    3.3670 O.2   180  ASN180     -0.2716
     55  ND2       31.1890    1.0170    4.1270 N.am  180  ASN180     -0.0877
     56  N         38.7860   -0.9320   -1.4020 N.3   188  PHE188     -0.1241
     57  CA        38.2580   -1.2810   -0.0780 C.3   188  PHE188      0.1605
     58  C         36.7930   -1.7030   -0.0260 C.2   188  PHE188      0.2264
     59  O         36.4610   -2.8290    0.3490 O.2   188  PHE188     -0.2867
     60  CB        38.4550   -0.1220    0.9000 C.3   188  PHE188      0.0534
     61  CG        38.1160   -0.4790    2.3220 C.ar  188  PHE188     -0.0203
     62  CD1       39.0530   -1.1100    3.1340 C.ar  188  PHE188     -0.0042
     63  CD2       36.8580   -0.2070    2.8430 C.ar  188  PHE188     -0.0042
     64  CE1       38.7550   -1.4500    4.4480 C.ar  188  PHE188     -0.0003
     65  CE2       36.5430   -0.5460    4.1600 C.ar  188  PHE188     -0.0003
     66  CZ        37.4950   -1.1670    4.9640 C.ar  188  PHE188     -0.0000
     67  N         25.6780    3.4480    5.2570 N.3   240  ALA240     -0.1245
     68  CA        26.5850    4.4670    5.7460 C.3   240  ALA240      0.1562
     69  C         26.0100    5.8190    5.3380 C.2   240  ALA240      0.2260
     70  O         25.7590    6.0640    4.1490 O.2   240  ALA240     -0.2867
     71  CB        27.9490    4.2720    5.1520 C.3   240  ALA240      0.0290
     72  N         26.7820    9.5530    5.0660 N.3   242  CYS242     -0.1235
     73  CA        27.6270   10.7380    5.0310 C.3   242  CYS242      0.1677
     74  C         26.8640   11.7530    4.2100 C.2   242  CYS242      0.2270
     75  O         26.8680   11.6750    2.9900 O.2   242  CYS242     -0.2867
     76  CB        28.9590   10.4370    4.3430 C.3   242  CYS242      0.0956
     77  SG        29.7790    8.8790    4.8260 S.3   242  CYS242     -0.0801
     78  N         24.5300    7.7220   -3.9730 N.3   264  ARG264     -0.1245
     79  CA        25.0610    7.1590   -2.7390 C.3   264  ARG264      0.1563
     80  C         23.9830    6.4600   -1.9130 C.2   264  ARG264      0.2260
     81  O         24.2920    5.6240   -1.0630 O.2   264  ARG264     -0.2867
     82  CB        25.7760    8.2250   -1.9100 C.3   264  ARG264      0.0307
     83  CG        27.1470    7.7910   -1.4510 C.3   264  ARG264      0.0489
     84  CD        27.6120    8.5440   -0.2140 C.3   264  ARG264      0.2205
     85  NE        28.9070    8.0430    0.2340 N.pl3 264  ARG264     -0.0865
     86  CZ        29.0760    7.1360    1.1920 C.cat 264  ARG264      0.5346
     87  NH1       28.0210    6.6390    1.8230 N.pl3 264  ARG264      0.1354
     88  NH2       30.3020    6.7320    1.5220 N.pl3 264  ARG264      0.1354
     89  N         25.1070    4.1480    9.9280 N.3   312  SER312     -0.1217
     90  CA        26.2170    4.7120   10.6570 C.3   312  SER312      0.1889
     91  C         26.2700    6.1980   10.3350 C.2   312  SER312      0.2288
     92  O         25.8270    6.6370    9.2750 O.2   312  SER312     -0.2866
     93  CB        27.5100    4.0400   10.2250 C.3   312  SER312      0.2089
     94  OG        27.6930    4.2090    8.8290 O.3   312  SER312     -0.2183
     95  N         29.3760    9.2640   10.9350 N.3   314  TYR314     -0.1227
     96  CA        30.6210    9.7510   11.5330 C.3   314  TYR314      0.1736
     97  C         30.9150   11.1660   11.0640 C.2   314  TYR314      0.2595
     98  O         31.5510   11.9430   11.7680 O.2   314  TYR314     -0.2718
     99  CB        31.8030    8.8560   11.1740 C.3   314  TYR314      0.0548
    100  CG        31.6900    7.4320   11.6570 C.ar  314  TYR314     -0.0200
    101  CD1       32.2340    7.0500   12.8770 C.ar  314  TYR314     -0.0009
    102  CD2       31.0530    6.4630   10.8830 C.ar  314  TYR314     -0.0009
    103  CE1       32.1450    5.7410   13.3250 C.ar  314  TYR314      0.0417
    104  CE2       30.9560    5.1570   11.3180 C.ar  314  TYR314      0.0417
    105  CZ        31.5060    4.7970   12.5430 C.ar  314  TYR314      0.1957
    106  OH        31.4120    3.4950   12.9840 O.3   314  TYR314     -0.2866
    107  N         30.4350   11.5070    9.8760 N.am  315  MET315     -0.1979
    108  CA        30.8300   12.7620    9.2680 C.3   315  MET315      0.1605
    109  C         29.9410   13.1670    8.1070 C.2   315  MET315      0.2287
    110  O         29.0560   12.4200    7.6670 O.2   315  MET315     -0.2864
    111  CB        32.2740   12.6580    8.7770 C.3   315  MET315      0.0413
    112  CG        32.4260   11.7750    7.5440 C.3   315  MET315      0.0598
    113  SD        34.0620   11.0230    7.4530 S.3   315  MET315     -0.1393
    114  CE        33.6120    9.2940    7.4480 C.3   315  MET315      0.0692
    115  N         38.6820   12.8950    9.4740 N.3   350  TRP350     -0.1241
    116  CA        37.2350   12.7250    9.4670 C.3   350  TRP350      0.1605
    117  C         36.5860   13.9560   10.0610 C.2   350  TRP350      0.2264
    118  O         36.8420   14.3040   11.2070 O.2   350  TRP350     -0.2867
    119  CB        36.8230   11.4780   10.2470 C.3   350  TRP350      0.0550
    120  CG        37.2780   10.2010    9.6130 C.ar  350  TRP350      0.0003
    121  CD1       38.3180   10.0410    8.7420 C.ar  350  TRP350      0.0946
    122  CD2       36.6950    8.9070    9.7840 C.ar  350  TRP350      0.0152
    123  NE1       38.4250    8.7250    8.3690 N.ar  350  TRP350     -0.2442
    124  CE2       37.4410    8.0060    8.9920 C.ar  350  TRP350      0.0810
    125  CE3       35.6150    8.4210   10.5270 C.ar  350  TRP350      0.0012
    126  CZ2       37.1480    6.6470    8.9320 C.ar  350  TRP350      0.0191
    127  CZ3       35.3240    7.0710   10.4640 C.ar  350  TRP350      0.0001
    128  CH2       36.0920    6.1980    9.6750 C.ar  350  TRP350      0.0015
    129  N         25.7820    2.9420   14.4880 N.3   376  GLN376     -0.1245
    130  CA        27.2150    3.2340   14.5100 C.3   376  GLN376      0.1566
    131  C         27.4460    4.7530   14.5500 C.2   376  GLN376      0.2260
    132  O         27.0140    5.4900   13.6580 O.2   376  GLN376     -0.2867
    133  CB        27.9450    2.6510   13.2880 C.3   376  GLN376      0.0367
    134  CG        28.0460    1.1400   13.2180 C.3   376  GLN376      0.0905
    135  CD        28.8500    0.6430   11.9990 C.2   376  GLN376      0.2608
    136  OE1       28.6290   -0.4640   11.5040 O.2   376  GLN376     -0.2717
    137  NE2       29.7980    1.4540   11.5350 N.am  376  GLN376     -0.0878
    138  N         29.9390    3.4080   18.1210 N.3   424  TRP424     -0.1241
    139  CA        30.8530    2.4730   17.4980 C.3   424  TRP424      0.1605
    140  C         32.0820    2.1690   18.3600 C.2   424  TRP424      0.2264
    141  O         32.6380    3.0550   19.0260 O.2   424  TRP424     -0.2867
    142  CB        31.3280    2.9760   16.1330 C.3   424  TRP424      0.0550
    143  CG        32.3730    2.0380   15.5590 C.ar  424  TRP424      0.0003
    144  CD1       33.7230    2.2570   15.4670 C.ar  424  TRP424      0.0946
    145  CD2       32.1490    0.7070   15.0740 C.ar  424  TRP424      0.0152
    146  NE1       34.3460    1.1490   14.9310 N.ar  424  TRP424     -0.2442
    147  CE2       33.4040    0.1820   14.6890 C.ar  424  TRP424      0.0810
    148  CE3       31.0050   -0.0910   14.9210 C.ar  424  TRP424      0.0012
    149  CZ2       33.5520   -1.1060   14.1660 C.ar  424  TRP424      0.0191
    150  CZ3       31.1510   -1.3740   14.3970 C.ar  424  TRP424      0.0001
    151  CH2       32.4170   -1.8660   14.0240 C.ar  424  TRP424      0.0015
    152  N         40.6800   -1.2560   13.6280 N.3   431  SER431     -0.1202
    153  CA        39.9250   -0.3650   12.7620 C.3   431  SER431      0.2020
    154  C         39.7110   -1.0240   11.4040 C.2   431  SER431      0.2619
    155  O         40.4270   -1.9610   11.0280 O.2   431  SER431     -0.2717
    156  CB        40.6100    1.0030   12.6230 C.3   431  SER431      0.2103
    157  OG        41.8830    0.9010   12.0110 O.3   431  SER431     -0.2182
    158  N         38.6990   -0.5590   10.6830 N.am  432  ALA432     -0.1965
    159  CA        38.3980   -1.1410    9.3800 C.3   432  ALA432      0.1728
    160  C         39.3190   -0.5690    8.2940 C.2   432  ALA432      0.2617
    161  O         39.9670   -1.3200    7.5560 O.2   432  ALA432     -0.2715
    162  CB        36.9370   -0.9260    9.0240 C.3   432  ALA432      0.0334
    163  N         39.3950    0.7580    8.2220 N.am  433  GLY433     -0.1940
    164  CA        40.1330    1.4210    7.1660 C.3   433  GLY433      0.2014
    165  C         41.6300    1.1640    7.1050 C.2   433  GLY433      0.2639
    166  O         42.2110    1.0900    6.0200 O.2   433  GLY433     -0.2714
    167  N         42.2640    1.0260    8.2640 N.am  434  THR434     -0.1950
    168  CA        43.7170    0.9800    8.3010 C.3   434  THR434      0.1897
    169  C         44.2410   -0.2140    9.0730 C.2   434  THR434      0.2313
    170  O         45.4410   -0.5100    9.0270 O.2   434  THR434     -0.2863
    171  CB        44.2780    2.2450    8.9440 C.3   434  THR434      0.1794
    172  OG1       43.7480    2.3690   10.2720 O.3   434  THR434     -0.2208
    173  CG2       43.8900    3.4720    8.1210 C.3   434  THR434      0.0378
    174  N         44.0010    3.8280   16.5090 N.3   439  LYS439     -0.1245
    175  CA        42.7950    4.5960   16.2200 C.3   439  LYS439      0.1561
    176  C         41.6640    4.0130   17.0710 C.2   439  LYS439      0.2260
    177  O         40.9210    3.1220   16.6360 O.2   439  LYS439     -0.2867
    178  CB        42.4530    4.5750   14.7160 C.3   439  LYS439      0.0271
    179  CG        41.2450    5.4430   14.3190 C.3   439  LYS439      0.0035
    180  CD        40.9110    5.3640   12.8110 C.3   439  LYS439      0.0206
    181  CE        39.7650    6.3120   12.4560 C.3   439  LYS439      0.1093
    182  NZ        39.3800    6.2760   11.0090 N.3   439  LYS439     -0.1314
    183  N         38.2860    3.7910   19.5390 N.3   441  TYR441     -0.1241
    184  CA        36.9150    4.2750   19.6370 C.3   441  TYR441      0.1605
    185  C         36.2950    4.0290   21.0180 C.2   441  TYR441      0.2264
    186  O         35.2330    4.5610   21.3370 O.2   441  TYR441     -0.2867
    187  CB        36.0570    3.6280   18.5510 C.3   441  TYR441      0.0534
    188  CG        36.2120    4.2660   17.1770 C.ar  441  TYR441     -0.0201
    189  CD1       35.3740    5.3020   16.7660 C.ar  441  TYR441     -0.0009
    190  CD2       37.1860    3.8250   16.2870 C.ar  441  TYR441     -0.0009
    191  CE1       35.5090    5.8890   15.5050 C.ar  441  TYR441      0.0417
    192  CE2       37.3280    4.4060   15.0340 C.ar  441  TYR441      0.0417
    193  CZ        36.4900    5.4340   14.6490 C.ar  441  TYR441      0.1957
    194  OH        36.6460    6.0030   13.4090 O.3   441  TYR441     -0.2866
@<TRIPOS>BOND
     1    78    79    1
     2    79    80    1
     3    79    82    1
     4    80    81    2
     5    82    83    1
     6    83    84    1
     7    56    57    1
     8    51    50    2
     9    50    49    1
    10    84    85    1
    11    57    58    1
    12    57    60    1
    13    58    59    2
    14    85    86    2
    15    49    48    1
    16    49    52    1
    17    60    61    1
    18    86    88    1
    19    86    87    1
    20    52    53    1
    21    61    63   ar
    22    61    62   ar
    23    42    41    2
    24    63    65   ar
    25    75    74    2
    26    62    64   ar
    27    53    54    2
    28    53    55   am
    29    41    40    1
    30    70    69    2
    31    65    66   ar
    32    74    73    1
    33    76    77    1
    34    76    73    1
    35    64    66   ar
    36    34    33    2
    37    40    43    1
    38    40    39    1
    39    73    72    1
    40    71    68    1
    41    28    26   ar
    42    28    30   ar
    43    67    68    1
    44    69    68    1
    45    26    25   ar
    46    43    44    1
    47    33    39   am
    48    33    32    1
    49    21    22    1
    50    21    20    1
    51    21    24    1
    52    30    29   ar
    53   166   165    2
    54    31    32    1
    55    22    23    2
    56    25    24    1
    57    25    27   ar
    58    20    12   am
    59    32    35    1
    60    29    27   ar
    61    44    45    1
    62    46    45   ar
    63   165   164    1
    64   165   167   am
    65   164   163    1
    66    45    47   ar
    67   114   113    1
    68   113   112    1
    69   112   111    1
    70    35    36    1
    71   161   160    2
    72   110   109    2
    73    12    11    1
    74    12    13    2
    75    10    11    1
    76    11    14    1
    77   109   108    1
    78   173   171    1
    79   163   160   am
    80   167   168    1
    81   160   159    1
    82   168   171    1
    83   168   169    1
    84    38    36   am
    85   123   121   ar
    86   123   124   ar
    87    36    37    2
    88   121   120   ar
    89   111   108    1
    90    94    93    1
    91   126   124   ar
    92   126   128   ar
    93   171   172    1
    94   124   122   ar
    95   162   159    1
    96   170   169    2
    97   108   107    1
    98    92    91    2
    99   159   158    1
   100    17    15   ar
   101    17    19   ar
   102   116   115    1
   103   116   117    1
   104   116   119    1
   105    14    15    1
   106   120   122   ar
   107   120   119    1
   108   128   127   ar
   109   122   125   ar
   110   107    97   am
   111    15    16   ar
   112    89    90    1
   113   117   118    2
   114    19    18   ar
   115    93    90    1
   116    91    90    1
   117   127   125   ar
   118   158   154   am
   119   102   104   ar
   120   102   100   ar
   121    16    18   ar
   122    95    96    1
   123   182   181    1
   124   155   154    2
   125    97    96    1
   126    97    98    2
   127    99    96    1
   128    99   100    1
   129   104   105   ar
   130   154   153    1
   131   136   135    2
   132   137   135   am
   133   100   101   ar
   134   135   134    1
   135   157   156    1
   136     8     7    2
   137   181   180    1
   138     7     6    1
   139     7     9   am
   140   105   106    1
   141   105   103   ar
   142   156   153    1
   143     6     5    1
   144   153   152    1
   145   180   179    1
   146   101   103   ar
   147   134   133    1
   148   133   130    1
   149   194   193    1
   150   132   131    2
   151     1     2    1
   152   151   149   ar
   153   151   150   ar
   154     5     2    1
   155   149   147   ar
   156     2     3    1
   157   179   178    1
   158   150   148   ar
   159   129   130    1
   160   130   131    1
   161   193   192   ar
   162   193   191   ar
   163   147   146   ar
   164   147   145   ar
   165   178   175    1
   166   148   145   ar
   167   146   144   ar
   168   192   190   ar
   169   145   143   ar
   170   144   143   ar
   171   191   189   ar
   172   143   142    1
   173     3     4    2
   174   142   139    1
   175   175   174    1
   176   175   176    1
   177   190   188   ar
   178   177   176    2
   179   189   188   ar
   180   188   187    1
   181   139   138    1
   182   139   140    1
   183   140   141    2
   184   187   184    1
   185   183   184    1
   186   184   185    1
   187   185   186    2
