@<TRIPOS>MOLECULE
tmp/4f7aA00.pdb
 96 94 0 0 0
SMALL
GASTEIGER

@<TRIPOS>ATOM
      1  N         64.7770   97.8980   86.4430 N.3    50  PHE50      -0.1241
      2  CA        66.0210   98.2160   85.7290 C.3    50  PHE50       0.1605
      3  C         66.1760   97.3940   84.4470 C.2    50  PHE50       0.2264
      4  O         67.0560   97.6860   83.6210 O.2    50  PHE50      -0.2867
      5  CB        67.2560   97.9770   86.6200 C.3    50  PHE50       0.0534
      6  CG        67.6260   96.5230   86.7640 C.ar   50  PHE50      -0.0203
      7  CD1       66.8730   95.6710   87.5430 C.ar   50  PHE50      -0.0042
      8  CD2       68.7270   96.0030   86.0930 C.ar   50  PHE50      -0.0042
      9  CE1       67.2060   94.3150   87.6550 C.ar   50  PHE50      -0.0003
     10  CE2       69.0690   94.6500   86.2080 C.ar   50  PHE50      -0.0003
     11  CZ        68.2980   93.8110   86.9850 C.ar   50  PHE50      -0.0000
     12  N         61.9650   93.8210   95.6790 N.3   239  ALA239     -0.1231
     13  CA        63.2110   94.5320   96.0200 C.3   239  ALA239      0.1694
     14  C         64.3650   93.5360   96.1650 C.2   239  ALA239      0.2593
     15  O         65.4960   93.8230   95.7510 O.2   239  ALA239     -0.2718
     16  CB        63.0710   95.3300   97.2620 C.3   239  ALA239      0.0304
     17  N         64.0710   92.3680   96.7370 N.am  240  GLY240     -0.1942
     18  CA        65.0610   91.3160   96.8990 C.3   240  GLY240      0.2014
     19  C         65.5600   90.7780   95.5730 C.2   240  GLY240      0.2639
     20  O         66.6740   90.2990   95.4930 O.2   240  GLY240     -0.2714
     21  N         64.7430   90.8600   94.5310 N.am  241  TRP241     -0.1959
     22  CA        65.1900   90.5150   93.1800 C.3   241  TRP241      0.1771
     23  C         65.9650   91.6360   92.4770 C.2   241  TRP241      0.2620
     24  O         66.4070   91.4700   91.3510 O.2   241  TRP241     -0.2715
     25  CB        64.0030   90.1690   92.2970 C.3   241  TRP241      0.0590
     26  CG        63.1940   89.0140   92.7440 C.ar  241  TRP241      0.0006
     27  CD1       63.5650   88.0220   93.6100 C.ar  241  TRP241      0.0946
     28  CD2       61.8830   88.6760   92.2750 C.ar  241  TRP241      0.0152
     29  NE1       62.5430   87.0970   93.7240 N.ar  241  TRP241     -0.2442
     30  CE2       61.5030   87.4790   92.9170 C.ar  241  TRP241      0.0810
     31  CE3       60.9990   89.2640   91.3670 C.ar  241  TRP241      0.0012
     32  CZ2       60.2650   86.8700   92.6910 C.ar  241  TRP241      0.0191
     33  CZ3       59.7700   88.6590   91.1480 C.ar  241  TRP241      0.0001
     34  CH2       59.4230   87.4700   91.7990 C.ar  241  TRP241      0.0015
     35  N         66.0960   92.7830   93.1210 N.am  242  GLY242     -0.1954
     36  CA        66.8040   93.9050   92.5530 C.3   242  GLY242      0.1869
     37  C         66.0050   94.7310   91.5590 C.2   242  GLY242      0.2309
     38  O         66.5940   95.3700   90.7050 O.2   242  GLY242     -0.2863
     39  N         63.4090  100.3270   91.6820 N.3   245  TYR245     -0.1241
     40  CA        64.1580  101.5740   91.6600 C.3   245  TYR245      0.1605
     41  C         63.2270  102.7570   91.8190 C.2   245  TYR245      0.2264
     42  O         62.0310  102.6760   91.5210 O.2   245  TYR245     -0.2867
     43  CB        64.9580  101.7280   90.3430 C.3   245  TYR245      0.0534
     44  CG        66.1620  100.8400   90.2880 C.ar  245  TYR245     -0.0201
     45  CD1       66.0300   99.4610   90.0730 C.ar  245  TYR245     -0.0009
     46  CD2       67.4370  101.3520   90.5130 C.ar  245  TYR245     -0.0009
     47  CE1       67.1370   98.6410   90.0230 C.ar  245  TYR245      0.0417
     48  CE2       68.5460  100.5230   90.4840 C.ar  245  TYR245      0.0417
     49  CZ        68.3890   99.1700   90.2490 C.ar  245  TYR245      0.1957
     50  OH        69.5020   98.3300   90.2210 O.3   245  TYR245     -0.2866
     51  N         74.1280  104.4260   93.2040 N.3   269  THR269     -0.1218
     52  CA        75.4820  103.8480   93.2110 C.3   269  THR269      0.1862
     53  C         76.2970  104.2190   91.9500 C.2   269  THR269      0.2287
     54  O         77.4630  103.7970   91.7960 O.2   269  THR269     -0.2866
     55  CB        75.4350  102.3170   93.3630 C.3   269  THR269      0.1770
     56  OG1       74.5500  101.7740   92.3860 O.3   269  THR269     -0.2211
     57  CG2       74.9690  101.9050   94.8050 C.3   269  THR269      0.0375
     58  N         70.5580  100.6590   86.0890 N.3   295  GLN295     -0.1245
     59  CA        70.8510   99.7400   87.1810 C.3   295  GLN295      0.1566
     60  C         71.6070  100.3560   88.3740 C.2   295  GLN295      0.2260
     61  O         71.5810   99.7990   89.4770 O.2   295  GLN295     -0.2867
     62  CB        71.6120   98.5640   86.5530 C.3   295  GLN295      0.0367
     63  CG        72.4450   97.7030   87.3920 C.3   295  GLN295      0.0905
     64  CD        73.2120   96.7680   86.4790 C.2   295  GLN295      0.2608
     65  OE1       74.4030   96.9640   86.2180 O.2   295  GLN295     -0.2717
     66  NE2       72.5000   95.8230   85.8970 N.am  295  GLN295     -0.0878
     67  N         70.9810  103.6250   89.3560 N.3   297  TYR297     -0.1241
     68  CA        70.1000  104.6630   89.9340 C.3   297  TYR297      0.1605
     69  C         69.6510  104.2940   91.3520 C.2   297  TYR297      0.2264
     70  O         69.9900  103.2170   91.8780 O.2   297  TYR297     -0.2867
     71  CB        68.9120  104.9490   88.9940 C.3   297  TYR297      0.0534
     72  CG        69.2150  105.9740   87.9100 C.ar  297  TYR297     -0.0201
     73  CD1       70.4750  106.0610   87.3040 C.ar  297  TYR297     -0.0009
     74  CD2       68.2360  106.8560   87.4800 C.ar  297  TYR297     -0.0009
     75  CE1       70.7420  107.0080   86.3010 C.ar  297  TYR297      0.0417
     76  CE2       68.4780  107.7650   86.4870 C.ar  297  TYR297      0.0417
     77  CZ        69.7270  107.8730   85.9100 C.ar  297  TYR297      0.1957
     78  OH        69.9390  108.8270   84.9330 O.3   297  TYR297     -0.2866
     79  N         67.8270  103.0060   94.5740 N.3   299  PHE299     -0.1241
     80  CA        67.0390  101.8380   94.8700 C.3   299  PHE299      0.1605
     81  C         66.2020  102.1360   96.0900 C.2   299  PHE299      0.2264
     82  O         66.5420  103.0190   96.8670 O.2   299  PHE299     -0.2867
     83  CB        67.9710  100.6400   95.1580 C.3   299  PHE299      0.0534
     84  CG        67.3020   99.3040   94.9840 C.ar  299  PHE299     -0.0203
     85  CD1       66.9720   98.8610   93.7310 C.ar  299  PHE299     -0.0042
     86  CD2       67.0070   98.4950   96.0760 C.ar  299  PHE299     -0.0042
     87  CE1       66.3450   97.6320   93.5400 C.ar  299  PHE299     -0.0003
     88  CE2       66.3930   97.2530   95.8880 C.ar  299  PHE299     -0.0003
     89  CZ        66.0610   96.8290   94.6200 C.ar  299  PHE299     -0.0000
     90  N         65.7640   99.2090  101.7180 N.3   302  THR302     -0.1218
     91  CA        65.3540   97.8690  102.1360 C.3   302  THR302      0.1862
     92  C         65.4970   97.6410  103.6460 C.2   302  THR302      0.2287
     93  O         65.2700   96.5310  104.1140 O.2   302  THR302     -0.2866
     94  CB        66.1010   96.7660  101.3380 C.3   302  THR302      0.1770
     95  OG1       67.5230   96.9760  101.4080 O.3   302  THR302     -0.2211
     96  CG2       65.6480   96.7980   99.8680 C.3   302  THR302      0.0375
@<TRIPOS>BOND
     1     4     3    2
     2     3     2    1
     3    78    77    1
     4     2     1    1
     5     2     5    1
     6    66    64   am
     7    77    75   ar
     8    77    76   ar
     9    58    59    1
    10     8    10   ar
    11     8     6   ar
    12    10    11   ar
    13    65    64    2
    14    75    73   ar
    15    64    63    1
    16    76    74   ar
    17    62    59    1
    18    62    63    1
    19     5     6    1
    20     6     7   ar
    21    11     9   ar
    22    59    60    1
    23    73    72   ar
    24    74    72   ar
    25     7     9   ar
    26    72    71    1
    27    60    61    2
    28    71    68    1
    29    67    68    1
    30    68    69    1
    31    47    45   ar
    32    47    49   ar
    33    45    44   ar
    34    50    49    1
    35    49    48   ar
    36    44    43    1
    37    44    46   ar
    38    43    40    1
    39    48    46   ar
    40    38    37    2
    41    33    31   ar
    42    33    34   ar
    43    24    23    2
    44    69    70    2
    45    31    28   ar
    46    42    41    2
    47    37    36    1
    48    40    39    1
    49    40    41    1
    50    54    53    2
    51    34    32   ar
    52    53    52    1
    53    28    26   ar
    54    28    30   ar
    55    25    26    1
    56    25    22    1
    57    56    55    1
    58    23    35   am
    59    23    22    1
    60    36    35    1
    61    32    30   ar
    62    26    27   ar
    63    30    29   ar
    64    22    21    1
    65    51    52    1
    66    52    55    1
    67    55    57    1
    68    87    85   ar
    69    87    89   ar
    70    27    29   ar
    71    85    84   ar
    72    21    19   am
    73    79    80    1
    74    89    88   ar
    75    80    83    1
    76    80    81    1
    77    84    83    1
    78    84    86   ar
    79    20    19    2
    80    19    18    1
    81    12    13    1
    82    15    14    2
    83    88    86   ar
    84    13    14    1
    85    13    16    1
    86    81    82    2
    87    14    17   am
    88    17    18    1
    89    96    94    1
    90    94    95    1
    91    94    91    1
    92    90    91    1
    93    91    92    1
    94    92    93    2
