@<TRIPOS>MOLECULE
tmp/4f7bC05.pdb
 98 94 0 0 0
SMALL
GASTEIGER

@<TRIPOS>ATOM
      1  N         78.8020  -85.9360  -62.7990 N.3   196  LYS196     -0.1231
      2  CA        79.7100  -86.8480  -63.5060 C.3   196  LYS196      0.1693
      3  C         78.9870  -88.0680  -64.0720 C.2   196  LYS196      0.2592
      4  O         79.1570  -88.3920  -65.2420 O.2   196  LYS196     -0.2718
      5  CB        80.8690  -87.2810  -62.5980 C.3   196  LYS196      0.0285
      6  CG        81.7640  -88.2890  -63.3030 C.3   196  LYS196      0.0035
      7  CD        82.9980  -88.6490  -62.4830 C.3   196  LYS196      0.0206
      8  CE        83.9510  -89.4510  -63.3810 C.3   196  LYS196      0.1093
      9  NZ        83.2810  -90.6800  -63.8650 N.3   196  LYS196     -0.1314
     10  N         78.1520  -88.7070  -63.2550 N.am  197  CYS197     -0.1970
     11  CA        77.3750  -89.9000  -63.6120 C.3   197  CYS197      0.1712
     12  C         76.3860  -89.6840  -64.7520 C.2   197  CYS197      0.2296
     13  O         76.1510  -90.5940  -65.5620 O.2   197  CYS197     -0.2864
     14  CB        76.6870  -90.4720  -62.3760 C.3   197  CYS197      0.0983
     15  SG        77.8340  -91.1770  -61.1670 S.3   197  CYS197     -0.0798
     16  N         76.7530  -87.6760  -67.3070 N.3   199  MET199     -0.1245
     17  CA        77.4030  -87.2560  -68.5670 C.3   199  MET199      0.1570
     18  C         77.1690  -88.2020  -69.7390 C.2   199  MET199      0.2261
     19  O         77.1010  -89.4260  -69.5640 O.2   199  MET199     -0.2867
     20  CB        78.9040  -87.0260  -68.3750 C.3   199  MET199      0.0387
     21  CG        79.2180  -85.8460  -67.5200 C.3   199  MET199      0.0595
     22  SD        80.9860  -85.7670  -67.2210 S.3   199  MET199     -0.1393
     23  CE        81.0460  -84.5410  -65.8940 C.3   199  MET199      0.0692
     24  N         78.9900  -89.5190  -72.6450 N.3   201  ASN201     -0.1240
     25  CA        80.3390  -89.6340  -73.1660 C.3   201  ASN201      0.1653
     26  C         80.3750  -90.6070  -74.3220 C.2   201  ASN201      0.2266
     27  O         79.4980  -91.4620  -74.4060 O.2   201  ASN201     -0.2867
     28  CB        81.2390  -90.1170  -72.0640 C.3   201  ASN201      0.1155
     29  CG        81.5730  -89.0940  -71.0280 C.2   201  ASN201      0.2627
     30  OD1       81.5450  -87.8620  -71.2610 O.2   201  ASN201     -0.2716
     31  ND2       81.9280  -89.6240  -69.8690 N.am  201  ASN201     -0.0877
     32  N         85.2120  -93.9070  -74.6720 N.3   219  TYR219     -0.1241
     33  CA        83.9010  -93.7810  -74.0350 C.3   219  TYR219      0.1605
     34  C         82.8100  -94.0900  -75.0530 C.2   219  TYR219      0.2264
     35  O         83.0180  -93.9270  -76.2610 O.2   219  TYR219     -0.2867
     36  CB        83.7210  -92.3800  -73.4560 C.3   219  TYR219      0.0534
     37  CG        84.2820  -92.1790  -72.0680 C.ar  219  TYR219     -0.0201
     38  CD1       85.4980  -91.5310  -71.8710 C.ar  219  TYR219     -0.0009
     39  CD2       83.5490  -92.5310  -70.9470 C.ar  219  TYR219     -0.0009
     40  CE1       85.9780  -91.2670  -70.5870 C.ar  219  TYR219      0.0417
     41  CE2       84.0110  -92.2660  -69.6620 C.ar  219  TYR219      0.0417
     42  CZ        85.2220  -91.6310  -69.4820 C.ar  219  TYR219      0.1957
     43  OH        85.6340  -91.3950  -68.1910 O.3   219  TYR219     -0.2866
     44  N         73.4120  -95.4220  -69.1250 N.3   227  ARG227     -0.1231
     45  CA        74.5640  -94.7450  -68.5890 C.3   227  ARG227      0.1694
     46  C         75.7470  -94.8940  -69.5750 C.2   227  ARG227      0.2593
     47  O         75.8620  -95.9340  -70.2390 O.2   227  ARG227     -0.2718
     48  CB        74.8150  -95.3520  -67.1730 C.3   227  ARG227      0.0321
     49  CG        76.2380  -95.5820  -66.7620 C.3   227  ARG227      0.0489
     50  CD        76.5460  -97.0150  -66.3840 C.3   227  ARG227      0.2205
     51  NE        77.4150  -97.0320  -65.2080 N.pl3 227  ARG227     -0.0865
     52  CZ        78.7450  -96.9820  -65.2340 C.cat 227  ARG227      0.5346
     53  NH1       79.3960  -96.9540  -66.3920 N.pl3 227  ARG227      0.1354
     54  NH2       79.4340  -96.9720  -64.1020 N.pl3 227  ARG227      0.1354
     55  N         76.6130  -93.8470  -69.6780 N.am  228  SER228     -0.1938
     56  CA        77.8360  -93.8740  -70.4920 C.3   228  SER228      0.2055
     57  C         78.7750  -94.8680  -69.8440 C.2   228  SER228      0.2643
     58  O         78.7130  -95.0810  -68.6310 O.2   228  SER228     -0.2714
     59  CB        78.5220  -92.5030  -70.5290 C.3   228  SER228      0.2130
     60  OG        77.7640  -91.5350  -71.2330 O.3   228  SER228     -0.2179
     61  N         79.6190  -95.5030  -70.6560 N.am  229  VAL229     -0.1963
     62  CA        80.6220  -96.4700  -70.2190 C.3   229  VAL229      0.1727
     63  C         81.8750  -96.1370  -71.0260 C.2   229  VAL229      0.2616
     64  O         81.8260  -95.3060  -71.9390 O.2   229  VAL229     -0.2715
     65  CB        80.1780  -97.9730  -70.3890 C.3   229  VAL229      0.0290
     66  CG1       78.8700  -98.2900  -69.6550 C.3   229  VAL229      0.0023
     67  CG2       80.0860  -98.3910  -71.8500 C.3   229  VAL229      0.0023
     68  N         82.9910  -96.7610  -70.6910 N.am  230  TYR230     -0.1974
     69  CA        84.2280  -96.6060  -71.4420 C.3   230  TYR230      0.1639
     70  C         84.7850  -98.0070  -71.6550 C.2   230  TYR230      0.2290
     71  O         84.4290  -98.9220  -70.9050 O.2   230  TYR230     -0.2864
     72  CB        85.2390  -95.6720  -70.7400 C.3   230  TYR230      0.0560
     73  CG        85.7290  -96.1400  -69.3820 C.ar  230  TYR230     -0.0198
     74  CD1       86.8060  -97.0220  -69.2690 C.ar  230  TYR230     -0.0009
     75  CD2       85.1420  -95.6740  -68.2090 C.ar  230  TYR230     -0.0009
     76  CE1       87.2720  -97.4400  -68.0210 C.ar  230  TYR230      0.0417
     77  CE2       85.5930  -96.0900  -66.9590 C.ar  230  TYR230      0.0417
     78  CZ        86.6580  -96.9750  -66.8690 C.ar  230  TYR230      0.1957
     79  OH        87.1080  -97.3710  -65.6330 O.3   230  TYR230     -0.2866
     80  N         83.6040  -93.1640  -57.9910 N.3   256  ASP256     -0.1239
     81  CA        83.1890  -92.7460  -59.3380 C.3   256  ASP256      0.1674
     82  C         81.8160  -93.3090  -59.6960 C.2   256  ASP256      0.2266
     83  O         81.1270  -92.7420  -60.5390 O.2   256  ASP256     -0.2867
     84  CB        84.2190  -93.1860  -60.3970 C.3   256  ASP256      0.1410
     85  CG        85.6480  -92.8210  -60.0670 C.2   256  ASP256      0.3668
     86  OD1       86.3870  -93.7080  -59.5880 O.co2 256  ASP256     -0.2456
     87  OD2       86.0290  -91.6500  -60.2940 O.co2 256  ASP256     -0.2456
     88  N         75.5180  -93.6130  -59.1030 N.3   260  PHE260     -0.1241
     89  CA        74.6790  -94.6010  -59.7930 C.3   260  PHE260      0.1605
     90  C         73.7600  -95.3330  -58.8040 C.2   260  PHE260      0.2264
     91  O         73.1180  -96.3350  -59.1540 O.2   260  PHE260     -0.2867
     92  CB        75.5220  -95.5930  -60.6010 C.3   260  PHE260      0.0534
     93  CG        76.1950  -94.9510  -61.7810 C.ar  260  PHE260     -0.0203
     94  CD1       75.4510  -94.3720  -62.7990 C.ar  260  PHE260     -0.0042
     95  CD2       77.5810  -94.9290  -61.8860 C.ar  260  PHE260     -0.0042
     96  CE1       76.0920  -93.7520  -63.8860 C.ar  260  PHE260     -0.0003
     97  CE2       78.2150  -94.3150  -62.9730 C.ar  260  PHE260     -0.0003
     98  CZ        77.4700  -93.7420  -63.9710 C.ar  260  PHE260     -0.0000
@<TRIPOS>BOND
     1    35    34    2
     2    34    33    1
     3    32    33    1
     4    27    26    2
     5    26    25    1
     6    33    36    1
     7    36    37    1
     8    25    24    1
     9    25    28    1
    10    37    38   ar
    11    37    39   ar
    12    28    29    1
    13    64    63    2
    14    38    40   ar
    15    67    65    1
    16    70    69    1
    17    70    71    2
    18    69    72    1
    19    69    68    1
    20    30    29    2
    21    60    59    1
    22    29    31   am
    23    63    68   am
    24    63    62    1
    25    39    41   ar
    26    72    73    1
    27    61    62    1
    28    61    57   am
    29    40    42   ar
    30    59    56    1
    31    56    57    1
    32    56    55    1
    33    65    62    1
    34    65    66    1
    35    47    46    2
    36    57    58    2
    37    18    19    2
    38    18    17    1
    39    55    46   am
    40    41    42   ar
    41    46    45    1
    42    42    43    1
    43    73    74   ar
    44    73    75   ar
    45    74    76   ar
    46    44    45    1
    47    45    48    1
    48    17    20    1
    49    17    16    1
    50    20    21    1
    51    75    77   ar
    52    76    78   ar
    53    21    22    1
    54    22    23    1
    55    48    49    1
    56    77    78   ar
    57    78    79    1
    58    49    50    1
    59    53    52    1
    60    50    51    1
    61    13    12    2
    62     4     3    2
    63    52    51    2
    64    52    54    1
    65    12    11    1
    66     3     2    1
    67     3    10   am
    68    98    96   ar
    69    98    97   ar
    70    96    94   ar
    71     9     8    1
    72    11    10    1
    73    11    14    1
    74     2     1    1
    75     2     5    1
    76     8     7    1
    77     6     5    1
    78     6     7    1
    79    97    95   ar
    80    94    93   ar
    81    14    15    1
    82    95    93   ar
    83    93    92    1
    84    92    89    1
    85    83    82    2
    86    84    85    1
    87    84    81    1
    88    87    85   ar
    89    85    86   ar
    90    89    88    1
    91    89    90    1
    92    82    81    1
    93    81    80    1
    94    91    90    2
