@<TRIPOS>MOLECULE
tmp/4f7bC00.pdb
 83 79 0 0 0
SMALL
GASTEIGER

@<TRIPOS>ATOM
      1  N         65.7350 -120.4060  -67.1550 N.3    21  ASN21      -0.1225
      2  CA        64.4590 -121.0370  -66.8060 C.3    21  ASN21       0.1785
      3  C         64.4500 -121.4950  -65.3420 C.2    21  ASN21       0.2597
      4  O         65.3370 -122.2560  -64.9350 O.2    21  ASN21      -0.2718
      5  CB        64.1550 -122.1840  -67.7770 C.3    21  ASN21       0.1169
      6  CG        62.7170 -122.5990  -67.8860 C.2    21  ASN21       0.2627
      7  OD1       61.8140 -121.9910  -67.2920 O.2    21  ASN21      -0.2716
      8  ND2       62.5020 -123.6700  -68.6590 N.am   21  ASN21      -0.0877
      9  N         63.4680 -120.9950  -64.5520 N.am   22  VAL22      -0.1966
     10  CA        63.3180 -121.2480  -63.1100 C.3    22  VAL22       0.1727
     11  C         62.7450 -122.6320  -62.8590 C.2    22  VAL22       0.2616
     12  O         61.5690 -122.8760  -63.1770 O.2    22  VAL22      -0.2715
     13  CB        62.4800 -120.1380  -62.4410 C.3    22  VAL22       0.0290
     14  CG1       62.1400 -120.4690  -60.9840 C.3    22  VAL22       0.0023
     15  CG2       63.2000 -118.8100  -62.5480 C.3    22  VAL22       0.0023
     16  N         63.5630 -123.5200  -62.2430 N.am   23  THR23      -0.1951
     17  CA        63.1980 -124.9220  -61.9980 C.3    23  THR23       0.1897
     18  C         62.4550 -125.2350  -60.6920 C.2    23  THR23       0.2313
     19  O         61.8070 -126.2790  -60.6260 O.2    23  THR23      -0.2863
     20  CB        64.4110 -125.8020  -62.1400 C.3    23  THR23       0.1794
     21  OG1       65.1280 -125.7610  -60.9040 O.3    23  THR23      -0.2208
     22  CG2       65.3050 -125.3890  -63.3240 C.3    23  THR23       0.0378
     23  N         68.8640 -121.7550  -71.2580 N.3    39  VAL39      -0.1245
     24  CA        68.2490 -122.1280  -72.5410 C.3    39  VAL39       0.1561
     25  C         68.6250 -121.0650  -73.5800 C.2    39  VAL39       0.2260
     26  O         68.4820 -119.8780  -73.3060 O.2    39  VAL39      -0.2867
     27  CB        66.7190 -122.2910  -72.3460 C.3    39  VAL39       0.0252
     28  CG1       65.9920 -122.5710  -73.6590 C.3    39  VAL39       0.0019
     29  CG2       66.4260 -123.3820  -71.3200 C.3    39  VAL39       0.0019
     30  N         68.6130 -118.0380  -79.2440 N.3    42  TYR42      -0.1241
     31  CA        67.4520 -117.6740  -80.0500 C.3    42  TYR42       0.1605
     32  C         67.9530 -116.3990  -80.7950 C.2    42  TYR42       0.2264
     33  O         67.9920 -115.2940  -80.2410 O.2    42  TYR42      -0.2867
     34  CB        66.2160 -117.4640  -79.1650 C.3    42  TYR42       0.0534
     35  CG        65.6920 -118.7220  -78.4850 C.ar   42  TYR42      -0.0201
     36  CD1       66.4160 -119.3460  -77.4690 C.ar   42  TYR42      -0.0009
     37  CD2       64.4290 -119.2320  -78.7900 C.ar   42  TYR42      -0.0009
     38  CE1       65.9370 -120.4910  -76.8350 C.ar   42  TYR42       0.0417
     39  CE2       63.9320 -120.3710  -78.1500 C.ar   42  TYR42       0.0417
     40  CZ        64.6880 -120.9910  -77.1680 C.ar   42  TYR42       0.1957
     41  OH        64.2210 -122.1050  -76.5280 O.3    42  TYR42      -0.2866
     42  N         58.6930 -122.8640  -77.5790 N.3    84  ASP84      -0.1225
     43  CA        59.4770 -123.0490  -76.3580 C.3    84  ASP84       0.1805
     44  C         59.0020 -122.1130  -75.2410 C.2    84  ASP84       0.2598
     45  O         58.6920 -120.9400  -75.4900 O.2    84  ASP84      -0.2718
     46  CB        60.9810 -122.9390  -76.6210 C.3    84  ASP84       0.1424
     47  CG        61.5750 -123.9870  -77.5630 C.2    84  ASP84       0.3668
     48  OD1       60.8020 -124.6300  -78.3050 O.co2  84  ASP84      -0.2456
     49  OD2       62.8220 -124.1240  -77.5940 O.co2  84  ASP84      -0.2456
     50  N         58.8710 -122.6820  -74.0260 N.am   85  LEU85      -0.1966
     51  CA        58.3700 -122.0200  -72.8230 C.3    85  LEU85       0.1728
     52  C         59.4530 -121.6330  -71.8280 C.2    85  LEU85       0.2616
     53  O         60.4460 -122.3570  -71.6850 O.2    85  LEU85      -0.2715
     54  CB        57.4250 -122.9810  -72.1020 C.3    85  LEU85       0.0311
     55  CG        56.0450 -123.2330  -72.6880 C.3    85  LEU85       0.0022
     56  CD1       55.3560 -124.3240  -71.9260 C.3    85  LEU85       0.0001
     57  CD2       55.1930 -121.9840  -72.6900 C.3    85  LEU85       0.0001
     58  N         59.2390 -120.5260  -71.1030 N.am   86  ILE86      -0.1963
     59  CA        60.1390 -120.0750  -70.0420 C.3    86  ILE86       0.1727
     60  C         59.3540 -119.6670  -68.8010 C.2    86  ILE86       0.2616
     61  O         58.5160 -118.7550  -68.8810 O.2    86  ILE86      -0.2715
     62  CB        61.1670 -118.9850  -70.4970 C.3    86  ILE86       0.0290
     63  CG1       62.3450 -119.6130  -71.2560 C.3    86  ILE86       0.0022
     64  CG2       61.7210 -118.1730  -69.3140 C.3    86  ILE86       0.0023
     65  CD1       62.3940 -119.2680  -72.6390 C.3    86  ILE86       0.0001
     66  N         59.6400 -120.3330  -67.6470 N.am   87  ARG87      -0.1977
     67  CA        59.0450 -119.9620  -66.3610 C.3    87  ARG87       0.1597
     68  C         59.9930 -118.9840  -65.7090 C.2    87  ARG87       0.2287
     69  O         61.1340 -119.3350  -65.4190 O.2    87  ARG87      -0.2864
     70  CB        58.7720 -121.1690  -65.4430 C.3    87  ARG87       0.0334
     71  CG        57.9040 -120.8180  -64.2030 C.3    87  ARG87       0.0492
     72  CD        57.5620 -122.0400  -63.3830 C.3    87  ARG87       0.2205
     73  NE        58.7220 -122.9040  -63.1430 N.pl3  87  ARG87      -0.0865
     74  CZ        58.6840 -124.2290  -63.1550 C.cat  87  ARG87       0.5346
     75  NH1       57.5450 -124.8620  -63.3760 N.pl3  87  ARG87       0.1354
     76  NH2       59.7870 -124.9330  -62.9380 N.pl3  87  ARG87       0.1354
     77  N         54.7100 -118.7040  -66.8160 N.3   122  THR122     -0.1218
     78  CA        55.2730 -119.3660  -67.9950 C.3   122  THR122      0.1862
     79  C         54.6770 -118.8110  -69.2890 C.2   122  THR122      0.2287
     80  O         53.4590 -118.6750  -69.4040 O.2   122  THR122     -0.2866
     81  CB        55.2440 -120.9010  -67.8660 C.3   122  THR122      0.1770
     82  OG1       55.9820 -121.5270  -68.9280 O.3   122  THR122     -0.2211
     83  CG2       53.8680 -121.4920  -67.8530 C.3   122  THR122      0.0375
@<TRIPOS>BOND
     1    32    33    2
     2    32    31    1
     3    31    30    1
     4    31    34    1
     5    34    35    1
     6    37    35   ar
     7    37    39   ar
     8    35    36   ar
     9    48    47   ar
    10    39    40   ar
    11    49    47   ar
    12    42    43    1
    13    47    46    1
    14    36    38   ar
    15    40    38   ar
    16    40    41    1
    17    46    43    1
    18    43    44    1
    19    45    44    2
    20    44    50   am
    21    50    51    1
    22    28    27    1
    23    25    26    2
    24    25    24    1
    25    51    54    1
    26    51    52    1
    27    57    55    1
    28    55    54    1
    29    55    56    1
    30    65    63    1
    31    24    27    1
    32    24    23    1
    33    27    29    1
    34    52    53    2
    35    52    58   am
    36    63    62    1
    37    58    59    1
    38    62    59    1
    39    62    64    1
    40    59    60    1
    41    80    79    2
    42    79    78    1
    43    82    81    1
    44    61    60    2
    45    60    66   am
    46     8     6   am
    47    78    81    1
    48    78    77    1
    49     6     5    1
    50     6     7    2
    51    81    83    1
    52     5     2    1
    53    66    67    1
    54     1     2    1
    55     2     3    1
    56    67    68    1
    57    67    70    1
    58    68    69    2
    59    70    71    1
    60     3     4    2
    61     3     9   am
    62     9    10    1
    63    71    72    1
    64    72    73    1
    65    75    74    1
    66    22    20    1
    67    12    11    2
    68    74    73    2
    69    74    76    1
    70    10    11    1
    71    10    13    1
    72    11    16   am
    73    15    13    1
    74    13    14    1
    75    16    17    1
    76    20    17    1
    77    20    21    1
    78    17    18    1
    79    18    19    2
