@<TRIPOS>MOLECULE
tmp/4f7bE01.pdb
 127 120 0 0 0
SMALL
GASTEIGER

@<TRIPOS>ATOM
      1  N        -55.7050  -65.9280   13.1570 N.3    24  TYR24      -0.1241
      2  CA       -55.5210  -64.5390   12.7580 C.3    24  TYR24       0.1605
      3  C        -54.4680  -63.8770   13.6380 C.2    24  TYR24       0.2264
      4  O        -54.3440  -64.2600   14.8040 O.2    24  TYR24      -0.2867
      5  CB       -56.8570  -63.7720   12.9200 C.3    24  TYR24       0.0534
      6  CG       -57.8780  -64.0620   11.8400 C.ar   24  TYR24      -0.0201
      7  CD1      -58.5820  -65.2570   11.8210 C.ar   24  TYR24      -0.0009
      8  CD2      -58.1710  -63.1240   10.8610 C.ar   24  TYR24      -0.0009
      9  CE1      -59.5250  -65.5270   10.8340 C.ar   24  TYR24       0.0417
     10  CE2      -59.1350  -63.3740    9.8830 C.ar   24  TYR24       0.0417
     11  CZ       -59.8040  -64.5820    9.8690 C.ar   24  TYR24       0.1957
     12  OH       -60.7180  -64.8640    8.8820 O.3    24  TYR24      -0.2866
     13  N        -53.6720  -59.8760   14.7180 N.3    26  GLN26      -0.1245
     14  CA       -54.0850  -58.4620   14.6390 C.3    26  GLN26       0.1566
     15  C        -52.9280  -57.6160   15.1340 C.2    26  GLN26       0.2260
     16  O        -52.4860  -57.8090   16.2580 O.2    26  GLN26      -0.2867
     17  CB       -55.3660  -58.1440   15.4710 C.3    26  GLN26       0.0367
     18  CG       -56.6860  -58.7180   14.9280 C.3    26  GLN26       0.0905
     19  CD       -57.5470  -59.2470   16.0470 C.2    26  GLN26       0.2608
     20  OE1      -57.3460  -60.3680   16.5580 O.2    26  GLN26      -0.2717
     21  NE2      -58.5090  -58.4450   16.4730 N.am   26  GLN26      -0.0878
     22  N        -51.1130  -54.1550   16.4470 N.3    28  TYR28      -0.1241
     23  CA       -51.4010  -52.9030   17.1370 C.3    28  TYR28       0.1605
     24  C        -50.0700  -52.1780   17.4010 C.2    28  TYR28       0.2264
     25  O        -49.1790  -52.7700   18.0080 O.2    28  TYR28      -0.2867
     26  CB       -52.1660  -53.1650   18.4210 C.3    28  TYR28       0.0534
     27  CG       -53.4710  -53.9110   18.2490 C.ar   28  TYR28      -0.0201
     28  CD1      -53.5230  -55.3040   18.3470 C.ar   28  TYR28      -0.0009
     29  CD2      -54.6680  -53.2240   18.0860 C.ar   28  TYR28      -0.0009
     30  CE1      -54.7300  -55.9950   18.2220 C.ar   28  TYR28       0.0417
     31  CE2      -55.8760  -53.8950   17.9840 C.ar   28  TYR28       0.0417
     32  CZ       -55.9090  -55.2830   18.0480 C.ar   28  TYR28       0.1957
     33  OH       -57.1270  -55.9220   17.9710 O.3    28  TYR28      -0.2866
     34  N        -52.1910  -45.4790   20.5860 N.3    48  GLU48      -0.1245
     35  CA       -52.2800  -46.8530   20.0910 C.3    48  GLU48       0.1567
     36  C        -53.0320  -46.9130   18.7290 C.2    48  GLU48       0.2260
     37  O        -54.2080  -46.5370   18.6370 O.2    48  GLU48      -0.2867
     38  CB       -52.9830  -47.7300   21.1630 C.3    48  GLU48       0.0388
     39  CG       -53.1250  -49.2270   20.8720 C.3    48  GLU48       0.1160
     40  CD       -54.2750  -49.8950   21.6200 C.2    48  GLU48       0.3649
     41  OE1      -54.0170  -50.8760   22.3610 O.co2  48  GLU48      -0.2457
     42  OE2      -55.4270  -49.4100   21.4970 O.co2  48  GLU48      -0.2457
     43  N        -54.4290  -49.3400   15.4920 N.3    50  GLY50      -0.1210
     44  CA       -54.7360  -50.7230   15.0920 C.3    50  GLY50       0.1940
     45  C        -56.1920  -51.0950   15.3180 C.2    50  GLY50       0.2453
     46  O        -56.9610  -50.2490   15.7700 O.2    50  GLY50      -0.2732
     47  N        -56.6470  -52.3340   15.0310 N.am   51  PRO51      -0.2728
     48  CA       -55.9320  -53.4910   14.4660 C.3    51  PRO51       0.1401
     49  C        -55.7070  -53.4790   12.9580 C.2    51  PRO51       0.2269
     50  O        -56.4800  -52.9350   12.1490 O.2    51  PRO51      -0.2865
     51  CB       -56.8800  -54.6650   14.7790 C.3    51  PRO51       0.0296
     52  CG       -58.2230  -54.0630   14.6650 C.3    51  PRO51       0.0237
     53  CD       -58.0710  -52.6660   15.2540 C.3    51  PRO51       0.0939
     54  N        -52.0560  -48.5510   29.2560 N.3   320  HIS320     -0.1241
     55  CA       -53.2920  -48.7810   30.0060 C.3   320  HIS320      0.1621
     56  C        -53.5600  -50.3010   30.1070 C.2   320  HIS320      0.2264
     57  O        -54.4510  -50.8010   29.4000 O.2   320  HIS320     -0.2867
     58  CB       -54.4410  -48.1010   29.2520 C.3   320  HIS320      0.0745
     59  CG       -54.3070  -46.6170   29.2150 C.ar  320  HIS320      0.0817
     60  ND1      -54.7450  -45.8170   30.2680 N.ar  320  HIS320     -0.2268
     61  CD2      -53.7600  -45.8270   28.2660 C.ar  320  HIS320      0.1154
     62  CE1      -54.4450  -44.5720   29.9240 C.ar  320  HIS320      0.1986
     63  NE2      -53.8380  -44.5260   28.7310 N.ar  320  HIS320     -0.2212
     64  N        -58.6400  -58.5550   30.6330 N.3   324  GLU324     -0.1231
     65  CA       -59.5000  -58.8900   29.5170 C.3   324  GLU324      0.1699
     66  C        -58.9070  -58.4930   28.1320 C.2   324  GLU324      0.2592
     67  O        -59.3180  -59.0710   27.1240 O.2   324  GLU324     -0.2718
     68  CB       -60.8740  -58.2590   29.7660 C.3   324  GLU324      0.0402
     69  CG       -61.9680  -58.5370   28.7300 C.3   324  GLU324      0.1161
     70  CD       -62.2730  -59.9630   28.2970 C.2   324  GLU324      0.3649
     71  OE1      -62.2370  -60.8830   29.1530 O.co2 324  GLU324     -0.2457
     72  OE2      -62.6030  -60.1410   27.1000 O.co2 324  GLU324     -0.2457
     73  N        -57.9600  -57.5270   28.0700 N.am  325  ASP325     -0.1974
     74  CA       -57.3930  -57.1110   26.7870 C.3   325  ASP325      0.1709
     75  C        -55.9280  -57.4670   26.5670 C.2   325  ASP325      0.2293
     76  O        -55.4100  -57.3660   25.4530 O.2   325  ASP325     -0.2864
     77  CB       -57.5770  -55.6150   26.5750 C.3   325  ASP325      0.1436
     78  CG       -59.0040  -55.1860   26.3630 C.2   325  ASP325      0.3671
     79  OD1      -59.8920  -56.0780   26.2590 O.co2 325  ASP325     -0.2456
     80  OD2      -59.2460  -53.9620   26.2920 O.co2 325  ASP325     -0.2456
     81  N        -58.5340  -69.2170   21.6560 N.3   342  ALA342     -0.1231
     82  CA       -57.2780  -68.7730   22.2230 C.3   342  ALA342      0.1694
     83  C        -56.9360  -67.3710   21.7870 C.2   342  ALA342      0.2591
     84  O        -57.4920  -66.8620   20.8090 O.2   342  ALA342     -0.2718
     85  CB       -56.1720  -69.7130   21.8200 C.3   342  ALA342      0.0304
     86  N        -56.0250  -66.7330   22.5480 N.am  343  ALA343     -0.1980
     87  CA       -55.5210  -65.3860   22.3250 C.3   343  ALA343      0.1597
     88  C        -54.0860  -65.3410   22.8960 C.2   343  ALA343      0.2287
     89  O        -53.9100  -65.4310   24.1200 O.2   343  ALA343     -0.2864
     90  CB       -56.4310  -64.3680   23.0020 C.3   343  ALA343      0.0319
     91  N        -50.9630  -63.0850   23.1250 N.3   345  ARG345     -0.1245
     92  CA       -50.7080  -61.6530   23.0850 C.3   345  ARG345      0.1563
     93  C        -49.4110  -61.3060   23.7710 C.2   345  ARG345      0.2260
     94  O        -49.2330  -61.6190   24.9540 O.2   345  ARG345     -0.2867
     95  CB       -51.8780  -60.8700   23.7060 C.3   345  ARG345      0.0307
     96  CG       -53.2280  -61.1000   23.0180 C.3   345  ARG345      0.0489
     97  CD       -54.2370  -60.0040   23.3540 C.3   345  ARG345      0.2205
     98  NE       -55.0330  -60.3140   24.5380 N.pl3 345  ARG345     -0.0865
     99  CZ       -56.3240  -60.6000   24.5120 C.cat 345  ARG345      0.5346
    100  NH1      -56.9950  -60.5660   23.3690 N.pl3 345  ARG345      0.1354
    101  NH2      -56.9660  -60.8860   25.6300 N.pl3 345  ARG345      0.1354
    102  N        -47.6300  -54.4520   19.6350 N.3   373  TYR373     -0.1241
    103  CA       -48.0990  -55.6860   20.2240 C.3   373  TYR373      0.1605
    104  C        -49.0790  -56.3690   19.2780 C.2   373  TYR373      0.2264
    105  O        -49.7160  -55.6890   18.4570 O.2   373  TYR373     -0.2867
    106  CB       -48.6970  -55.4790   21.6070 C.3   373  TYR373      0.0534
    107  CG       -50.1740  -55.1440   21.6400 C.ar  373  TYR373     -0.0201
    108  CD1      -50.6060  -53.8280   21.8090 C.ar  373  TYR373     -0.0009
    109  CD2      -51.1440  -56.1530   21.6110 C.ar  373  TYR373     -0.0009
    110  CE1      -51.9630  -53.5150   21.8960 C.ar  373  TYR373      0.0417
    111  CE2      -52.5060  -55.8480   21.6750 C.ar  373  TYR373      0.0417
    112  CZ       -52.9100  -54.5260   21.8160 C.ar  373  TYR373      0.1957
    113  OH       -54.2470  -54.2100   21.9200 O.3   373  TYR373     -0.2866
    114  N        -52.1830  -59.8040   18.6530 N.3   375  ASN375     -0.1240
    115  CA       -53.1380  -60.7590   19.1420 C.3   375  ASN375      0.1653
    116  C        -53.3220  -61.8760   18.1030 C.2   375  ASN375      0.2266
    117  O        -54.1710  -61.7650   17.1970 O.2   375  ASN375     -0.2867
    118  CB       -54.4610  -60.1130   19.5380 C.3   375  ASN375      0.1155
    119  CG       -55.5020  -61.1180   20.0130 C.2   375  ASN375      0.2627
    120  OD1      -55.1720  -62.2980   20.2010 O.2   375  ASN375     -0.2716
    121  ND2      -56.7910  -60.7560   20.2380 N.am  375  ASN375     -0.0877
    122  N        -54.9170  -65.0970   17.4270 N.3   377  SER377     -0.1217
    123  CA       -56.1280  -65.7320   17.9580 C.3   377  SER377      0.1889
    124  C        -56.7640  -66.8370   17.0870 C.2   377  SER377      0.2288
    125  O        -56.4440  -66.9510   15.9080 O.2   377  SER377     -0.2866
    126  CB       -57.1730  -64.6550   18.2470 C.3   377  SER377      0.2089
    127  OG       -57.5660  -63.9970   17.0570 O.3   377  SER377     -0.2183
@<TRIPOS>BOND
     1    12    11    1
     2    11    10   ar
     3    11     9   ar
     4    10     8   ar
     5     9     7   ar
     6     8     6   ar
     7     7     6   ar
     8     6     5    1
     9    50    49    2
    10     2     5    1
    11     2     1    1
    12     2     3    1
    13    49    48    1
    14     3     4    2
    15    48    51    1
    16    48    47    1
    17    14    13    1
    18    14    15    1
    19    14    17    1
    20    52    51    1
    21    52    53    1
    22    18    17    1
    23    18    19    1
    24    47    53    1
    25    47    45   am
    26    44    45    1
    27    44    43    1
    28    15    16    2
    29    45    46    2
    30   125   124    2
    31    19    21   am
    32    19    20    2
    33    22    23    1
    34   127   126    1
    35   124   123    1
    36    23    24    1
    37    23    26    1
    38   117   116    2
    39    24    25    2
    40   122   123    1
    41   123   126    1
    42    33    32    1
    43    31    32   ar
    44    31    29   ar
    45    32    30   ar
    46    29    27   ar
    47   116   115    1
    48    30    28   ar
    49    27    28   ar
    50    27    26    1
    51   105   104    2
    52    37    36    2
    53   114   115    1
    54    36    35    1
    55   115   118    1
    56   104   103    1
    57   118   119    1
    58   102   103    1
    59   119   120    2
    60   119   121   am
    61    35    34    1
    62    35    38    1
    63   103   106    1
    64    84    83    2
    65    39    38    1
    66    39    40    1
    67    42    40   ar
    68   106   107    1
    69   109   107   ar
    70   109   111   ar
    71    40    41   ar
    72   107   108   ar
    73    81    82    1
    74   111   112   ar
    75    83    82    1
    76    83    86   am
    77   108   110   ar
    78   112   110   ar
    79   112   113    1
    80    85    82    1
    81    87    86    1
    82    87    88    1
    83    87    90    1
    84    88    89    2
    85    96    97    1
    86    96    95    1
    87    92    91    1
    88    92    95    1
    89    92    93    1
    90    97    98    1
    91   100    99    1
    92    93    94    2
    93    99    98    2
    94    99   101    1
    95    76    75    2
    96    79    78   ar
    97    80    78   ar
    98    78    77    1
    99    75    74    1
   100    77    74    1
   101    74    73    1
   102    72    70   ar
   103    67    66    2
   104    73    66   am
   105    66    65    1
   106    61    63   ar
   107    61    59   ar
   108    70    69    1
   109    70    71   ar
   110    69    68    1
   111    63    62   ar
   112    59    58    1
   113    59    60   ar
   114    58    55    1
   115    54    55    1
   116    57    56    2
   117    65    68    1
   118    65    64    1
   119    62    60   ar
   120    55    56    1
