@<TRIPOS>MOLECULE
tmp/4f7bC01.pdb
 117 110 0 0 0
SMALL
GASTEIGER

@<TRIPOS>ATOM
      1  N         74.0720 -109.1950  -85.4580 N.3    14  TYR14      -0.1241
      2  CA        73.1380 -110.1920  -84.9410 C.3    14  TYR14       0.1605
      3  C         72.9360 -110.0230  -83.4450 C.2    14  TYR14       0.2264
      4  O         73.8640 -109.5810  -82.7690 O.2    14  TYR14      -0.2867
      5  CB        73.7000 -111.5940  -85.1970 C.3    14  TYR14       0.0534
      6  CG        73.5930 -112.0660  -86.6310 C.ar   14  TYR14      -0.0201
      7  CD1       74.4470 -111.5710  -87.6180 C.ar   14  TYR14      -0.0009
      8  CD2       72.6830 -113.0570  -86.9910 C.ar   14  TYR14      -0.0009
      9  CE1       74.3670 -112.0190  -88.9340 C.ar   14  TYR14       0.0417
     10  CE2       72.6180 -113.5360  -88.2970 C.ar   14  TYR14       0.0417
     11  CZ        73.4650 -113.0170  -89.2630 C.ar   14  TYR14       0.1957
     12  OH        73.3720 -113.4750  -90.5490 O.3    14  TYR14      -0.2866
     13  N         71.6360 -112.4830  -80.1760 N.3    16  GLN16      -0.1245
     14  CA        71.2540 -113.8200  -79.6990 C.3    16  GLN16       0.1566
     15  C         70.5810 -113.7240  -78.3240 C.2    16  GLN16       0.2260
     16  O         71.1600 -113.1910  -77.3760 O.2    16  GLN16      -0.2867
     17  CB        72.4550 -114.7680  -79.6140 C.3    16  GLN16       0.0367
     18  CG        72.6950 -115.5040  -80.8940 C.3    16  GLN16       0.0905
     19  CD        74.1110 -115.9890  -81.0310 C.2    16  GLN16       0.2608
     20  OE1       75.0880 -115.1960  -81.0860 O.2    16  GLN16      -0.2717
     21  NE2       74.2380 -117.3140  -81.1470 N.am   16  GLN16      -0.0878
     22  N         69.3940 -115.5010  -74.8840 N.3    18  TYR18      -0.1241
     23  CA        69.5660 -116.6850  -74.0310 C.3    18  TYR18       0.1605
     24  C         68.7650 -116.3950  -72.7800 C.2    18  TYR18       0.2264
     25  O         68.9190 -115.3220  -72.1730 O.2    18  TYR18      -0.2867
     26  CB        71.0250 -116.9370  -73.6330 C.3    18  TYR18       0.0534
     27  CG        72.0120 -116.9180  -74.7700 C.ar   18  TYR18      -0.0201
     28  CD1       72.5290 -115.7170  -75.2500 C.ar   18  TYR18      -0.0009
     29  CD2       72.4910 -118.1030  -75.3200 C.ar   18  TYR18      -0.0009
     30  CE1       73.4560 -115.6910  -76.2850 C.ar   18  TYR18       0.0417
     31  CE2       73.4650 -118.0910  -76.3180 C.ar   18  TYR18       0.0417
     32  CZ        73.9180 -116.8790  -76.8190 C.ar   18  TYR18       0.1957
     33  OH        74.8270 -116.8430  -77.8360 O.3    18  TYR18      -0.2866
     34  N         69.9980 -122.6220  -68.1980 N.3    38  GLU38      -0.1245
     35  CA        70.3500 -121.7180  -69.3000 C.3    38  GLU38       0.1567
     36  C         69.9430 -122.3280  -70.6660 C.2    38  GLU38       0.2260
     37  O         70.5700 -123.2980  -71.1460 O.2    38  GLU38      -0.2867
     38  CB        71.8510 -121.3960  -69.2520 C.3    38  GLU38       0.0388
     39  CG        72.2330 -120.1990  -70.0990 C.3    38  GLU38       0.1160
     40  CD        73.5750 -120.2960  -70.8000 C.2    38  GLU38       0.3649
     41  OE1       73.9360 -119.3250  -71.5030 O.co2  38  GLU38      -0.2457
     42  OE2       74.2620 -121.3360  -70.6600 O.co2  38  GLU38      -0.2457
     43  N         69.1520 -121.4970  -74.7230 N.3    40  GLY40      -0.1210
     44  CA        69.6290 -120.6060  -75.7780 C.3    40  GLY40       0.1940
     45  C         70.7060 -121.1990  -76.6850 C.2    40  GLY40       0.2453
     46  O         71.2450 -122.2810  -76.4000 O.2    40  GLY40      -0.2732
     47  N         70.9980 -120.5600  -77.8490 N.am   41  PRO41      -0.2728
     48  CA        70.5090 -119.2550  -78.3400 C.3    41  PRO41       0.1401
     49  C         69.2310 -119.2340  -79.1770 C.2    41  PRO41       0.2269
     50  O         68.8150 -120.2440  -79.7330 O.2    41  PRO41      -0.2865
     51  CB        71.6880 -118.7310  -79.1860 C.3    41  PRO41       0.0296
     52  CG        72.6970 -119.8700  -79.2970 C.3    41  PRO41       0.0237
     53  CD        72.0090 -121.1040  -78.7630 C.3    41  PRO41       0.0939
     54  N         85.7140 -115.5450  -71.3280 N.3   310  GLU310     -0.1231
     55  CA        85.5380 -115.9670  -72.7280 C.3   310  GLU310      0.1699
     56  C         84.0780 -115.9810  -73.2850 C.2   310  GLU310      0.2592
     57  O         83.8950 -115.8310  -74.4950 O.2   310  GLU310     -0.2718
     58  CB        86.2680 -117.3160  -72.9320 C.3   310  GLU310      0.0402
     59  CG        86.3480 -117.8760  -74.3460 C.3   310  GLU310      0.1161
     60  CD        86.8700 -117.0040  -75.4780 C.2   310  GLU310      0.3649
     61  OE1       87.7560 -116.1450  -75.2470 O.co2 310  GLU310     -0.2457
     62  OE2       86.4260 -117.2370  -76.6260 O.co2 310  GLU310     -0.2457
     63  N         83.0610 -116.1370  -72.4220 N.am  311  ASP311     -0.1974
     64  CA        81.6580 -116.1920  -72.8440 C.3   311  ASP311      0.1709
     65  C         80.8150 -115.0190  -72.3490 C.2   311  ASP311      0.2293
     66  O         79.7850 -114.7140  -72.9500 O.2   311  ASP311     -0.2864
     67  CB        80.9950 -117.5070  -72.3860 C.3   311  ASP311      0.1436
     68  CG        81.6150 -118.7840  -72.9300 C.2   311  ASP311      0.3671
     69  OD1       82.0850 -118.7740  -74.0960 O.co2 311  ASP311     -0.2456
     70  OD2       81.5760 -119.8090  -72.2190 O.co2 311  ASP311     -0.2456
     71  N         83.1040 -107.7590  -82.8790 N.3   328  ALA328     -0.1231
     72  CA        82.6390 -107.2900  -81.5870 C.3   328  ALA328      0.1694
     73  C         81.5990 -108.2320  -80.9770 C.2   328  ALA328      0.2591
     74  O         81.0030 -109.0610  -81.6830 O.2   328  ALA328     -0.2718
     75  CB        82.0560 -105.9020  -81.7320 C.3   328  ALA328      0.0304
     76  N         81.4010 -108.1090  -79.6490 N.am  329  ALA329     -0.1980
     77  CA        80.4290 -108.8730  -78.8650 C.3   329  ALA329      0.1597
     78  C         80.0300 -108.0250  -77.6660 C.2   329  ALA329      0.2287
     79  O         80.8590 -107.7890  -76.7780 O.2   329  ALA329     -0.2864
     80  CB        81.0250 -110.1930  -78.4030 C.3   329  ALA329      0.0319
     81  N         77.5960 -107.9360  -74.6760 N.3   331  ARG331     -0.1245
     82  CA        76.8790 -108.9080  -73.8640 C.3   331  ARG331      0.1563
     83  C         76.5290 -108.3100  -72.5050 C.2   331  ARG331      0.2260
     84  O         77.4050 -107.7950  -71.7940 O.2   331  ARG331     -0.2867
     85  CB        77.7020 -110.2010  -73.7080 C.3   331  ARG331      0.0307
     86  CG        78.0740 -110.8720  -75.0300 C.3   331  ARG331      0.0489
     87  CD        78.4950 -112.3230  -74.8630 C.3   331  ARG331      0.2205
     88  NE        79.9320 -112.4680  -74.6530 N.pl3 331  ARG331     -0.0865
     89  CZ        80.7680 -113.0060  -75.5390 C.cat 331  ARG331      0.5346
     90  NH1       80.3090 -113.4790  -76.7010 N.pl3 331  ARG331      0.1354
     91  NH2       82.0640 -113.1070  -75.2600 N.pl3 331  ARG331      0.1354
     92  N         69.9340 -112.9080  -70.9190 N.3   359  TYR359     -0.1241
     93  CA        71.1040 -112.1670  -71.4050 C.3   359  TYR359      0.1605
     94  C         71.2110 -112.2550  -72.9450 C.2   359  TYR359      0.2264
     95  O         70.6610 -113.1900  -73.5380 O.2   359  TYR359     -0.2867
     96  CB        72.4090 -112.6190  -70.6980 C.3   359  TYR359      0.0534
     97  CG        73.2420 -113.6820  -71.3940 C.ar  359  TYR359     -0.0201
     98  CD1       73.1080 -115.0270  -71.0620 C.ar  359  TYR359     -0.0009
     99  CD2       74.2300 -113.3310  -72.3170 C.ar  359  TYR359     -0.0009
    100  CE1       73.8970 -116.0050  -71.6680 C.ar  359  TYR359      0.0417
    101  CE2       75.0410 -114.2970  -72.9140 C.ar  359  TYR359      0.0417
    102  CZ        74.8580 -115.6370  -72.6000 C.ar  359  TYR359      0.1957
    103  OH        75.6320 -116.6070  -73.2020 O.3   359  TYR359     -0.2866
    104  N         73.7500 -111.5550  -76.7870 N.3   361  ASN361     -0.1240
    105  CA        75.0100 -111.3670  -77.4590 C.3   361  ASN361      0.1653
    106  C         74.7780 -110.6380  -78.7920 C.2   361  ASN361      0.2266
    107  O         74.5460 -111.2920  -79.8170 O.2   361  ASN361     -0.2867
    108  CB        75.8270 -112.6740  -77.6050 C.3   361  ASN361      0.1155
    109  CG        77.1480 -112.4730  -78.3550 C.2   361  ASN361      0.2627
    110  OD1       77.5520 -111.3350  -78.6410 O.2   361  ASN361     -0.2716
    111  ND2       77.9020 -113.5300  -78.7260 N.am  361  ASN361     -0.0877
    112  N         76.4090 -109.1150  -81.6930 N.3   363  SER363     -0.1217
    113  CA        77.7230 -109.3220  -82.3080 C.3   363  SER363      0.1889
    114  C         77.8520 -108.8760  -83.7810 C.2   363  SER363      0.2288
    115  O         76.8460 -108.6510  -84.4560 O.2   363  SER363     -0.2866
    116  CB        78.1110 -110.7940  -82.1730 C.3   363  SER363      0.2089
    117  OG        77.1970 -111.6120  -82.8810 O.3   363  SER363     -0.2183
@<TRIPOS>BOND
     1    12    11    1
     2    11     9   ar
     3    11    10   ar
     4     9     7   ar
     5    10     8   ar
     6     7     6   ar
     7     8     6   ar
     8     6     5    1
     9     1     2    1
    10     5     2    1
    11     2     3    1
    12   115   114    2
    13   114   113    1
    14     3     4    2
    15   117   116    1
    16    71    72    1
    17   113   116    1
    18   113   112    1
    19    75    72    1
    20    74    73    2
    21    72    73    1
    22    21    19   am
    23    20    19    2
    24    19    18    1
    25    73    76   am
    26    18    17    1
    27    13    14    1
    28   107   106    2
    29    50    49    2
    30    14    17    1
    31    14    15    1
    32    76    77    1
    33    52    51    1
    34    52    53    1
    35    51    48    1
    36    49    48    1
    37    77    80    1
    38    77    78    1
    39   106   105    1
    40    53    47    1
    41   111   109   am
    42   110   109    2
    43   109   108    1
    44    48    47    1
    45    15    16    2
    46    47    45   am
    47    33    32    1
    48    78    79    2
    49   108   105    1
    50   105   104    1
    51    32    31   ar
    52    32    30   ar
    53    90    89    1
    54    45    46    2
    55    45    44    1
    56    62    60   ar
    57    31    29   ar
    58    30    28   ar
    59    44    43    1
    60    89    91    1
    61    89    88    2
    62    60    61   ar
    63    60    59    1
    64    29    27   ar
    65    28    27   ar
    66    86    87    1
    67    86    85    1
    68    22    23    1
    69    87    88    1
    70    27    26    1
    71    81    82    1
    72    57    56    2
    73    59    58    1
    74    69    68   ar
    75    23    26    1
    76    23    24    1
    77    82    85    1
    78    82    83    1
    79    95    94    2
    80    56    55    1
    81    56    63   am
    82   103   102    1
    83    66    65    2
    84    94    93    1
    85    58    55    1
    86    68    67    1
    87    68    70   ar
    88   101   102   ar
    89   101    99   ar
    90    64    63    1
    91    64    67    1
    92    64    65    1
    93    24    25    2
    94    55    54    1
    95   102   100   ar
    96    83    84    2
    97    99    97   ar
    98   100    98   ar
    99    41    40   ar
   100    93    92    1
   101    93    96    1
   102    97    98   ar
   103    97    96    1
   104    37    36    2
   105    40    42   ar
   106    40    39    1
   107    36    35    1
   108    39    38    1
   109    35    38    1
   110    35    34    1
