@<TRIPOS>MOLECULE
tmp/4f7bA08.pdb
 134 129 0 0 0
SMALL
GASTEIGER

@<TRIPOS>ATOM
      1  N        -18.6620  -24.8960  -41.0070 N.3   217  GLY217     -0.1225
      2  CA       -18.8960  -23.4690  -41.1290 C.3   217  GLY217      0.1811
      3  C        -19.8180  -23.0520  -42.2540 C.2   217  GLY217      0.2280
      4  O        -20.1180  -21.8520  -42.3690 O.2   217  GLY217     -0.2866
      5  N        -25.2050  -24.2150  -39.5960 N.3   220  PHE220     -0.1241
      6  CA       -25.2620  -24.2430  -38.1240 C.3   220  PHE220      0.1605
      7  C        -26.5930  -24.8120  -37.6520 C.2   220  PHE220      0.2264
      8  O        -27.5800  -24.7590  -38.4010 O.2   220  PHE220     -0.2867
      9  CB       -25.0690  -22.8270  -37.5540 C.3   220  PHE220      0.0534
     10  CG       -23.7150  -22.2200  -37.7990 C.ar  220  PHE220     -0.0203
     11  CD1      -22.6520  -22.5200  -36.9760 C.ar  220  PHE220     -0.0042
     12  CD2      -23.4980  -21.3600  -38.8740 C.ar  220  PHE220     -0.0042
     13  CE1      -21.3920  -21.9770  -37.2210 C.ar  220  PHE220     -0.0003
     14  CE2      -22.2310  -20.8130  -39.1130 C.ar  220  PHE220     -0.0003
     15  CZ       -21.1890  -21.1240  -38.2820 C.ar  220  PHE220     -0.0000
     16  N        -16.5600  -23.7410  -35.2530 N.3   232  VAL232     -0.1245
     17  CA       -16.3090  -24.0820  -36.6640 C.3   232  VAL232      0.1561
     18  C        -14.9500  -24.7950  -36.7940 C.2   232  VAL232      0.2260
     19  O        -13.9890  -24.3950  -36.1370 O.2   232  VAL232     -0.2867
     20  CB       -16.3790  -22.8270  -37.5830 C.3   232  VAL232      0.0252
     21  CG1      -15.9070  -23.1290  -38.9870 C.3   232  VAL232      0.0019
     22  CG2      -17.7850  -22.2430  -37.6170 C.3   232  VAL232      0.0019
     23  N        -12.4450  -25.0700  -39.5370 N.3   234  PRO234     -0.2116
     24  CA       -12.0120  -24.7420  -40.8850 C.3   234  PRO234      0.1372
     25  C        -10.7360  -25.5570  -41.0820 C.2   234  PRO234      0.2244
     26  O         -9.6740  -25.2090  -40.5590 O.2   234  PRO234     -0.2868
     27  CB       -11.8400  -23.2070  -40.8460 C.3   234  PRO234      0.0268
     28  CG       -11.6210  -22.8640  -39.4270 C.3   234  PRO234      0.0207
     29  CD       -11.9130  -24.0890  -38.5710 C.3   234  PRO234      0.0892
     30  N         -7.3930  -23.9080  -41.8210 N.3   237  PHE237     -0.1241
     31  CA        -6.8200  -23.1200  -40.7360 C.3   237  PHE237      0.1605
     32  C         -6.1150  -24.0240  -39.7330 C.2   237  PHE237      0.2264
     33  O         -5.3990  -23.5340  -38.8610 O.2   237  PHE237     -0.2867
     34  CB        -7.9240  -22.3100  -40.0620 C.3   237  PHE237      0.0534
     35  CG        -7.4680  -21.0410  -39.3900 C.ar  237  PHE237     -0.0203
     36  CD1       -7.2990  -19.8740  -40.1180 C.ar  237  PHE237     -0.0042
     37  CD2       -7.3010  -20.9880  -38.0100 C.ar  237  PHE237     -0.0042
     38  CE1       -6.9080  -18.6940  -39.4910 C.ar  237  PHE237     -0.0003
     39  CE2       -6.9100  -19.7990  -37.3840 C.ar  237  PHE237     -0.0003
     40  CZ        -6.7080  -18.6640  -38.1310 C.ar  237  PHE237     -0.0000
     41  N        -12.2850  -23.3420  -34.3110 N.3   241  VAL241     -0.1245
     42  CA       -12.4170  -21.9220  -34.0260 C.3   241  VAL241      0.1561
     43  C        -13.8530  -21.6880  -33.5790 C.2   241  VAL241      0.2260
     44  O        -14.7430  -22.4070  -34.0180 O.2   241  VAL241     -0.2867
     45  CB       -12.0800  -21.1910  -35.3580 C.3   241  VAL241      0.0252
     46  CG1      -13.0160  -20.0430  -35.6770 C.3   241  VAL241      0.0019
     47  CG2      -10.6290  -20.7450  -35.4030 C.3   241  VAL241      0.0019
     48  N        -17.0140  -18.6090  -32.9440 N.3   243  ILE243     -0.1245
     49  CA       -17.4680  -17.2780  -33.3310 C.3   243  ILE243      0.1561
     50  C        -18.4830  -16.8020  -32.3090 C.2   243  ILE243      0.2260
     51  O        -19.2310  -17.6300  -31.7680 O.2   243  ILE243     -0.2867
     52  CB       -17.9690  -17.1890  -34.7940 C.3   243  ILE243      0.0252
     53  CG1      -19.0470  -18.2390  -35.1010 C.3   243  ILE243      0.0019
     54  CG2      -16.7970  -17.3310  -35.7310 C.3   243  ILE243      0.0019
     55  CD1      -19.8840  -17.9460  -36.1910 C.3   243  ILE243      0.0001
     56  N        -15.5020  -13.5060  -35.6180 N.3   261  VAL261     -0.1245
     57  CA       -14.3580  -14.1780  -34.9910 C.3   261  VAL261      0.1561
     58  C        -13.8100  -13.1430  -33.9320 C.2   261  VAL261      0.2260
     59  O        -13.3500  -12.0360  -34.3220 O.2   261  VAL261     -0.2867
     60  CB       -13.2100  -14.6380  -35.9840 C.3   261  VAL261      0.0252
     61  CG1      -11.9410  -15.0730  -35.2470 C.3   261  VAL261      0.0019
     62  CG2      -13.6600  -15.7210  -36.9570 C.3   261  VAL261      0.0019
     63  N         -4.8260  -13.0340  -39.8320 N.3   303  PHE303     -0.1241
     64  CA        -5.9810  -12.4060  -40.4430 C.3   303  PHE303      0.1605
     65  C         -5.4080  -11.3070  -41.3410 C.2   303  PHE303      0.2264
     66  O         -4.2380  -10.9320  -41.1400 O.2   303  PHE303     -0.2867
     67  CB        -6.9320  -11.8640  -39.3550 C.3   303  PHE303      0.0534
     68  CG        -7.4790  -12.9460  -38.4560 C.ar  303  PHE303     -0.0203
     69  CD1       -7.9110  -14.1580  -38.9860 C.ar  303  PHE303     -0.0042
     70  CD2       -7.5990  -12.7400  -37.0910 C.ar  303  PHE303     -0.0042
     71  CE1       -8.3960  -15.1640  -38.1630 C.ar  303  PHE303     -0.0003
     72  CE2       -8.1200  -13.7350  -36.2660 C.ar  303  PHE303     -0.0003
     73  CZ        -8.5050  -14.9450  -36.8080 C.ar  303  PHE303     -0.0000
     74  N        -13.8220  -11.3640  -39.8350 N.3   329  THR329     -0.1203
     75  CA       -14.5610  -12.5210  -40.3360 C.3   329  THR329      0.1994
     76  C        -15.9100  -12.5080  -39.6130 C.2   329  THR329      0.2618
     77  O        -15.9520  -12.5630  -38.3780 O.2   329  THR329     -0.2717
     78  CB       -13.7600  -13.8360  -40.2180 C.3   329  THR329      0.1784
     79  OG1      -12.6440  -13.8220  -41.1230 O.3   329  THR329     -0.2211
     80  CG2      -14.6020  -15.0540  -40.4850 C.3   329  THR329      0.0376
     81  N        -16.9940  -12.3370  -40.3790 N.am  330  PHE330     -0.1961
     82  CA       -18.3440  -12.3250  -39.8440 C.3   330  PHE330      0.1771
     83  C        -19.2230  -13.3130  -40.5860 C.2   330  PHE330      0.2619
     84  O        -18.8890  -13.7710  -41.6790 O.2   330  PHE330     -0.2715
     85  CB       -18.9570  -10.9310  -39.9110 C.3   330  PHE330      0.0574
     86  CG       -19.4550  -10.5370  -41.2830 C.ar  330  PHE330     -0.0200
     87  CD1      -20.7120  -10.9330  -41.7280 C.ar  330  PHE330     -0.0042
     88  CD2      -18.6770   -9.7560  -42.1230 C.ar  330  PHE330     -0.0042
     89  CE1      -21.1670  -10.5830  -43.0000 C.ar  330  PHE330     -0.0003
     90  CE2      -19.1380   -9.3970  -43.3860 C.ar  330  PHE330     -0.0003
     91  CZ       -20.3800   -9.8120  -43.8170 C.ar  330  PHE330     -0.0000
     92  N        -20.3820  -13.6000  -40.0040 N.am  331  VAL331     -0.1977
     93  CA       -21.3680  -14.4870  -40.5850 C.3   331  VAL331      0.1596
     94  C        -22.7340  -14.1580  -40.0110 C.2   331  VAL331      0.2287
     95  O        -22.8900  -14.0970  -38.7950 O.2   331  VAL331     -0.2864
     96  CB       -20.9690  -15.9890  -40.5460 C.3   331  VAL331      0.0276
     97  CG1      -20.5330  -16.4380  -39.1610 C.3   331  VAL331      0.0022
     98  CG2      -22.0710  -16.8730  -41.0910 C.3   331  VAL331      0.0022
     99  N        -18.2920  -13.5300  -44.6720 N.3   344  ALA344     -0.1231
    100  CA       -16.9860  -13.1230  -45.1500 C.3   344  ALA344      0.1694
    101  C        -15.9360  -13.8010  -44.2600 C.2   344  ALA344      0.2592
    102  O        -15.8270  -13.4690  -43.0750 O.2   344  ALA344     -0.2718
    103  CB       -16.8550  -11.6060  -45.0770 C.3   344  ALA344      0.0304
    104  N        -15.2460  -14.8250  -44.8190 N.am  345  LYS345     -0.1966
    105  CA       -14.1860  -15.6020  -44.1830 C.3   345  LYS345      0.1728
    106  C        -12.9150  -15.0290  -44.7710 C.2   345  LYS345      0.2616
    107  O        -12.6840  -15.1200  -45.9820 O.2   345  LYS345     -0.2715
    108  CB       -14.3410  -17.0900  -44.5060 C.3   345  LYS345      0.0311
    109  CG       -13.3810  -18.0290  -43.7710 C.3   345  LYS345      0.0038
    110  CD       -13.2890  -19.3890  -44.5030 C.3   345  LYS345      0.0206
    111  CE       -12.0650  -20.2370  -44.2210 C.3   345  LYS345      0.1093
    112  NZ       -11.2670  -19.7760  -43.0400 N.3   345  LYS345     -0.1314
    113  N        -12.1340  -14.3420  -43.9290 N.am  346  ARG346     -0.1963
    114  CA       -10.9280  -13.6470  -44.3690 C.3   346  ARG346      0.1729
    115  C         -9.7500  -14.0260  -43.5180 C.2   346  ARG346      0.2616
    116  O         -9.8200  -13.8890  -42.2890 O.2   346  ARG346     -0.2715
    117  CB       -11.1510  -12.1170  -44.3490 C.3   346  ARG346      0.0348
    118  CG       -12.3040  -11.6360  -45.2490 C.3   346  ARG346      0.0492
    119  CD       -12.2200  -10.1520  -45.5790 C.3   346  ARG346      0.2205
    120  NE       -12.9410   -9.3260  -44.6250 N.pl3 346  ARG346     -0.0865
    121  CZ       -14.0790   -8.7050  -44.8980 C.cat 346  ARG346      0.5346
    122  NH1      -14.6150   -8.7950  -46.1040 N.pl3 346  ARG346      0.1354
    123  NH2      -14.6770   -7.9610  -43.9740 N.pl3 346  ARG346      0.1354
    124  N         -8.6810  -14.5280  -44.1690 N.am  347  PHE347     -0.1974
    125  CA        -7.4270  -14.9400  -43.5400 C.3   347  PHE347      0.1639
    126  C         -6.2760  -14.7010  -44.4820 C.2   347  PHE347      0.2290
    127  O         -6.4830  -14.6020  -45.7010 O.2   347  PHE347     -0.2864
    128  CB        -7.4610  -16.4000  -43.0770 C.3   347  PHE347      0.0560
    129  CG        -7.4470  -17.3990  -44.2040 C.ar  347  PHE347     -0.0200
    130  CD1       -8.6370  -17.9000  -44.7280 C.ar  347  PHE347     -0.0042
    131  CD2       -6.2390  -17.8680  -44.7290 C.ar  347  PHE347     -0.0042
    132  CE1       -8.6200  -18.8320  -45.7850 C.ar  347  PHE347     -0.0003
    133  CE2       -6.2180  -18.7850  -45.8000 C.ar  347  PHE347     -0.0003
    134  CZ        -7.4100  -19.2660  -46.3140 C.ar  347  PHE347     -0.0000
@<TRIPOS>BOND
     1   134   133   ar
     2   134   132   ar
     3   122   121    1
     4   107   106    2
     5   133   131   ar
     6   132   130   ar
     7   127   126    2
     8   119   118    1
     9   119   120    1
    10   118   117    1
    11   100   103    1
    12   100    99    1
    13   100   101    1
    14   121   120    2
    15   121   123    1
    16   104   101   am
    17   104   105    1
    18   106   105    1
    19   106   113   am
    20   131   129   ar
    21   130   129   ar
    22   108   105    1
    23   108   109    1
    24   110   111    1
    25   110   109    1
    26   126   125    1
    27   114   117    1
    28   114   113    1
    29   114   115    1
    30   101   102    2
    31   111   112    1
    32   129   128    1
    33   124   125    1
    34   124   115   am
    35    91    90   ar
    36    91    89   ar
    37   125   128    1
    38   115   116    2
    39    90    88   ar
    40    89    87   ar
    41     4     3    2
    42     3     2    1
    43    88    86   ar
    44    30    31    1
    45    87    86   ar
    46    84    83    2
    47    65    66    2
    48    65    64    1
    49    86    85    1
    50     2     1    1
    51    79    78    1
    52    98    96    1
    53    25    24    1
    54    25    26    2
    55    24    27    1
    56    24    23    1
    57    27    28    1
    58    31    34    1
    59    31    32    1
    60    83    92   am
    61    83    82    1
    62    93    96    1
    63    93    94    1
    64    93    92    1
    65    96    97    1
    66    80    78    1
    67    64    63    1
    68    64    67    1
    69    81    82    1
    70    81    76   am
    71    75    78    1
    72    75    74    1
    73    75    76    1
    74    36    38   ar
    75    36    35   ar
    76    34    35    1
    77    94    95    2
    78    85    82    1
    79    32    33    2
    80    76    77    2
    81     5     6    1
    82    23    29    1
    83    38    40   ar
    84    28    29    1
    85    35    37   ar
    86    67    68    1
    87    14    12   ar
    88    14    15   ar
    89    21    20    1
    90    69    68   ar
    91    69    71   ar
    92    12    10   ar
    93    68    70   ar
    94     8     7    2
    95    15    13   ar
    96    71    73   ar
    97    40    39   ar
    98     6     7    1
    99     6     9    1
   100    37    39   ar
   101    10     9    1
   102    10    11   ar
   103    22    20    1
   104    20    17    1
   105    13    11   ar
   106    70    72   ar
   107    62    60    1
   108    73    72   ar
   109    18    17    1
   110    18    19    2
   111    17    16    1
   112    55    53    1
   113    60    61    1
   114    60    57    1
   115    54    52    1
   116    46    45    1
   117    56    57    1
   118    47    45    1
   119    45    42    1
   120    53    52    1
   121    57    58    1
   122    52    49    1
   123    59    58    2
   124    41    42    1
   125    42    43    1
   126    44    43    2
   127    49    48    1
   128    49    50    1
   129    50    51    2
