@<TRIPOS>MOLECULE
tmp/4f7bC03.pdb
 118 110 0 0 0
SMALL
GASTEIGER

@<TRIPOS>ATOM
      1  N         55.7430 -102.6020  -57.0150 N.3    98  GLU98      -0.1245
      2  CA        56.5910 -101.4360  -56.7440 C.3    98  GLU98       0.1567
      3  C         55.8020 -100.1530  -56.9400 C.2    98  GLU98       0.2260
      4  O         55.9690  -99.2060  -56.1660 O.2    98  GLU98      -0.2867
      5  CB        57.8480 -101.4440  -57.6270 C.3    98  GLU98       0.0388
      6  CG        58.8130 -102.5590  -57.2750 C.3    98  GLU98       0.1160
      7  CD        59.2890 -102.5810  -55.8330 C.2    98  GLU98       0.3649
      8  OE1       58.7660 -103.4030  -55.0420 O.co2  98  GLU98      -0.2457
      9  OE2       60.1750 -101.7630  -55.4920 O.co2  98  GLU98      -0.2457
     10  N         54.0660  -99.5100  -53.8760 N.3   101  GLN101     -0.1231
     11  CA        55.0110  -99.1970  -52.7950 C.3   101  GLN101      0.1698
     12  C         55.1250  -97.6790  -52.6520 C.2   101  GLN101      0.2592
     13  O         55.2050  -97.1710  -51.5310 O.2   101  GLN101     -0.2718
     14  CB        56.3890  -99.8320  -53.0480 C.3   101  GLN101      0.0381
     15  CG        56.4490 -101.3220  -52.7320 C.3   101  GLN101      0.0905
     16  CD        56.7820 -101.5830  -51.2830 C.2   101  GLN101      0.2608
     17  OE1       55.8960 -101.7960  -50.4390 O.2   101  GLN101     -0.2717
     18  NE2       58.0750 -101.5870  -50.9690 N.am  101  GLN101     -0.0878
     19  N         55.0910  -96.9600  -53.7920 N.am  102  VAL102     -0.1980
     20  CA        55.1080  -95.5010  -53.8310 C.3   102  VAL102      0.1595
     21  C         53.7130  -94.9220  -53.4430 C.2   102  VAL102      0.2287
     22  O         53.6310  -93.7500  -53.0600 O.2   102  VAL102     -0.2864
     23  CB        55.6110  -94.9800  -55.1990 C.3   102  VAL102      0.0276
     24  CG1       55.6240  -93.4560  -55.2550 C.3   102  VAL102      0.0022
     25  CG2       57.0420  -95.4800  -55.4160 C.3   102  VAL102      0.0022
     26  N         48.2150 -100.4880  -50.9620 N.3   105  ARG105     -0.1245
     27  CA        49.0440 -101.6700  -51.2090 C.3   105  ARG105      0.1563
     28  C         48.0110 -102.8070  -51.0850 C.2   105  ARG105      0.2260
     29  O         47.9280 -103.6820  -51.9520 O.2   105  ARG105     -0.2867
     30  CB        50.1370 -101.8310  -50.1160 C.3   105  ARG105      0.0307
     31  CG        51.2730 -100.8810  -50.3910 C.3   105  ARG105      0.0489
     32  CD        52.4420 -101.1750  -49.5050 C.3   105  ARG105      0.2205
     33  NE        53.5640 -100.3300  -49.8470 N.pl3 105  ARG105     -0.0865
     34  CZ        54.2470  -99.6150  -48.9590 C.cat 105  ARG105      0.5346
     35  NH1       53.9480  -99.6260  -47.6520 N.pl3 105  ARG105      0.1354
     36  NH2       55.2410  -98.8390  -49.3760 N.pl3 105  ARG105      0.1354
     37  N         70.6850  -94.5040  -56.5370 N.3   262  ILE262     -0.1231
     38  CA        69.5360  -93.6570  -56.2610 C.3   262  ILE262      0.1678
     39  C         69.0640  -93.5910  -54.7770 C.2   262  ILE262      0.2434
     40  O         68.6310  -92.5070  -54.3640 O.2   262  ILE262     -0.2733
     41  CB        68.4060  -93.9290  -57.2730 C.3   262  ILE262      0.0265
     42  CG1       67.2860  -92.8730  -57.1960 C.3   262  ILE262      0.0019
     43  CG2       67.8310  -95.3530  -57.1220 C.3   262  ILE262      0.0020
     44  CD1       67.7250  -91.5810  -57.8570 C.3   262  ILE262      0.0001
     45  N         69.1520  -94.6610  -53.9360 N.am  263  PRO263     -0.2718
     46  CA        68.7290  -94.5010  -52.5360 C.3   263  PRO263      0.1535
     47  C         69.7950  -93.7650  -51.7130 C.2   263  PRO263      0.2598
     48  O         70.5790  -94.3890  -50.9970 O.2   263  PRO263     -0.2715
     49  CB        68.4670  -95.9410  -52.0650 C.3   263  PRO263      0.0310
     50  CG        68.8510  -96.8370  -53.2080 C.3   263  PRO263      0.0237
     51  CD        69.6330  -96.0350  -54.1810 C.3   263  PRO263      0.0939
     52  N         69.8450  -92.4230  -51.8680 N.am  264  GLU264     -0.1978
     53  CA        70.7630  -91.4990  -51.1860 C.3   264  GLU264      0.1602
     54  C         72.2360  -91.9850  -51.0610 C.2   264  GLU264      0.2287
     55  O         72.8960  -91.7170  -50.0560 O.2   264  GLU264     -0.2864
     56  CB        70.1760  -91.0480  -49.8280 C.3   264  GLU264      0.0415
     57  CG        68.7300  -90.5390  -49.8770 C.3   264  GLU264      0.1163
     58  CD        68.5470  -89.2720  -50.7010 C.2   264  GLU264      0.3649
     59  OE1       69.4830  -88.4540  -50.7890 O.co2 264  GLU264     -0.2457
     60  OE2       67.4520  -89.0810  -51.2550 O.co2 264  GLU264     -0.2457
     61  N         73.2120  -95.3100  -51.1900 N.3   266  ASN266     -0.1240
     62  CA        73.2090  -96.7350  -50.8270 C.3   266  ASN266      0.1653
     63  C         73.2470  -97.6260  -52.0850 C.2   266  ASN266      0.2266
     64  O         72.2730  -97.6700  -52.8480 O.2   266  ASN266     -0.2867
     65  CB        72.0040  -97.0720  -49.9390 C.3   266  ASN266      0.1155
     66  CG        72.0990  -98.4030  -49.2320 C.2   266  ASN266      0.2627
     67  OD1       72.1170  -99.4760  -49.8510 O.2   266  ASN266     -0.2716
     68  ND2       72.1240  -98.3620  -47.9100 N.am  266  ASN266     -0.0877
     69  N         73.7790 -101.2860  -54.3210 N.3   268  LEU268     -0.1245
     70  CA        73.4040 -102.7020  -54.3170 C.3   268  LEU268      0.1561
     71  C         74.6170 -103.6230  -54.2470 C.2   268  LEU268      0.2260
     72  O         74.5960 -104.6050  -53.5070 O.2   268  LEU268     -0.2867
     73  CB        72.5020 -103.0600  -55.5090 C.3   268  LEU268      0.0270
     74  CG        71.0770 -102.5090  -55.4720 C.3   268  LEU268      0.0019
     75  CD1       70.3980 -102.8400  -56.7810 C.3   268  LEU268      0.0001
     76  CD2       70.2740 -103.0920  -54.3380 C.3   268  LEU268      0.0001
     77  N         71.2340 -100.5350  -60.8760 N.3   274  ASN274     -0.1240
     78  CA        69.7910 -100.3770  -60.6710 C.3   274  ASN274      0.1653
     79  C         69.2550  -99.4660  -61.7810 C.2   274  ASN274      0.2266
     80  O         69.3050  -98.2390  -61.6570 O.2   274  ASN274     -0.2867
     81  CB        69.4720  -99.7960  -59.2760 C.3   274  ASN274      0.1155
     82  CG        67.9950  -99.6380  -58.9750 C.2   274  ASN274      0.2627
     83  OD1       67.1480 -100.1390  -59.7220 O.2   274  ASN274     -0.2716
     84  ND2       67.6740  -98.9550  -57.8540 N.am  274  ASN274     -0.0877
     85  N         66.2210  -99.0310  -62.6440 N.3   276  SER276     -0.1202
     86  CA        64.8110  -98.7910  -62.3510 C.3   276  SER276      0.2020
     87  C         64.3020  -97.4450  -62.8180 C.2   276  SER276      0.2618
     88  O         63.1960  -97.3730  -63.3620 O.2   276  SER276     -0.2717
     89  CB        64.5380  -98.9480  -60.8620 C.3   276  SER276      0.2103
     90  OG        63.1990  -99.3610  -60.6450 O.3   276  SER276     -0.2182
     91  N         65.1100  -96.3810  -62.6120 N.am  277  ILE277     -0.1979
     92  CA        64.7750  -94.9970  -62.9470 C.3   277  ILE277      0.1595
     93  C         64.4770  -94.8460  -64.4210 C.2   277  ILE277      0.2287
     94  O         63.5190  -94.1790  -64.7860 O.2   277  ILE277     -0.2864
     95  CB        65.7790  -93.9310  -62.4070 C.3   277  ILE277      0.0276
     96  CG1       66.4660  -94.3460  -61.0840 C.3   277  ILE277      0.0022
     97  CG2       65.0670  -92.5880  -62.1990 C.3   277  ILE277      0.0022
     98  CD1       67.6890  -95.3420  -61.1720 C.3   277  ILE277      0.0001
     99  N         67.4190 -104.7660  -62.9200 N.3   285  ILE285     -0.1245
    100  CA        68.8190 -104.6770  -62.5260 C.3   285  ILE285      0.1561
    101  C         69.6260 -105.1570  -63.7160 C.2   285  ILE285      0.2260
    102  O         69.3160 -106.1970  -64.2880 O.2   285  ILE285     -0.2867
    103  CB        69.0820 -105.5110  -61.2280 C.3   285  ILE285      0.0252
    104  CG1       68.1570 -105.1000  -60.0600 C.3   285  ILE285      0.0019
    105  CG2       70.5240 -105.4580  -60.7840 C.3   285  ILE285      0.0019
    106  CD1       68.1910 -103.6170  -59.6190 C.3   285  ILE285      0.0001
    107  N         65.0730 -107.2270  -59.2130 N.3   337  TYR337     -0.1241
    108  CA        65.3240 -107.1770  -57.7800 C.3   337  TYR337      0.1605
    109  C         64.0680 -107.6670  -57.1120 C.2   337  TYR337      0.2264
    110  O         63.0090 -107.0440  -57.2150 O.2   337  TYR337     -0.2867
    111  CB        65.6750 -105.7770  -57.2900 C.3   337  TYR337      0.0534
    112  CG        65.9570 -105.7290  -55.8030 C.ar  337  TYR337     -0.0201
    113  CD1       67.2380 -105.9550  -55.3070 C.ar  337  TYR337     -0.0009
    114  CD2       64.9520 -105.4240  -54.8920 C.ar  337  TYR337     -0.0009
    115  CE1       67.5120 -105.8690  -53.9390 C.ar  337  TYR337      0.0417
    116  CE2       65.2110 -105.3440  -53.5220 C.ar  337  TYR337      0.0417
    117  CZ        66.4940 -105.5600  -53.0500 C.ar  337  TYR337      0.1957
    118  OH        66.7440 -105.4350  -51.7030 O.3   337  TYR337     -0.2866
@<TRIPOS>BOND
     1    94    93    2
     2    93    92    1
     3   102   101    2
     4   101   100    1
     5    88    87    2
     6    92    91    1
     7    92    95    1
     8    99   100    1
     9    87    91   am
    10    87    86    1
    11    85    86    1
    12   100   103    1
    13    95    97    1
    14    95    96    1
    15    86    89    1
    16    79    80    2
    17    79    78    1
    18   103   105    1
    19   103   104    1
    20    98    96    1
    21    77    78    1
    22    89    90    1
    23    78    81    1
    24   104   106    1
    25    83    82    2
    26    81    82    1
    27   107   108    1
    28    82    84   am
    29    44    42    1
    30   108   111    1
    31   108   109    1
    32     5     6    1
    33     5     2    1
    34   111   112    1
    35     6     7    1
    36    41    42    1
    37    41    43    1
    38    41    38    1
    39   110   109    2
    40     1     2    1
    41     3     2    1
    42     3     4    2
    43    75    74    1
    44    37    38    1
    45    38    39    1
    46     7     9   ar
    47     7     8   ar
    48   112   113   ar
    49   112   114   ar
    50    73    74    1
    51    73    70    1
    52    74    76    1
    53    25    23    1
    54   113   115   ar
    55    24    23    1
    56    23    20    1
    57   114   116   ar
    58    39    40    2
    59    39    45   am
    60    69    70    1
    61    70    71    1
    62    71    72    2
    63    51    45    1
    64    51    50    1
    65   115   117   ar
    66    45    46    1
    67    10    11    1
    68    20    19    1
    69    20    21    1
    70    19    12   am
    71   116   117   ar
    72    21    22    2
    73    50    49    1
    74   117   118    1
    75    14    11    1
    76    14    15    1
    77    64    63    2
    78    11    12    1
    79    15    16    1
    80    12    13    2
    81    46    49    1
    82    46    47    1
    83    63    62    1
    84    29    28    2
    85    52    47   am
    86    52    53    1
    87    47    48    2
    88    16    18   am
    89    16    17    2
    90    60    58   ar
    91    27    28    1
    92    27    26    1
    93    27    30    1
    94    61    62    1
    95    53    54    1
    96    53    56    1
    97    54    55    2
    98    62    65    1
    99    59    58   ar
   100    58    57    1
   101    31    30    1
   102    31    32    1
   103    65    66    1
   104    57    56    1
   105    67    66    2
   106    33    32    1
   107    33    34    2
   108    36    34    1
   109    66    68   am
   110    34    35    1
