@<TRIPOS>MOLECULE
tmp/4f7bD01.pdb
 107 101 0 0 0
SMALL
GASTEIGER

@<TRIPOS>ATOM
      1  N         11.3040  -84.0620  -40.7710 N.3    23  TYR23      -0.1241
      2  CA        11.7630  -85.4210  -40.5730 C.3    23  TYR23       0.1605
      3  C         11.8370  -86.1470  -41.9180 C.2    23  TYR23       0.2264
      4  O         11.0630  -85.8140  -42.8250 O.2    23  TYR23      -0.2867
      5  CB        10.7870  -86.1590  -39.6490 C.3    23  TYR23       0.0534
      6  CG        10.9000  -85.7860  -38.1860 C.ar   23  TYR23      -0.0201
      7  CD1       10.4060  -84.5730  -37.7150 C.ar   23  TYR23      -0.0009
      8  CD2       11.4350  -86.6750  -37.2550 C.ar   23  TYR23      -0.0009
      9  CE1       10.4870  -84.2290  -36.3630 C.ar   23  TYR23       0.0417
     10  CE2       11.5110  -86.3470  -35.8960 C.ar   23  TYR23       0.0417
     11  CZ        11.0320  -85.1210  -35.4550 C.ar   23  TYR23       0.1957
     12  OH        11.1080  -84.7680  -34.1260 O.3    23  TYR23      -0.2866
     13  N         11.6930  -90.1460  -43.0810 N.3    25  GLN25      -0.1245
     14  CA        11.4720  -91.5480  -42.7490 C.3    25  GLN25       0.1566
     15  C         11.8870  -92.3570  -43.9720 C.2    25  GLN25       0.2260
     16  O         11.4900  -92.0370  -45.0880 O.2    25  GLN25      -0.2867
     17  CB        10.0090  -91.8250  -42.3980 C.3    25  GLN25       0.0367
     18  CG         9.7100  -91.7590  -40.9150 C.3    25  GLN25       0.0905
     19  CD         8.3180  -91.2550  -40.6730 C.2    25  GLN25       0.2608
     20  OE1        7.8530  -90.2630  -41.2750 O.2    25  GLN25      -0.2717
     21  NE2        7.6380  -91.8930  -39.7390 N.am   25  GLN25      -0.0878
     22  N         12.1180  -96.1500  -45.8440 N.3    27  TYR27      -0.1241
     23  CA        11.5550  -97.5100  -45.9260 C.3    27  TYR27       0.1605
     24  C         12.2270  -98.2970  -47.1000 C.2    27  TYR27       0.2264
     25  O         12.2950  -97.7980  -48.2400 O.2    27  TYR27      -0.2867
     26  CB        10.0220  -97.4890  -46.0520 C.3    27  TYR27       0.0534
     27  CG         9.3050  -96.5110  -45.1320 C.ar   27  TYR27      -0.0201
     28  CD1        9.3220  -95.1390  -45.3880 C.ar   27  TYR27      -0.0009
     29  CD2        8.5260  -96.9650  -44.0680 C.ar   27  TYR27      -0.0009
     30  CE1        8.6520  -94.2400  -44.5600 C.ar   27  TYR27       0.0417
     31  CE2        7.8390  -96.0760  -43.2440 C.ar   27  TYR27       0.0417
     32  CZ         7.9090  -94.7120  -43.4910 C.ar   27  TYR27       0.1957
     33  OH         7.2340  -93.8230  -42.6900 O.3    27  TYR27      -0.2866
     34  N          8.5550 -104.8750  -47.1180 N.3    47  GLU47      -0.1245
     35  CA         8.7430 -103.4640  -46.7930 C.3    47  GLU47       0.1567
     36  C          9.1610 -103.2770  -45.3400 C.2    47  GLU47       0.2260
     37  O          8.3680 -103.4960  -44.3980 O.2    47  GLU47      -0.2867
     38  CB         7.4630 -102.6710  -47.1270 C.3    47  GLU47       0.0388
     39  CG         7.5840 -101.1770  -46.9460 C.3    47  GLU47       0.1160
     40  CD         6.2340 -100.5480  -46.6840 C.2    47  GLU47       0.3649
     41  OE1        5.8010  -99.6970  -47.4950 O.co2  47  GLU47      -0.2457
     42  OE2        5.5890 -100.9400  -45.6830 O.co2  47  GLU47      -0.2457
     43  N         10.7190 -100.6980  -42.4340 N.3    49  GLY49      -0.1210
     44  CA        10.8420  -99.3020  -42.0350 C.3    49  GLY49       0.1940
     45  C          9.7920  -98.9440  -41.0130 C.2    49  GLY49       0.2453
     46  O          9.0150  -99.8170  -40.6190 O.2    49  GLY49      -0.2732
     47  N          9.7340  -97.6890  -40.5200 N.am   50  PRO50      -0.2728
     48  CA        10.5730  -96.5410  -40.8570 C.3    50  PRO50       0.1401
     49  C         11.9220  -96.5220  -40.1280 C.2    50  PRO50       0.2269
     50  O         12.1310  -97.2220  -39.1150 O.2    50  PRO50      -0.2865
     51  CB         9.7130  -95.3790  -40.3530 C.3    50  PRO50       0.0296
     52  CG         9.1370  -95.9270  -39.1080 C.3    50  PRO50       0.0237
     53  CD         8.7370  -97.3170  -39.4970 C.3    50  PRO50       0.0939
     54  N         -3.5480  -92.2660  -49.7770 N.3   322  GLU322     -0.1231
     55  CA        -3.3110  -91.8340  -48.3940 C.3   322  GLU322      0.1699
     56  C         -1.8980  -92.1010  -47.8290 C.2   322  GLU322      0.2592
     57  O         -1.4650  -91.4120  -46.9030 O.2   322  GLU322     -0.2718
     58  CB        -4.4090  -92.4490  -47.4800 C.3   322  GLU322      0.0402
     59  CG        -4.4420  -92.0090  -46.0130 C.3   322  GLU322      0.1161
     60  CD        -4.3980  -90.5310  -45.6470 C.2   322  GLU322      0.3649
     61  OE1       -4.9800  -89.6960  -46.3810 O.co2 322  GLU322     -0.2457
     62  OE2       -3.8360  -90.2260  -44.5680 O.co2 322  GLU322     -0.2457
     63  N         -1.1890  -93.0740  -48.3850 N.am  323  ASP323     -0.1974
     64  CA         0.1340  -93.4470  -47.9170 C.3   323  ASP323      0.1709
     65  C          1.2030  -93.0990  -48.8900 C.2   323  ASP323      0.2293
     66  O          2.3720  -93.0230  -48.5130 O.2   323  ASP323     -0.2864
     67  CB         0.1930  -94.9690  -47.7010 C.3   323  ASP323      0.1436
     68  CG        -0.2570  -95.4930  -46.3500 C.2   323  ASP323      0.3671
     69  OD1       -0.9720  -94.7410  -45.6170 O.co2 323  ASP323     -0.2456
     70  OD2        0.1220  -96.6370  -46.0110 O.co2 323  ASP323     -0.2456
     71  N          7.0590  -87.5750  -50.8120 N.3   343  ARG343     -0.1245
     72  CA         7.2980  -89.0220  -50.8980 C.3   343  ARG343      0.1563
     73  C          7.6540  -89.4530  -52.3050 C.2   343  ARG343      0.2260
     74  O          6.8830  -89.2260  -53.2390 O.2   343  ARG343     -0.2867
     75  CB         6.0870  -89.8160  -50.3800 C.3   343  ARG343      0.0307
     76  CG         5.6870  -89.4730  -48.9310 C.3   343  ARG343      0.0489
     77  CD         4.8280  -90.5460  -48.2800 C.3   343  ARG343      0.2205
     78  NE         3.4130  -90.3070  -48.4840 N.pl3 343  ARG343     -0.0865
     79  CZ         2.5840  -89.9940  -47.5100 C.cat 343  ARG343      0.5346
     80  NH1        3.0180  -89.9170  -46.2620 N.pl3 343  ARG343      0.1354
     81  NH2        1.2970  -89.7870  -47.7680 N.pl3 343  ARG343      0.1354
     82  N         12.0190  -96.0120  -50.5480 N.3   371  TYR371     -0.1241
     83  CA        11.2510  -94.7890  -50.6590 C.3   371  TYR371      0.1605
     84  C         11.3380  -94.0010  -49.3500 C.2   371  TYR371      0.2264
     85  O         11.4610  -94.5970  -48.2630 O.2   371  TYR371     -0.2867
     86  CB         9.7920  -95.0620  -51.0830 C.3   371  TYR371      0.0534
     87  CG         8.8470  -95.4930  -49.9760 C.ar  371  TYR371     -0.0201
     88  CD1        8.5830  -96.8420  -49.7440 C.ar  371  TYR371     -0.0009
     89  CD2        8.1700  -94.5560  -49.2050 C.ar  371  TYR371     -0.0009
     90  CE1        7.6910  -97.2480  -48.7510 C.ar  371  TYR371      0.0417
     91  CE2        7.2840  -94.9480  -48.2060 C.ar  371  TYR371      0.0417
     92  CZ         7.0540  -96.3000  -47.9720 C.ar  371  TYR371      0.1957
     93  OH         6.1660  -96.7080  -46.9980 O.3   371  TYR371     -0.2866
     94  N          9.7630  -90.5240  -46.8040 N.3   373  ASN373     -0.1240
     95  CA         8.7380  -89.5760  -46.4440 C.3   373  ASN373      0.1653
     96  C          9.3630  -88.3870  -45.6940 C.2   373  ASN373      0.2266
     97  O          9.4860  -88.4140  -44.4620 O.2   373  ASN373     -0.2867
     98  CB         7.5940  -90.2210  -45.6530 C.3   373  ASN373      0.1155
     99  CG         6.5160  -89.2130  -45.2500 C.2   373  ASN373      0.2627
    100  OD1        6.5440  -88.0470  -45.6860 O.2   373  ASN373     -0.2716
    101  ND2        5.5110  -89.5420  -44.4080 N.am  373  ASN373     -0.0877
    102  N          8.7200  -85.1200  -44.2160 N.3   375  SER375     -0.1217
    103  CA         7.4930  -84.4980  -43.6860 C.3   375  SER375      0.1889
    104  C          7.6840  -83.3610  -42.6780 C.2   375  SER375      0.2288
    105  O          8.7780  -83.1990  -42.1410 O.2   375  SER375     -0.2866
    106  CB         6.6270  -85.5690  -43.0500 C.3   375  SER375      0.2089
    107  OG         7.2970  -86.1410  -41.9380 O.3   375  SER375     -0.2183
@<TRIPOS>BOND
     1    74    73    2
     2    73    72    1
     3    86    83    1
     4    86    87    1
     5    72    71    1
     6    72    75    1
     7    83    82    1
     8    83    84    1
     9    75    76    1
    10    87    88   ar
    11    87    89   ar
    12    54    55    1
    13    88    90   ar
    14    84    85    2
    15    89    91   ar
    16    76    77    1
    17    65    66    2
    18    65    64    1
    19    90    92   ar
    20    78    77    1
    21    78    79    2
    22    55    56    1
    23    55    58    1
    24    63    64    1
    25    63    56   am
    26    25    24    2
    27    91    92   ar
    28    92    93    1
    29    64    67    1
    30    56    57    2
    31    81    79    1
    32    67    68    1
    33    79    80    1
    34    41    40   ar
    35    58    59    1
    36    38    39    1
    37    38    35    1
    38    34    35    1
    39    24    23    1
    40    39    40    1
    41    94    95    1
    42    35    36    1
    43    40    42   ar
    44    95    96    1
    45    95    98    1
    46    61    60   ar
    47    68    70   ar
    48    68    69   ar
    49    26    23    1
    50    26    27    1
    51    59    60    1
    52    23    22    1
    53    96    97    2
    54   100    99    2
    55    98    99    1
    56    60    62   ar
    57    28    27   ar
    58    28    30   ar
    59    36    37    2
    60    99   101   am
    61    27    29   ar
    62    16    15    2
    63    30    32   ar
    64   102   103    1
    65    29    31   ar
    66    15    14    1
    67   103   106    1
    68   103   104    1
    69    32    31   ar
    70    32    33    1
    71    13    14    1
    72   106   107    1
    73     4     3    2
    74    14    17    1
    75   104   105    2
    76    43    44    1
    77    17    18    1
    78    44    45    1
    79     3     2    1
    80    20    19    2
    81    45    46    2
    82    45    47   am
    83    18    19    1
    84    48    47    1
    85    48    51    1
    86    48    49    1
    87     1     2    1
    88    19    21   am
    89     2     5    1
    90    47    53    1
    91    51    52    1
    92    49    50    2
    93     5     6    1
    94    53    52    1
    95     6     7   ar
    96     6     8   ar
    97     7     9   ar
    98     8    10   ar
    99     9    11   ar
   100    10    11   ar
   101    11    12    1
