@<TRIPOS>MOLECULE
tmp/4f7bE03.pdb
 113 105 0 0 0
SMALL
GASTEIGER

@<TRIPOS>ATOM
      1  N        -25.7450  -50.3870   19.6260 N.3   108  GLU108     -0.1245
      2  CA       -25.4010  -51.5040   20.5120 C.3   108  GLU108      0.1567
      3  C        -24.2040  -52.3230   20.0510 C.2   108  GLU108      0.2260
      4  O        -23.4880  -52.8820   20.8900 O.2   108  GLU108     -0.2867
      5  CB       -26.6140  -52.3980   20.8100 C.3   108  GLU108      0.0388
      6  CG       -27.3950  -51.9640   22.0510 C.3   108  GLU108      0.1160
      7  CD       -26.6870  -52.0190   23.4010 C.2   108  GLU108      0.3649
      8  OE1      -26.0050  -53.0350   23.6830 O.co2 108  GLU108     -0.2457
      9  OE2      -26.8510  -51.0580   24.1920 O.co2 108  GLU108     -0.2457
     10  N        -21.0280  -50.3720   21.1370 N.3   111  GLN111     -0.1231
     11  CA       -20.8200  -50.4860   22.5840 C.3   111  GLN111      0.1698
     12  C        -19.8290  -51.6290   22.9060 C.2   111  GLN111      0.2592
     13  O        -18.6760  -51.3920   23.3420 O.2   111  GLN111     -0.2718
     14  CB       -22.1810  -50.6960   23.2990 C.3   111  GLN111      0.0381
     15  CG       -23.2300  -49.6100   23.0050 C.3   111  GLN111      0.0905
     16  CD       -23.4030  -48.6230   24.1300 C.2   111  GLN111      0.2608
     17  OE1      -22.7440  -47.5610   24.1960 O.2   111  GLN111     -0.2717
     18  NE2      -24.3310  -48.9500   25.0220 N.am  111  GLN111     -0.0878
     19  N        -20.2830  -52.8530   22.5900 N.am  112  VAL112     -0.1980
     20  CA       -19.6030  -54.1350   22.7620 C.3   112  VAL112      0.1595
     21  C        -18.1990  -54.1460   22.0940 C.2   112  VAL112      0.2287
     22  O        -17.1850  -54.3170   22.7810 O.2   112  VAL112     -0.2864
     23  CB       -20.5290  -55.2430   22.2030 C.3   112  VAL112      0.0276
     24  CG1      -19.9860  -56.6370   22.4880 C.3   112  VAL112      0.0022
     25  CG2      -21.9400  -55.0850   22.7470 C.3   112  VAL112      0.0022
     26  N        -16.4340  -51.6930   20.8570 N.3   114  PHE114     -0.1241
     27  CA       -15.6260  -50.4970   21.1780 C.3   114  PHE114      0.1605
     28  C        -15.3460  -49.6220   19.9300 C.2   114  PHE114      0.2264
     29  O        -14.1990  -49.2070   19.6690 O.2   114  PHE114     -0.2867
     30  CB       -14.3120  -50.8560   21.9460 C.3   114  PHE114      0.0534
     31  CG       -14.4100  -51.9540   22.9840 C.ar  114  PHE114     -0.0203
     32  CD1      -15.1060  -51.7530   24.1750 C.ar  114  PHE114     -0.0042
     33  CD2      -13.7900  -53.1830   22.7810 C.ar  114  PHE114     -0.0042
     34  CE1      -15.2010  -52.7710   25.1330 C.ar  114  PHE114     -0.0003
     35  CE2      -13.8750  -54.1990   23.7440 C.ar  114  PHE114     -0.0003
     36  CZ       -14.5810  -53.9850   24.9140 C.ar  114  PHE114     -0.0000
     37  N        -29.0810  -62.2370   31.3120 N.3   276  ILE276     -0.1231
     38  CA       -27.7560  -62.2940   30.6780 C.3   276  ILE276      0.1678
     39  C        -26.6240  -61.4860   31.3290 C.2   276  ILE276      0.2434
     40  O        -25.4980  -62.0050   31.3870 O.2   276  ILE276     -0.2733
     41  CB       -27.8050  -62.1130   29.1540 C.3   276  ILE276      0.0265
     42  CG1      -26.4590  -62.4490   28.4830 C.3   276  ILE276      0.0019
     43  CG2      -28.2800  -60.6990   28.7590 C.3   276  ILE276      0.0020
     44  CD1      -26.2570  -63.9510   28.4140 C.3   276  ILE276      0.0001
     45  N        -26.8370  -60.2590   31.8600 N.am  277  PRO277     -0.2729
     46  CA       -25.7130  -59.5790   32.5240 C.3   277  PRO277      0.1401
     47  C        -25.4970  -60.1670   33.9410 C.2   277  PRO277      0.2269
     48  O        -25.9410  -59.5820   34.9330 O.2   277  PRO277     -0.2865
     49  CB       -26.1360  -58.0900   32.5120 C.3   277  PRO277      0.0296
     50  CG       -27.5220  -58.0350   31.8540 C.3   277  PRO277      0.0237
     51  CD       -28.0610  -59.4300   31.9180 C.3   277  PRO277      0.0939
     52  N        -28.1780  -59.5600   36.7230 N.3   280  ASN280     -0.1240
     53  CA       -28.7440  -58.2140   36.8390 C.3   280  ASN280      0.1653
     54  C        -30.0150  -58.1770   35.9700 C.2   280  ASN280      0.2266
     55  O        -29.9270  -58.1410   34.7300 O.2   280  ASN280     -0.2867
     56  CB       -27.7320  -57.1370   36.3960 C.3   280  ASN280      0.1155
     57  CG       -26.6260  -56.9210   37.3530 C.2   280  ASN280      0.2627
     58  OD1      -26.9150  -56.4860   38.4760 O.2   280  ASN280     -0.2716
     59  ND2      -25.4280  -57.2050   37.0050 N.am  280  ASN280     -0.0877
     60  N        -33.7600  -56.8000   34.5660 N.3   282  LEU282     -0.1245
     61  CA       -34.4110  -55.5370   34.1810 C.3   282  LEU282      0.1561
     62  C        -35.6380  -55.2030   35.0770 C.2   282  LEU282      0.2260
     63  O        -35.8160  -54.0480   35.4940 O.2   282  LEU282     -0.2867
     64  CB       -34.7690  -55.4850   32.6920 C.3   282  LEU282      0.0270
     65  CG       -33.6000  -55.3610   31.7160 C.3   282  LEU282      0.0019
     66  CD1      -34.1330  -55.4720   30.3070 C.3   282  LEU282      0.0001
     67  CD2      -32.8720  -54.0510   31.8680 C.3   282  LEU282      0.0001
     68  N        -35.3150  -59.8420   28.3860 N.3   288  ASN288     -0.1240
     69  CA       -34.2900  -59.3240   27.4980 C.3   288  ASN288      0.1653
     70  C        -34.0000  -60.3720   26.4010 C.2   288  ASN288      0.2266
     71  O        -33.2220  -61.3010   26.6290 O.2   288  ASN288     -0.2867
     72  CB       -33.0310  -58.9570   28.2960 C.3   288  ASN288      0.1155
     73  CG       -31.9440  -58.3470   27.4520 C.2   288  ASN288      0.2627
     74  OD1      -32.1640  -58.0400   26.2710 O.2   288  ASN288     -0.2716
     75  ND2      -30.7630  -58.1490   28.0430 N.am  288  ASN288     -0.0877
     76  N        -32.2930  -60.0070   23.5740 N.3   290  SER290     -0.1202
     77  CA       -31.1830  -59.4620   22.7660 C.3   290  SER290      0.2020
     78  C        -30.2980  -60.5420   22.1970 C.2   290  SER290      0.2618
     79  O        -29.8400  -60.4040   21.0710 O.2   290  SER290     -0.2717
     80  CB       -30.3310  -58.5060   23.5970 C.3   290  SER290      0.2103
     81  OG       -29.8560  -57.3980   22.8530 O.3   290  SER290     -0.2182
     82  N        -30.0610  -61.6070   22.9720 N.am  291  ILE291     -0.1979
     83  CA       -29.2050  -62.7490   22.6060 C.3   291  ILE291      0.1595
     84  C        -29.7550  -63.4890   21.3890 C.2   291  ILE291      0.2287
     85  O        -28.9820  -63.8480   20.4980 O.2   291  ILE291     -0.2864
     86  CB       -28.8770  -63.7130   23.7950 C.3   291  ILE291      0.0276
     87  CG1      -28.8220  -62.9770   25.1660 C.3   291  ILE291      0.0022
     88  CG2      -27.5690  -64.3990   23.5700 C.3   291  ILE291      0.0022
     89  CD1      -30.2900  -62.6500   25.9310 C.3   291  ILE291      0.0001
     90  N        -28.4480  -59.4180   18.7230 N.3   295  GLY295     -0.1225
     91  CA       -27.9250  -58.2660   19.4450 C.3   295  GLY295      0.1811
     92  C        -28.8060  -57.0340   19.4910 C.2   295  GLY295      0.2280
     93  O        -28.5010  -56.1070   20.2500 O.2   295  GLY295     -0.2866
     94  N        -36.8200  -56.0240   23.9080 N.3   299  ILE299     -0.1245
     95  CA       -37.3290  -56.4420   25.1970 C.3   299  ILE299      0.1561
     96  C        -38.7660  -56.9420   25.0050 C.2   299  ILE299      0.2260
     97  O        -39.6240  -56.2160   24.4890 O.2   299  ILE299     -0.2867
     98  CB       -37.2450  -55.3140   26.2490 C.3   299  ILE299      0.0252
     99  CG1      -35.8370  -54.6610   26.3740 C.3   299  ILE299      0.0019
    100  CG2      -37.8370  -55.7700   27.5890 C.3   299  ILE299      0.0019
    101  CD1      -34.7990  -55.4810   26.9730 C.3   299  ILE299      0.0001
    102  N        -34.9780  -51.2490   24.3610 N.3   351  TYR351     -0.1241
    103  CA       -34.3330  -50.6560   25.5370 C.3   351  TYR351      0.1605
    104  C        -33.5360  -49.4970   25.0340 C.2   351  TYR351      0.2264
    105  O        -32.5860  -49.6700   24.2770 O.2   351  TYR351     -0.2867
    106  CB       -33.4220  -51.6280   26.2790 C.3   351  TYR351      0.0534
    107  CG       -32.7880  -51.0220   27.5160 C.ar  351  TYR351     -0.0201
    108  CD1      -33.4400  -51.0560   28.7480 C.ar  351  TYR351     -0.0009
    109  CD2      -31.5260  -50.4280   27.4610 C.ar  351  TYR351     -0.0009
    110  CE1      -32.8450  -50.5370   29.8990 C.ar  351  TYR351      0.0417
    111  CE2      -30.9280  -49.8940   28.6020 C.ar  351  TYR351      0.0417
    112  CZ       -31.5850  -49.9660   29.8230 C.ar  351  TYR351      0.1957
    113  OH       -30.9810  -49.4710   30.9570 O.3   351  TYR351     -0.2866
@<TRIPOS>BOND
     1    90    91    1
     2    91    92    1
     3    92    93    2
     4     1     2    1
     5    29    28    2
     6    28    27    1
     7     3     2    1
     8     3     4    2
     9    85    84    2
    10     2     5    1
    11     5     6    1
    12    26    27    1
    13    79    78    2
    14    10    11    1
    15    27    30    1
    16    84    83    1
    17    30    31    1
    18     6     7    1
    19    21    20    1
    20    21    22    2
    21    78    77    1
    22    78    82   am
    23    23    24    1
    24    23    25    1
    25    23    20    1
    26    11    12    1
    27    11    14    1
    28    19    20    1
    29    19    12   am
    30    83    82    1
    31    83    86    1
    32    77    76    1
    33    77    80    1
    34    33    31   ar
    35    33    35   ar
    36    81    80    1
    37    12    13    2
    38    31    32   ar
    39    15    14    1
    40    15    16    1
    41     7     8   ar
    42     7     9   ar
    43    88    86    1
    44    35    36   ar
    45    86    87    1
    46    94    95    1
    47    16    17    2
    48    16    18   am
    49    32    34   ar
    50   105   104    2
    51   102   103    1
    52    97    96    2
    53    36    34   ar
    54    96    95    1
    55   104   103    1
    56    87    89    1
    57    95    98    1
    58   103   106    1
    59    98    99    1
    60    98   100    1
    61    74    73    2
    62   106   107    1
    63    99   101    1
    64    70    71    2
    65    70    69    1
    66    73    75   am
    67    73    72    1
    68   109   107   ar
    69   109   111   ar
    70    69    72    1
    71    69    68    1
    72   107   108   ar
    73    44    42    1
    74    42    41    1
    75   111   112   ar
    76   108   110   ar
    77    43    41    1
    78    41    38    1
    79   112   110   ar
    80   112   113    1
    81    66    65    1
    82    38    37    1
    83    38    39    1
    84    39    40    2
    85    39    45   am
    86    65    67    1
    87    65    64    1
    88    50    51    1
    89    50    49    1
    90    45    51    1
    91    45    46    1
    92    49    46    1
    93    46    47    1
    94    64    61    1
    95    47    48    2
    96    61    60    1
    97    61    62    1
    98    55    54    2
    99    62    63    2
   100    54    53    1
   101    56    53    1
   102    56    57    1
   103    52    53    1
   104    59    57   am
   105    57    58    2
