@<TRIPOS>MOLECULE
tmp/4f7cA00.pdb
 95 93 0 0 0
SMALL
GASTEIGER

@<TRIPOS>ATOM
      1  N        -14.8420    1.0860   -8.6230 N.3    17  TRP17      -0.1227
      2  CA       -15.5440    1.7150   -7.5260 C.3    17  TRP17       0.1737
      3  C        -16.9080    2.1820   -7.9360 C.2    17  TRP17       0.2596
      4  O        -17.0560    2.8830   -8.9620 O.2    17  TRP17      -0.2718
      5  CB       -14.7140    2.8660   -7.0610 C.3    17  TRP17       0.0564
      6  CG       -15.1840    3.5160   -5.8030 C.ar   17  TRP17       0.0003
      7  CD1      -14.6480    3.3780   -4.5230 C.ar   17  TRP17       0.0946
      8  CD2      -16.2890    4.4660   -5.6640 C.ar   17  TRP17       0.0152
      9  NE1      -15.3270    4.1610   -3.6290 N.ar   17  TRP17      -0.2442
     10  CE2      -16.3310    4.8400   -4.2530 C.ar   17  TRP17       0.0810
     11  CE3      -17.2130    5.0210   -6.5340 C.ar   17  TRP17       0.0012
     12  CZ2      -17.2680    5.7350   -3.7590 C.ar   17  TRP17       0.0191
     13  CZ3      -18.1550    5.9190   -6.0240 C.ar   17  TRP17       0.0001
     14  CH2      -18.1790    6.2650   -4.6650 C.ar   17  TRP17       0.0015
     15  N        -17.9160    1.7990   -7.1370 N.am   18  THR18      -0.1939
     16  CA       -19.3190    2.1730   -7.3700 C.3    18  THR18       0.2028
     17  C        -20.0960    2.2110   -6.0660 C.2    18  THR18       0.2642
     18  O        -19.7780    1.4930   -5.1260 O.2    18  THR18      -0.2714
     19  CB       -20.0160    1.1940   -8.3560 C.3    18  THR18       0.1808
     20  OG1      -21.2020    1.7920   -8.8720 O.3    18  THR18      -0.2208
     21  CG2      -20.3720   -0.1380   -7.6960 C.3    18  THR18       0.0379
     22  N        -21.0970    3.0710   -5.9800 N.am   19  ARG19      -0.1977
     23  CA       -22.0420    2.9840   -4.8640 C.3    19  ARG19       0.1597
     24  C        -23.4320    3.4000   -5.3170 C.2    19  ARG19       0.2287
     25  O        -23.5850    4.2520   -6.2310 O.2    19  ARG19      -0.2864
     26  CB       -21.5820    3.7260   -3.5790 C.3    19  ARG19       0.0334
     27  CG       -21.8270    5.2300   -3.5160 C.3    19  ARG19       0.0492
     28  CD       -21.4050    5.8510   -2.1790 C.3    19  ARG19       0.2205
     29  NE       -22.3000    5.5060   -1.0650 N.pl3  19  ARG19      -0.0865
     30  CZ       -21.9910    4.6850   -0.0540 C.cat  19  ARG19       0.5346
     31  NH1      -20.7900    4.1150    0.0070 N.pl3  19  ARG19       0.1354
     32  NH2      -22.8890    4.4290    0.9050 N.pl3  19  ARG19       0.1354
     33  N        -25.9050    1.8910    0.4920 N.3    36  ASN36      -0.1225
     34  CA       -25.0670    0.9080   -0.1900 C.3    36  ASN36       0.1785
     35  C        -24.6050   -0.2730    0.6890 C.2    36  ASN36       0.2597
     36  O        -24.6210   -1.4270    0.2470 O.2    36  ASN36      -0.2718
     37  CB       -23.8510    1.6010   -0.8090 C.3    36  ASN36       0.1169
     38  CG       -23.2090    0.7650   -1.8580 C.2    36  ASN36       0.2627
     39  OD1      -23.7180    0.6800   -2.9700 O.2    36  ASN36      -0.2716
     40  ND2      -22.0790    0.1230   -1.5160 N.am   36  ASN36      -0.0877
     41  N        -24.1940    0.0260    1.9220 N.am   37  GLU37      -0.1979
     42  CA       -23.6760   -0.9810    2.8380 C.3    37  GLU37       0.1602
     43  C        -24.7230   -2.0340    3.1880 C.2    37  GLU37       0.2287
     44  O        -24.4160   -3.2210    3.3260 O.2    37  GLU37      -0.2864
     45  CB       -23.1840   -0.3210    4.1260 C.3    37  GLU37       0.0415
     46  CG       -22.0640    0.6770    3.9400 C.3    37  GLU37       0.1163
     47  CD       -22.5740    2.0860    3.6640 C.2    37  GLU37       0.3649
     48  OE1      -23.7060    2.4020    4.1060 O.co2  37  GLU37      -0.2457
     49  OE2      -21.8410    2.8840    3.0220 O.co2  37  GLU37      -0.2457
     50  N        -27.8740   -4.5630    3.2140 N.3    39  ASP39      -0.1239
     51  CA       -28.5060   -5.5480    2.3610 C.3    39  ASP39       0.1674
     52  C        -29.9950   -5.4020    2.4340 C.2    39  ASP39       0.2266
     53  O        -30.7360   -6.1260    1.7610 O.2    39  ASP39      -0.2867
     54  CB       -28.1160   -6.9630    2.8030 C.3    39  ASP39       0.1410
     55  CG       -26.9890   -7.5570    1.9530 C.2    39  ASP39       0.3668
     56  OD1      -26.6280   -6.9620    0.9030 O.co2  39  ASP39      -0.2456
     57  OD2      -26.4650   -8.6290    2.3240 O.co2  39  ASP39      -0.2456
     58  N        -30.7490   -4.1700   -7.4680 N.3    68  ARG68      -0.1231
     59  CA       -29.5580   -3.3480   -7.2180 C.3    68  ARG68       0.1694
     60  C        -28.2790   -3.9840   -7.7880 C.2    68  ARG68       0.2592
     61  O        -27.4670   -3.2910   -8.4020 O.2    68  ARG68      -0.2718
     62  CB       -29.4010   -3.0130   -5.7320 C.3    68  ARG68       0.0321
     63  CG       -28.1630   -2.1860   -5.3900 C.3    68  ARG68       0.0489
     64  CD       -28.1210   -1.7470   -3.9190 C.3    68  ARG68       0.2205
     65  NE       -27.8050   -2.8360   -2.9850 N.pl3  68  ARG68      -0.0865
     66  CZ       -27.6880   -2.6850   -1.6670 C.cat  68  ARG68       0.5346
     67  NH1      -27.8640   -1.4980   -1.1000 N.pl3  68  ARG68       0.1354
     68  NH2      -27.3980   -3.7220   -0.9100 N.pl3  68  ARG68       0.1354
     69  N        -28.1170   -5.2980   -7.5950 N.am   69  SER69      -0.1952
     70  CA       -26.9490   -6.0300   -8.1030 C.3    69  SER69       0.1924
     71  C        -26.9600   -6.1060   -9.6070 C.2    69  SER69       0.2314
     72  O        -25.9490   -5.8540  -10.2570 O.2    69  SER69      -0.2863
     73  CB       -26.9220   -7.4430   -7.5500 C.3    69  SER69       0.2116
     74  OG       -26.8730   -7.3830   -6.1480 O.3    69  SER69      -0.2180
     75  N        -26.2490   -2.6380  -11.2800 N.3    72  THR72      -0.1218
     76  CA       -24.8270   -2.3480  -11.2840 C.3    72  THR72       0.1862
     77  C        -24.1280   -3.1120  -12.3990 C.2    72  THR72       0.2287
     78  O        -23.4990   -2.5070  -13.2620 O.2    72  THR72      -0.2866
     79  CB       -24.1540   -2.7000   -9.9330 C.3    72  THR72       0.1770
     80  OG1      -24.7740   -1.9660   -8.8730 O.3    72  THR72      -0.2211
     81  CG2      -22.6900   -2.3480   -9.9510 C.3    72  THR72       0.0375
     82  N        -22.1040   -1.5420  -15.9190 N.3    76  TRP76      -0.1241
     83  CA       -20.7340   -1.8420  -16.2420 C.3    76  TRP76       0.1605
     84  C        -20.6280   -2.4410  -17.6310 C.2    76  TRP76       0.2264
     85  O        -19.7460   -2.0910  -18.4110 O.2    76  TRP76      -0.2867
     86  CB       -20.1480   -2.7530  -15.2050 C.3    76  TRP76       0.0550
     87  CG       -19.5690   -2.0450  -14.0120 C.ar   76  TRP76       0.0003
     88  CD1      -18.9490   -0.7720  -13.9600 C.ar   76  TRP76       0.0946
     89  CD2      -19.4710   -2.5710  -12.6500 C.ar   76  TRP76       0.0152
     90  NE1      -18.5110   -0.4790  -12.6770 N.ar   76  TRP76      -0.2442
     91  CE2      -18.7910   -1.5160  -11.8420 C.ar   76  TRP76       0.0810
     92  CE3      -19.8570   -3.7600  -12.0310 C.ar   76  TRP76       0.0012
     93  CZ2      -18.5380   -1.6820  -10.4850 C.ar   76  TRP76       0.0191
     94  CZ3      -19.5930   -3.9210  -10.6540 C.ar   76  TRP76       0.0001
     95  CH2      -18.9530   -2.9060   -9.9030 C.ar   76  TRP76       0.0015
@<TRIPOS>BOND
     1    85    84    2
     2    84    83    1
     3    83    82    1
     4    83    86    1
     5    86    87    1
     6    87    88   ar
     7    87    89   ar
     8    88    90   ar
     9    78    77    2
    10    90    91   ar
    11    89    92   ar
    12    89    91   ar
    13    77    76    1
    14    92    94   ar
    15    91    93   ar
    16    76    75    1
    17    76    79    1
    18    94    95   ar
    19    93    95   ar
    20    72    71    2
    21    81    79    1
    22    79    80    1
    23    71    70    1
    24     4     3    2
    25    20    19    1
    26     1     2    1
    27    61    60    2
    28    19    21    1
    29    19    16    1
    30    70    69    1
    31    70    73    1
    32     3     2    1
    33     3    15   am
    34    60    69   am
    35    60    59    1
    36    73    74    1
    37     2     5    1
    38    58    59    1
    39    16    15    1
    40    16    17    1
    41    59    62    1
    42     5     6    1
    43    11    13   ar
    44    11     8   ar
    45    25    24    2
    46    17    22   am
    47    17    18    2
    48    13    14   ar
    49    22    23    1
    50     6     8   ar
    51     6     7   ar
    52    62    63    1
    53     8    10   ar
    54    63    64    1
    55    24    23    1
    56    23    26    1
    57    14    12   ar
    58     7     9   ar
    59    10    12   ar
    60    10     9   ar
    61    64    65    1
    62    26    27    1
    63    27    28    1
    64    65    66    2
    65    39    38    2
    66    28    29    1
    67    38    40   am
    68    38    37    1
    69    66    67    1
    70    66    68    1
    71    29    30    2
    72    37    34    1
    73    34    33    1
    74    34    35    1
    75    30    31    1
    76    30    32    1
    77    36    35    2
    78    35    41   am
    79    56    55   ar
    80    53    52    2
    81    41    42    1
    82    55    57   ar
    83    55    54    1
    84    51    52    1
    85    51    54    1
    86    51    50    1
    87    42    43    1
    88    42    45    1
    89    49    47   ar
    90    43    44    2
    91    47    46    1
    92    47    48   ar
    93    46    45    1
