@<TRIPOS>MOLECULE
tmp/4f7eA01.pdb
 87 84 0 0 0
SMALL
GASTEIGER

@<TRIPOS>ATOM
      1  N        -41.1600   -8.3160   -0.3280 N.3    15  SER15      -0.1202
      2  CA       -41.7800   -6.9980   -0.2590 C.3    15  SER15       0.2020
      3  C        -41.2420   -6.2580    0.9560 C.2    15  SER15       0.2619
      4  O        -41.3830   -5.0360    1.0560 O.2    15  SER15      -0.2717
      5  CB       -43.3040   -7.1140   -0.1150 C.3    15  SER15       0.2103
      6  OG       -43.8370   -8.1840   -0.8740 O.3    15  SER15      -0.2182
      7  N        -40.6420   -7.0110    1.8790 N.am   16  TRP16      -0.1961
      8  CA       -40.2650   -6.4910    3.1910 C.3    16  TRP16       0.1771
      9  C        -38.8560   -6.8510    3.5430 C.2    16  TRP16       0.2620
     10  O        -38.5350   -8.0100    3.8070 O.2    16  TRP16      -0.2715
     11  CB       -41.2240   -7.0050    4.2590 C.3    16  TRP16       0.0590
     12  CG       -41.1720   -6.2660    5.5760 C.ar   16  TRP16       0.0006
     13  CD1      -42.0540   -5.2880    6.0360 C.ar   16  TRP16       0.0946
     14  CD2      -40.1930   -6.4380    6.6610 C.ar   16  TRP16       0.0152
     15  NE1      -41.6960   -4.8510    7.2900 N.ar   16  TRP16      -0.2442
     16  CE2      -40.5870   -5.4980    7.7230 C.ar   16  TRP16       0.0810
     17  CE3      -39.0680   -7.2390    6.8520 C.ar   16  TRP16       0.0012
     18  CZ2      -39.8710   -5.3870    8.9120 C.ar   16  TRP16       0.0191
     19  CZ3      -38.3560   -7.1180    8.0530 C.ar   16  TRP16       0.0001
     20  CH2      -38.7500   -6.2150    9.0590 C.ar   16  TRP16       0.0015
     21  N        -37.9980   -5.8410    3.5450 N.am   17  THR17      -0.1937
     22  CA       -36.6310   -5.9940    3.9990 C.3    17  THR17       0.2028
     23  C        -36.2190   -4.7450    4.7600 C.2    17  THR17       0.2642
     24  O        -36.7150   -3.6480    4.4920 O.2    17  THR17      -0.2714
     25  CB       -35.6610   -6.2100    2.8220 C.3    17  THR17       0.1808
     26  OG1      -34.3820   -6.6190    3.3250 O.3    17  THR17      -0.2208
     27  CG2      -35.4900   -4.9320    2.0190 C.3    17  THR17       0.0379
     28  N        -35.3170   -4.9020    5.7160 N.am   18  ARG18      -0.1977
     29  CA       -34.7160   -3.7290    6.3250 C.3    18  ARG18       0.1597
     30  C        -33.2280   -3.9160    6.5850 C.2    18  ARG18       0.2287
     31  O        -32.7670   -5.0270    6.8320 O.2    18  ARG18      -0.2864
     32  CB       -35.4890   -3.2620    7.5720 C.3    18  ARG18       0.0334
     33  CG       -35.3010   -4.0690    8.8250 C.3    18  ARG18       0.0492
     34  CD       -35.9730   -3.3470   10.0120 C.3    18  ARG18       0.2205
     35  NE       -35.3320   -2.0690   10.3640 N.pl3  18  ARG18      -0.0865
     36  CZ       -35.9510   -0.8900   10.4210 C.cat  18  ARG18       0.5346
     37  NH1      -37.2540   -0.7810   10.1600 N.pl3  18  ARG18       0.1354
     38  NH2      -35.2600    0.1900   10.7560 N.pl3  18  ARG18       0.1354
     39  N        -32.7030    2.1570    8.7120 N.3    35  ASN35      -0.1225
     40  CA       -33.3590    1.8970    7.4120 C.3    35  ASN35       0.1785
     41  C        -34.2050    3.0700    6.8890 C.2    35  ASN35       0.2597
     42  O        -34.1300    3.3980    5.7120 O.2    35  ASN35      -0.2718
     43  CB       -34.2050    0.6220    7.4590 C.3    35  ASN35       0.1169
     44  CG       -34.6670    0.1690    6.0730 C.2    35  ASN35       0.2627
     45  OD1      -33.9410   -0.5460    5.3660 O.2    35  ASN35      -0.2716
     46  ND2      -35.8920    0.5750    5.6880 N.am   35  ASN35      -0.0877
     47  N        -34.9890    3.7070    7.7600 N.am   36  GLU36      -0.1979
     48  CA       -35.9020    4.8080    7.3490 C.3    36  GLU36       0.1602
     49  C        -35.1930    6.0410    6.7950 C.2    36  GLU36       0.2287
     50  O        -35.8380    6.9380    6.2330 O.2    36  GLU36      -0.2864
     51  CB       -36.7880    5.2550    8.5170 C.3    36  GLU36       0.0415
     52  CG       -37.7720    4.1940    9.0010 C.3    36  GLU36       0.1163
     53  CD       -37.2600    3.3850   10.1760 C.2    36  GLU36       0.3649
     54  OE1      -36.0310    3.3790   10.4410 O.co2  36  GLU36      -0.2457
     55  OE2      -38.1070    2.7460   10.8360 O.co2  36  GLU36      -0.2457
     56  N        -31.9630    8.1490    4.7940 N.3    38  ASP38      -0.1239
     57  CA       -30.9830    8.1600    3.7170 C.3    38  ASP38       0.1674
     58  C        -29.6260    8.7000    4.1700 C.2    38  ASP38       0.2266
     59  O        -28.6690    8.7190    3.3980 O.2    38  ASP38      -0.2867
     60  CB       -31.5230    8.9290    2.4980 C.3    38  ASP38       0.1410
     61  CG       -32.7200    8.2230    1.8370 C.2    38  ASP38       0.3668
     62  OD1      -32.7150    6.9700    1.7510 O.co2  38  ASP38      -0.2456
     63  OD2      -33.6680    8.9240    1.4050 O.co2  38  ASP38      -0.2456
     64  N        -26.2380    0.2770    0.0260 N.3    67  ARG67      -0.1231
     65  CA       -27.3820   -0.3050    0.7270 C.3    67  ARG67       0.1694
     66  C        -28.4670   -0.7530   -0.2620 C.2    67  ARG67       0.2592
     67  O        -28.9630   -1.8680   -0.1630 O.2    67  ARG67      -0.2718
     68  CB       -27.9350    0.6730    1.7690 C.3    67  ARG67       0.0321
     69  CG       -29.1550    0.1600    2.5570 C.3    67  ARG67       0.0489
     70  CD       -29.5940    1.1640    3.6160 C.3    67  ARG67       0.2205
     71  NE       -30.3870    2.2580    3.0580 N.pl3  67  ARG67      -0.0865
     72  CZ       -30.9060    3.2640    3.7690 C.cat  67  ARG67       0.5346
     73  NH1      -30.7110    3.3480    5.0800 N.pl3  67  ARG67       0.1354
     74  NH2      -31.6260    4.1960    3.1650 N.pl3  67  ARG67       0.1354
     75  N        -28.8060    0.1240   -1.2090 N.am   68  SER68      -0.1952
     76  CA       -29.7470   -0.1630   -2.3130 C.3    68  SER68       0.1924
     77  C        -29.3310   -1.3670   -3.1290 C.2    68  SER68       0.2314
     78  O        -30.1440   -2.2500   -3.4200 O.2    68  SER68      -0.2863
     79  CB       -29.7940    1.0180   -3.2720 C.3    68  SER68       0.2116
     80  OG       -30.8510    1.8940   -2.9610 O.3    68  SER68      -0.2180
     81  N        -29.3930   -4.6190   -1.2420 N.3    71  THR71      -0.1218
     82  CA       -30.7590   -5.1060   -1.1180 C.3    71  THR71       0.1862
     83  C        -31.1570   -5.9010   -2.3730 C.2    71  THR71       0.2287
     84  O        -31.3870   -7.1060   -2.2810 O.2    71  THR71      -0.2866
     85  CB       -31.7200   -3.9540   -0.7940 C.3    71  THR71       0.1770
     86  OG1      -31.2350   -3.2560    0.3580 O.3    71  THR71      -0.2211
     87  CG2      -33.0990   -4.4690   -0.4760 C.3    71  THR71       0.0375
@<TRIPOS>BOND
     1    78    77    2
     2    79    80    1
     3    79    76    1
     4    77    76    1
     5    83    84    2
     6    83    82    1
     7    76    75    1
     8    81    82    1
     9    75    66   am
    10    82    85    1
    11     6     5    1
    12    85    87    1
    13    85    86    1
    14     1     2    1
    15    66    67    2
    16    66    65    1
    17     2     5    1
    18     2     3    1
    19    64    65    1
    20    65    68    1
    21     3     4    2
    22     3     7   am
    23    63    61   ar
    24    62    61   ar
    25    68    69    1
    26    61    60    1
    27     7     8    1
    28    27    25    1
    29    60    57    1
    30    69    70    1
    31    25    26    1
    32    25    22    1
    33    71    70    1
    34    71    72    2
    35    74    72    1
    36     8     9    1
    37     8    11    1
    38    59    58    2
    39     9    21   am
    40     9    10    2
    41    21    22    1
    42    57    58    1
    43    57    56    1
    44    72    73    1
    45    22    23    1
    46    11    12    1
    47    24    23    2
    48    23    28   am
    49    45    44    2
    50    12    13   ar
    51    12    14   ar
    52    46    44   am
    53    42    41    2
    54    28    29    1
    55    13    15   ar
    56    44    43    1
    57    50    49    2
    58    29    30    1
    59    29    32    1
    60    30    31    2
    61    14    17   ar
    62    14    16   ar
    63    49    48    1
    64    17    19   ar
    65    41    40    1
    66    41    47   am
    67    15    16   ar
    68    48    47    1
    69    48    51    1
    70    40    43    1
    71    40    39    1
    72    32    33    1
    73    16    18   ar
    74    19    20   ar
    75    51    52    1
    76    33    34    1
    77    18    20   ar
    78    52    53    1
    79    34    35    1
    80    37    36    1
    81    53    54   ar
    82    53    55   ar
    83    35    36    2
    84    36    38    1
