@<TRIPOS>MOLECULE
tmp/4f7fB00.pdb
 173 161 0 0 0
SMALL
GASTEIGER

@<TRIPOS>ATOM
      1  N         70.3210   27.2280   71.3330 N.3     5  MET5       -0.1230
      2  CA        69.0530   27.6670   71.8900 C.3     5  MET5        0.1702
      3  C         68.1010   28.0290   70.7390 C.2     5  MET5        0.2592
      4  O         66.9410   27.6370   70.7510 O.2     5  MET5       -0.2718
      5  CB        69.1970   28.8370   72.8640 C.3     5  MET5        0.0401
      6  CG        67.8480   29.2560   73.4780 C.3     5  MET5        0.0596
      7  SD        67.8640   30.6370   74.6590 S.3     5  MET5       -0.1393
      8  CE        68.2830   32.0220   73.5870 C.3     5  MET5        0.0692
      9  N         68.5880   28.7560   69.7380 N.am    6  MET6       -0.1979
     10  CA        67.6980   29.1320   68.6330 C.3     6  MET6        0.1605
     11  C         67.2190   27.9450   67.8100 C.2     6  MET6        0.2287
     12  O         66.0320   27.8330   67.5350 O.2     6  MET6       -0.2864
     13  CB        68.3090   30.1920   67.7150 C.3     6  MET6        0.0413
     14  CG        68.6410   31.5170   68.3940 C.3     6  MET6        0.0598
     15  SD        67.2660   32.2390   69.3040 S.3     6  MET6       -0.1393
     16  CE        66.0380   32.4900   67.9950 C.3     6  MET6        0.0692
     17  N         64.9520   25.7800   70.1700 N.3     9  GLY9       -0.1210
     18  CA        63.7210   26.5020   70.4260 C.3     9  GLY9        0.1956
     19  C         62.8180   26.5200   69.1960 C.2     9  GLY9        0.2611
     20  O         61.6110   26.3210   69.3090 O.2     9  GLY9       -0.2717
     21  N         63.3960   26.7450   68.0240 N.am   10  GLU10      -0.1979
     22  CA        62.5810   26.8770   66.7970 C.3    10  GLU10       0.1602
     23  C         61.9400   25.5520   66.4330 C.2    10  GLU10       0.2287
     24  O         60.7620   25.5190   66.0460 O.2    10  GLU10      -0.2864
     25  CB        63.4070   27.4000   65.6180 C.3    10  GLU10       0.0415
     26  CG        63.8340   28.8540   65.7910 C.3    10  GLU10       0.1163
     27  CD        64.8740   29.3070   64.7830 C.2    10  GLU10       0.3649
     28  OE1       65.4090   30.4170   64.9790 O.co2  10  GLU10      -0.2457
     29  OE2       65.1600   28.5750   63.8040 O.co2  10  GLU10      -0.2457
     30  N         59.2930   24.6720   69.1860 N.3    13  ARG13      -0.1245
     31  CA        58.0880   25.4790   68.9110 C.3    13  ARG13       0.1563
     32  C         57.2880   24.8820   67.7670 C.2    13  ARG13       0.2260
     33  O         56.0600   24.6730   67.8870 O.2    13  ARG13      -0.2867
     34  CB        58.4490   26.9230   68.6050 C.3    13  ARG13       0.0307
     35  CG        57.2540   27.8720   68.3930 C.3    13  ARG13       0.0489
     36  CD        57.7610   29.2450   68.0360 C.3    13  ARG13       0.2205
     37  NE        56.7030   30.2110   67.7550 N.pl3  13  ARG13      -0.0865
     38  CZ        56.2920   31.1510   68.6050 C.cat  13  ARG13       0.5346
     39  NH1       56.8390   31.2560   69.8060 N.pl3  13  ARG13       0.1354
     40  NH2       55.3370   31.9920   68.2420 N.pl3  13  ARG13       0.1354
     41  N         48.9070   30.5440   67.2830 N.3    24  GLU24      -0.1245
     42  CA        50.2350   31.0750   67.5670 C.3    24  GLU24       0.1567
     43  C         50.1760   32.4260   68.2950 C.2    24  GLU24       0.2260
     44  O         51.0330   32.7430   69.1320 O.2    24  GLU24      -0.2867
     45  CB        51.0680   31.1980   66.2790 C.3    24  GLU24       0.0388
     46  CG        52.5350   31.4700   66.5480 C.3    24  GLU24       0.1160
     47  CD        53.4340   31.3100   65.3160 C.2    24  GLU24       0.3649
     48  OE1       52.9300   30.9910   64.2250 O.co2  24  GLU24      -0.2457
     49  OE2       54.6630   31.4920   65.4500 O.co2  24  GLU24      -0.2457
     50  N         52.2620   33.5450   71.5750 N.3    28  ASN28      -0.1240
     51  CA        53.0000   34.7990   71.7000 C.3    28  ASN28       0.1653
     52  C         52.6130   35.6100   72.9280 C.2    28  ASN28       0.2266
     53  O         53.4270   36.3420   73.4750 O.2    28  ASN28      -0.2867
     54  CB        52.8410   35.6420   70.4480 C.3    28  ASN28       0.1155
     55  CG        53.6240   35.0820   69.2880 C.2    28  ASN28       0.2627
     56  OD1       54.5930   34.3430   69.4870 O.2    28  ASN28      -0.2716
     57  ND2       53.2060   35.4110   68.0750 N.am   28  ASN28      -0.0877
     58  N         54.7960   35.4910   76.3770 N.3    31  ARG31      -0.1245
     59  CA        55.8920   36.4080   76.6930 C.3    31  ARG31       0.1563
     60  C         55.4010   37.7100   77.3360 C.2    31  ARG31       0.2260
     61  O         56.1740   38.4110   77.9910 O.2    31  ARG31      -0.2867
     62  CB        56.7540   36.6800   75.4450 C.3    31  ARG31       0.0307
     63  CG        57.5420   35.4420   74.9670 C.3    31  ARG31       0.0489
     64  CD        58.2100   35.6170   73.5880 C.3    31  ARG31       0.2205
     65  NE        58.5440   34.3240   72.9720 N.pl3  31  ARG31      -0.0865
     66  CZ        59.7370   33.9990   72.4730 C.cat  31  ARG31       0.5346
     67  NH1       60.7380   34.8700   72.5010 N.pl3  31  ARG31       0.1354
     68  NH2       59.9300   32.7950   71.9410 N.pl3  31  ARG31       0.1354
     69  N         56.2250   21.6230   75.1870 N.3    48  VAL48      -0.1231
     70  CA        57.5760   22.2090   75.1360 C.3    48  VAL48       0.1692
     71  C         58.4290   21.7090   76.3130 C.2    48  VAL48       0.2591
     72  O         59.5780   21.3560   76.1410 O.2    48  VAL48      -0.2718
     73  CB        57.5300   23.7330   75.1540 C.3    48  VAL48       0.0266
     74  CG1       58.9140   24.2820   75.4100 C.3    48  VAL48       0.0020
     75  CG2       56.9320   24.2680   73.8230 C.3    48  VAL48       0.0020
     76  N         57.8390   21.6940   77.4980 N.am   49  MET49      -0.1979
     77  CA        58.4880   21.1530   78.6760 C.3    49  MET49       0.1605
     78  C         58.8830   19.6700   78.5650 C.2    49  MET49       0.2287
     79  O         59.9620   19.2890   79.0070 O.2    49  MET49      -0.2864
     80  CB        57.6220   21.4410   79.9000 C.3    49  MET49       0.0413
     81  CG        57.8010   22.8720   80.3530 C.3    49  MET49       0.0598
     82  SD        56.7990   23.2420   81.7690 S.3    49  MET49      -0.1393
     83  CE        57.2040   24.9860   81.9810 C.3    49  MET49       0.0692
     84  N         61.8600   19.3440   76.1840 N.3    52  MET52      -0.1245
     85  CA        63.0970   19.8340   76.7980 C.3    52  MET52       0.1570
     86  C         63.4920   18.9610   77.9930 C.2    52  MET52       0.2261
     87  O         64.4420   19.2700   78.7150 O.2    52  MET52      -0.2867
     88  CB        62.9090   21.2720   77.2610 C.3    52  MET52       0.0387
     89  CG        62.6500   22.2270   76.1380 C.3    52  MET52       0.0595
     90  SD        64.2270   22.5570   75.3480 S.3    52  MET52      -0.1393
     91  CE        65.0550   23.3330   76.7380 C.3    52  MET52       0.0692
     92  N         62.1290   18.6500   80.8680 N.3    54  THR54      -0.1218
     93  CA        61.9490   19.2510   82.1800 C.3    54  THR54       0.1862
     94  C         60.7530   18.6970   82.9000 C.2    54  THR54       0.2287
     95  O         60.6210   18.8240   84.1100 O.2    54  THR54      -0.2866
     96  CB        61.8260   20.7630   82.0810 C.3    54  THR54       0.1770
     97  OG1       60.7130   21.0870   81.2260 O.3    54  THR54      -0.2211
     98  CG2       63.0920   21.3250   81.5060 C.3    54  THR54       0.0375
     99  N         69.2960   21.1450   81.9830 N.3    68  GLN68      -0.1231
    100  CA        68.7990   21.7270   80.7410 C.3    68  GLN68       0.1698
    101  C         68.9680   23.2410   80.6830 C.2    68  GLN68       0.2592
    102  O         69.4640   23.7820   79.7020 O.2    68  GLN68      -0.2718
    103  CB        67.3430   21.3340   80.5200 C.3    68  GLN68       0.0381
    104  CG        67.1910   19.9370   79.9530 C.3    68  GLN68       0.0905
    105  CD        67.8350   19.7870   78.5850 C.2    68  GLN68       0.2608
    106  OE1       69.0630   19.8170   78.4530 O.2    68  GLN68      -0.2717
    107  NE2       67.0040   19.6330   77.5510 N.am   68  GLN68      -0.0878
    108  N         68.5830   23.9200   81.7490 N.am   69  ILE69      -0.1980
    109  CA        68.7960   25.3490   81.8520 C.3    69  ILE69       0.1595
    110  C         70.2750   25.6820   81.6430 C.2    69  ILE69       0.2287
    111  O         70.6250   26.5560   80.8490 O.2    69  ILE69      -0.2864
    112  CB        68.3470   25.8440   83.2280 C.3    69  ILE69       0.0276
    113  CG1       66.8260   25.7510   83.3460 C.3    69  ILE69       0.0022
    114  CG2       68.8450   27.2670   83.4880 C.3    69  ILE69       0.0022
    115  CD1       66.3550   25.8000   84.7670 C.3    69  ILE69       0.0001
    116  N         71.5260   24.5970   77.6200 N.3    72  ILE72      -0.1231
    117  CA        70.9180   25.2790   76.4850 C.3    72  ILE72       0.1692
    118  C         70.9250   26.8010   76.6160 C.2    72  ILE72       0.2591
    119  O         71.0900   27.5040   75.6240 O.2    72  ILE72      -0.2718
    120  CB        69.4680   24.7900   76.2420 C.3    72  ILE72       0.0266
    121  CG1       68.8520   25.5210   75.0510 C.3    72  ILE72       0.0019
    122  CG2       68.6040   24.9800   77.4860 C.3    72  ILE72       0.0020
    123  CD1       67.4830   25.0020   74.6650 C.3    72  ILE72       0.0001
    124  N         70.7510   27.3200   77.8280 N.am   73  MET73      -0.1979
    125  CA        70.5840   28.7660   77.9810 C.3    73  MET73       0.1605
    126  C         71.9080   29.5190   78.1080 C.2    73  MET73       0.2287
    127  O         72.8410   29.0330   78.7410 O.2    73  MET73      -0.2864
    128  CB        69.6750   29.0840   79.1740 C.3    73  MET73       0.0413
    129  CG        68.2230   28.6670   78.9730 C.3    73  MET73       0.0598
    130  SD        67.1350   29.2250   80.3010 S.3    73  MET73      -0.1393
    131  CE        66.3900   30.6610   79.5250 C.3    73  MET73       0.0692
    132  N         66.7840   31.8080   85.5760 N.3    81  MET81      -0.1245
    133  CA        65.8780   30.6690   85.4390 C.3    81  MET81       0.1570
    134  C         66.0900   29.6440   86.5510 C.2    81  MET81       0.2261
    135  O         65.1260   29.1150   87.0870 O.2    81  MET81      -0.2867
    136  CB        65.9970   30.0090   84.0580 C.3    81  MET81       0.0387
    137  CG        64.8350   29.0540   83.7170 C.3    81  MET81       0.0595
    138  SD        63.2090   29.8330   83.4680 S.3    81  MET81      -0.1393
    139  CE        63.3730   30.3790   81.7490 C.3    81  MET81       0.0692
    140  N         57.2500   30.4430   87.1440 N.3   109  LEU109     -0.1245
    141  CA        58.5920   30.7600   86.6600 C.3   109  LEU109      0.1561
    142  C         58.6030   32.1760   86.0800 C.2   109  LEU109      0.2260
    143  O         59.4900   32.9870   86.3820 O.2   109  LEU109     -0.2867
    144  CB        59.0130   29.7420   85.5940 C.3   109  LEU109      0.0270
    145  CG        59.2630   28.3290   86.1050 C.3   109  LEU109      0.0019
    146  CD1       59.4940   27.3840   84.9490 C.3   109  LEU109      0.0001
    147  CD2       60.4660   28.3770   87.0180 C.3   109  LEU109      0.0001
    148  N         62.0650   33.6010   79.3670 N.3   117  ILE117     -0.1231
    149  CA        61.9520   33.3280   77.9270 C.3   117  ILE117      0.1692
    150  C         61.5340   31.8720   77.6940 C.2   117  ILE117      0.2592
    151  O         61.8720   30.9880   78.4860 O.2   117  ILE117     -0.2718
    152  CB        63.2690   33.5900   77.1700 C.3   117  ILE117      0.0266
    153  CG1       63.0440   33.4090   75.6640 C.3   117  ILE117      0.0019
    154  CG2       64.3550   32.6330   77.6410 C.3   117  ILE117      0.0020
    155  CD1       64.3280   33.3800   74.8490 C.3   117  ILE117      0.0001
    156  N         60.7990   31.6170   76.6130 N.am  118  PHE118     -0.1963
    157  CA        60.1740   30.3140   76.4150 C.3   118  PHE118      0.1756
    158  C         59.9010   30.1570   74.9250 C.2   118  PHE118      0.2461
    159  O         59.5710   31.1310   74.2620 O.2   118  PHE118     -0.2730
    160  CB        58.8580   30.2590   77.2080 C.3   118  PHE118      0.0574
    161  CG        58.2610   28.8880   77.3360 C.ar  118  PHE118     -0.0200
    162  CD1       58.7740   27.9850   78.2430 C.ar  118  PHE118     -0.0042
    163  CD2       57.1430   28.5100   76.5790 C.ar  118  PHE118     -0.0042
    164  CE1       58.2310   26.7390   78.3710 C.ar  118  PHE118     -0.0003
    165  CE2       56.5970   27.2760   76.7080 C.ar  118  PHE118     -0.0003
    166  CZ        57.1210   26.3700   77.5970 C.ar  118  PHE118     -0.0000
    167  N         60.0590   28.9350   74.3830 N.am  119  PRO119     -0.2727
    168  CA        59.9120   28.7340   72.9370 C.3   119  PRO119      0.1402
    169  C         58.5690   29.2040   72.3780 C.2   119  PRO119      0.2269
    170  O         57.4810   28.9620   72.9340 O.2   119  PRO119     -0.2865
    171  CB        60.0330   27.2140   72.7780 C.3   119  PRO119      0.0296
    172  CG        60.8900   26.7980   73.8950 C.3   119  PRO119      0.0237
    173  CD        60.5300   27.7140   75.0590 C.3   119  PRO119      0.0939
@<TRIPOS>BOND
     1    29    27   ar
     2    48    47   ar
     3    27    28   ar
     4    27    26    1
     5    47    49   ar
     6    47    46    1
     7    25    26    1
     8    25    22    1
     9    24    23    2
    10    45    46    1
    11    45    42    1
    12    23    22    1
    13    22    21    1
    14    41    42    1
    15    12    11    2
    16    42    43    1
    17    13    14    1
    18    13    10    1
    19    37    36    1
    20    37    38    2
    21    32    33    2
    22    32    31    1
    23    11    10    1
    24    16    15    1
    25    21    19   am
    26    36    35    1
    27    57    55   am
    28    40    38    1
    29    43    44    2
    30    35    34    1
    31    14    15    1
    32    38    39    1
    33    34    31    1
    34    10     9    1
    35    31    30    1
    36    19    20    2
    37    19    18    1
    38    55    56    2
    39    55    54    1
    40     9     3   am
    41    17    18    1
    42    54    51    1
    43     3     4    2
    44     3     2    1
    45     1     2    1
    46    50    51    1
    47    51    52    1
    48     2     5    1
    49    68    66    1
    50   169   170    2
    51   169   168    1
    52    66    67    1
    53    66    65    2
    54   171   168    1
    55   171   172    1
    56     5     6    1
    57    52    53    2
    58   168   167    1
    59    65    64    1
    60     6     7    1
    61     8     7    1
    62    64    63    1
    63    75    73    1
    64   172   173    1
    65   159   158    2
    66   167   158   am
    67   167   173    1
    68   123   121    1
    69   155   153    1
    70   158   157    1
    71    63    62    1
    72   121   120    1
    73    70    73    1
    74    70    69    1
    75    70    71    1
    76    73    74    1
    77    90    89    1
    78    90    91    1
    79    62    59    1
    80   119   118    2
    81   153   152    1
    82    89    88    1
    83    72    71    2
    84    84    85    1
    85   120   117    1
    86   120   122    1
    87    71    76   am
    88    58    59    1
    89   157   156    1
    90   157   160    1
    91   117   118    1
    92   117   116    1
    93   163   165   ar
    94   163   161   ar
    95   156   150   am
    96   118   124   am
    97    59    60    1
    98   165   166   ar
    99    85    88    1
   100    85    86    1
   101   152   154    1
   102   152   149    1
   103   160   161    1
   104    60    61    2
   105   161   162   ar
   106    76    77    1
   107   107   105   am
   108   166   164   ar
   109   150   149    1
   110   150   151    2
   111   124   125    1
   112   149   148    1
   113   125   126    1
   114   125   128    1
   115    86    87    2
   116   126   127    2
   117   162   164   ar
   118   106   105    2
   119    78    77    1
   120    78    79    2
   121   105   104    1
   122    77    80    1
   123   129   128    1
   124   129   130    1
   125   131   130    1
   126   102   101    2
   127    80    81    1
   128   104   103    1
   129    81    82    1
   130   103   100    1
   131   101   100    1
   132   101   108   am
   133   100    99    1
   134   111   110    2
   135    92    93    1
   136    97    96    1
   137    98    96    1
   138   110   109    1
   139   139   138    1
   140   108   109    1
   141    82    83    1
   142   109   112    1
   143    96    93    1
   144    93    94    1
   145    94    95    2
   146   112   113    1
   147   112   114    1
   148   113   115    1
   149   138   137    1
   150   137   136    1
   151   136   133    1
   152   146   145    1
   153   133   132    1
   154   133   134    1
   155   144   145    1
   156   144   141    1
   157   142   143    2
   158   142   141    1
   159   145   147    1
   160   134   135    2
   161   141   140    1
