@<TRIPOS>MOLECULE
tmp/4f7fC00.pdb
 192 178 0 0 0
SMALL
GASTEIGER

@<TRIPOS>ATOM
      1  N         39.0120   -6.3380   70.5380 N.3     5  MET5       -0.1230
      2  CA        38.4350   -5.3210   69.6570 C.3     5  MET5        0.1702
      3  C         38.1580   -4.0520   70.4460 C.2     5  MET5        0.2592
      4  O         38.4630   -2.9420   70.0010 O.2     5  MET5       -0.2718
      5  CB        37.1210   -5.7900   69.0320 C.3     5  MET5        0.0401
      6  CG        36.6020   -4.7690   68.0540 C.3     5  MET5        0.0596
      7  SD        34.9140   -5.1960   67.4540 S.3     5  MET5       -0.1393
      8  CE        33.9370   -5.0990   68.9290 C.3     5  MET5        0.0692
      9  N         37.5540   -4.2180   71.6150 N.am    6  MET6       -0.1979
     10  CA        37.0840   -3.0700   72.3770 C.3     6  MET6        0.1605
     11  C         38.2590   -2.1950   72.8050 C.2     6  MET6        0.2287
     12  O         38.1870   -0.9800   72.7280 O.2     6  MET6       -0.2864
     13  CB        36.3340   -3.5000   73.6410 C.3     6  MET6        0.0413
     14  CG        35.0260   -4.1860   73.4180 C.3     6  MET6        0.0598
     15  SD        33.9390   -3.1880   72.3570 S.3     6  MET6       -0.1393
     16  CE        32.3990   -4.0820   72.5020 C.3     6  MET6        0.0692
     17  N         41.4090   -2.1940   71.3870 N.3     8  SER8       -0.1202
     18  CA        42.0820   -1.6670   70.1900 C.3     8  SER8        0.2020
     19  C         41.3400   -0.4350   69.6950 C.2     8  SER8        0.2619
     20  O         41.9620    0.5690   69.3340 O.2     8  SER8       -0.2717
     21  CB        42.1050   -2.7010   69.0480 C.3     8  SER8        0.2103
     22  OG        42.7900   -3.8680   69.4340 O.3     8  SER8       -0.2182
     23  N         40.0130   -0.5080   69.6930 N.am    9  GLY9       -0.1942
     24  CA        39.1990    0.6110   69.2370 C.3     9  GLY9        0.2014
     25  C         39.3620    1.8090   70.1600 C.2     9  GLY9        0.2638
     26  O         39.5060    2.9500   69.7050 O.2     9  GLY9       -0.2714
     27  N         39.3070    1.5490   71.4650 N.am   10  GLU10      -0.1977
     28  CA        39.4600    2.6040   72.4610 C.3    10  GLU10       0.1602
     29  C         40.8050    3.2980   72.2850 C.2    10  GLU10       0.2287
     30  O         40.8930    4.5240   72.3370 O.2    10  GLU10      -0.2864
     31  CB        39.2820    2.0380   73.8690 C.3    10  GLU10       0.0415
     32  CG        37.8000    1.8670   74.2210 C.3    10  GLU10       0.1163
     33  CD        37.5270    0.7470   75.2040 C.2    10  GLU10       0.3649
     34  OE1       38.4220    0.4270   76.0150 O.co2  10  GLU10      -0.2457
     35  OE2       36.4030    0.1960   75.1700 O.co2  10  GLU10      -0.2457
     36  N         40.9220    5.3430   68.8970 N.3    13  ARG13      -0.1245
     37  CA        40.0740    6.5330   69.0480 C.3    13  ARG13       0.1563
     38  C         40.8110    7.6410   69.8090 C.2    13  ARG13       0.2260
     39  O         40.8370    8.8080   69.4030 O.2    13  ARG13      -0.2867
     40  CB        38.7690    6.2110   69.7720 C.3    13  ARG13       0.0307
     41  CG        37.9150    7.4790   70.0100 C.3    13  ARG13       0.0489
     42  CD        36.6280    7.2260   70.7900 C.3    13  ARG13       0.2205
     43  NE        35.5640    6.6700   69.9590 N.pl3  13  ARG13      -0.0865
     44  CZ        34.2670    6.8850   70.1550 C.cat  13  ARG13       0.5346
     45  NH1       33.8490    7.6760   71.1460 N.pl3  13  ARG13       0.1354
     46  NH2       33.3750    6.3230   69.3410 N.pl3  13  ARG13       0.1354
     47  N         28.8210    5.4960   63.9750 N.3    31  ARG31      -0.1245
     48  CA        28.2180    4.1770   64.1820 C.3    31  ARG31       0.1563
     49  C         26.7270    4.1330   63.9540 C.2    31  ARG31       0.2260
     50  O         26.1210    3.0590   63.9650 O.2    31  ARG31      -0.2867
     51  CB        28.5140    3.6630   65.5730 C.3    31  ARG31       0.0307
     52  CG        29.9650    3.4100   65.7770 C.3    31  ARG31       0.0489
     53  CD        30.1940    3.1880   67.2160 C.3    31  ARG31       0.2205
     54  NE        31.6110    3.1620   67.5000 N.pl3  31  ARG31      -0.0865
     55  CZ        32.0910    2.7680   68.6640 C.cat  31  ARG31       0.5346
     56  NH1       31.2460    2.3860   69.6110 N.pl3  31  ARG31       0.1354
     57  NH2       33.3970    2.7640   68.8790 N.pl3  31  ARG31       0.1354
     58  N         42.3070    7.0490   61.6890 N.3    48  VAL48      -0.1231
     59  CA        42.0660    5.7180   62.1960 C.3    48  VAL48       0.1692
     60  C         42.5460    4.7140   61.1480 C.2    48  VAL48       0.2591
     61  O         43.2690    3.7690   61.4550 O.2    48  VAL48      -0.2718
     62  CB        40.5560    5.5010   62.4540 C.3    48  VAL48       0.0266
     63  CG1       40.2230    4.0150   62.5830 C.3    48  VAL48       0.0020
     64  CG2       40.1120    6.2220   63.6620 C.3    48  VAL48       0.0020
     65  N         42.1420    4.9390   59.9040 N.am   49  MET49      -0.1979
     66  CA        42.4620    4.0160   58.8240 C.3    49  MET49       0.1605
     67  C         43.9500    3.9340   58.5470 C.2    49  MET49       0.2287
     68  O         44.4710    2.8440   58.3120 O.2    49  MET49      -0.2864
     69  CB        41.7170    4.3990   57.5640 C.3    49  MET49       0.0413
     70  CG        40.2540    4.1410   57.6780 C.3    49  MET49       0.0598
     71  SD        39.4750    4.3670   56.0790 S.3    49  MET49      -0.1393
     72  CE        37.8300    3.8520   56.5480 C.3    49  MET49       0.0692
     73  N         45.9170    2.2350   61.6210 N.3    52  MET52      -0.1245
     74  CA        45.7090    0.7830   61.6380 C.3    52  MET52       0.1570
     75  C         46.2110    0.0700   60.3840 C.2    52  MET52       0.2261
     76  O         46.0440   -1.1360   60.2610 O.2    52  MET52      -0.2867
     77  CB        44.2330    0.4420   61.8300 C.3    52  MET52       0.0387
     78  CG        43.6010    1.0970   63.0070 C.3    52  MET52       0.0595
     79  SD        44.4990    0.6760   64.5090 S.3    52  MET52      -0.1393
     80  CE        43.8700   -0.9740   64.8090 C.3    52  MET52       0.0692
     81  N         45.1810    0.1380   57.2320 N.3    54  THR54      -0.1218
     82  CA        44.2250   -0.2200   56.1980 C.3    54  THR54       0.1862
     83  C         44.3850    0.7100   55.0040 C.2    54  THR54       0.2287
     84  O         43.9790    0.3750   53.8970 O.2    54  THR54      -0.2866
     85  CB        42.7790   -0.1620   56.7030 C.3    54  THR54       0.1770
     86  OG1       42.5070    1.1560   57.1900 O.3    54  THR54      -0.2211
     87  CG2       42.5520   -1.1630   57.8390 C.3    54  THR54       0.0375
     88  N         43.7780    2.3550   49.5820 N.3    60  LEU60      -0.1245
     89  CA        43.4230    1.2040   50.3980 C.3    60  LEU60       0.1561
     90  C         44.4680    0.1110   50.2580 C.2    60  LEU60       0.2260
     91  O         44.8500   -0.2610   49.1440 O.2    60  LEU60      -0.2867
     92  CB        42.0480    0.6590   50.0110 C.3    60  LEU60       0.0270
     93  CG        41.6260   -0.6260   50.7370 C.3    60  LEU60       0.0019
     94  CD1       41.2180   -0.3450   52.1700 C.3    60  LEU60       0.0001
     95  CD2       40.5180   -1.3220   49.9870 C.3    60  LEU60       0.0001
     96  N         44.2920   -4.6560   55.1360 N.3    65  SER65      -0.1217
     97  CA        42.9700   -4.4500   55.7130 C.3    65  SER65       0.1889
     98  C         42.3570   -5.7670   56.1470 C.2    65  SER65       0.2288
     99  O         41.7740   -5.8550   57.2310 O.2    65  SER65      -0.2866
    100  CB        42.0380   -3.7390   54.7230 C.3    65  SER65       0.2089
    101  OG        42.3830   -2.3600   54.6270 O.3    65  SER65      -0.2183
    102  N         43.9670   -7.0840   59.2930 N.3    68  GLN68      -0.1231
    103  CA        43.5560   -6.3120   60.4710 C.3    68  GLN68       0.1698
    104  C         42.1390   -6.6680   60.9080 C.2    68  GLN68       0.2592
    105  O         41.8740   -6.8070   62.1080 O.2    68  GLN68      -0.2718
    106  CB        43.6380   -4.8080   60.2110 C.3    68  GLN68       0.0381
    107  CG        45.0350   -4.2280   60.1060 C.3    68  GLN68       0.0905
    108  CD        45.7630   -4.1510   61.4340 C.2    68  GLN68       0.2608
    109  OE1       45.6420   -5.0330   62.2800 O.2    68  GLN68      -0.2717
    110  NE2       46.5510   -3.0940   61.6110 N.am   68  GLN68      -0.0878
    111  N         41.2150   -6.7950   59.9460 N.am   69  ILE69      -0.1980
    112  CA        39.8770   -7.2960   60.2830 C.3    69  ILE69       0.1595
    113  C         39.9030   -8.6580   61.0030 C.2    69  ILE69       0.2287
    114  O         39.2260   -8.8330   62.0150 O.2    69  ILE69      -0.2864
    115  CB        38.9800   -7.3620   59.0260 C.3    69  ILE69       0.0276
    116  CG1       38.7540   -5.9600   58.4820 C.3    69  ILE69       0.0022
    117  CG2       37.6540   -8.0920   59.3160 C.3    69  ILE69       0.0022
    118  CD1       38.4040   -5.9790   56.9840 C.3    69  ILE69       0.0001
    119  N         41.6790   -8.1770   64.6780 N.3    72  ILE72      -0.1231
    120  CA        41.0230   -7.3140   65.6590 C.3    72  ILE72       0.1692
    121  C         39.5580   -7.6740   65.9280 C.2    72  ILE72       0.2591
    122  O         39.0760   -7.5510   67.0650 O.2    72  ILE72      -0.2718
    123  CB        41.1340   -5.8410   65.2270 C.3    72  ILE72       0.0266
    124  CG1       42.6110   -5.4250   65.1630 C.3    72  ILE72       0.0019
    125  CG2       40.3840   -4.9300   66.1850 C.3    72  ILE72       0.0020
    126  CD1       42.8370   -4.0360   64.6300 C.3    72  ILE72       0.0001
    127  N         38.8510   -8.1320   64.8950 N.am   73  MET73      -0.1979
    128  CA        37.3960   -8.2810   64.9930 C.3    73  MET73       0.1605
    129  C         36.9510   -9.6940   65.3000 C.2    73  MET73       0.2287
    130  O         37.4670  -10.6500   64.7300 O.2    73  MET73      -0.2864
    131  CB        36.7060   -7.7880   63.7100 C.3    73  MET73       0.0413
    132  CG        37.1090   -6.3650   63.3140 C.3    73  MET73       0.0598
    133  SD        35.9990   -5.7300   62.0180 S.3    73  MET73      -0.1393
    134  CE        34.6100   -5.2430   63.0100 C.3    73  MET73       0.0692
    135  N         32.3180   -7.2250   57.7720 N.3    81  MET81      -0.1245
    136  CA        33.2480   -6.1740   57.3620 C.3    81  MET81       0.1570
    137  C         34.0660   -6.5710   56.1270 C.2    81  MET81       0.2261
    138  O         34.3000   -5.7460   55.2230 O.2    81  MET81      -0.2867
    139  CB        34.1960   -5.7820   58.5140 C.3    81  MET81       0.0387
    140  CG        34.9610   -4.4850   58.2240 C.3    81  MET81       0.0595
    141  SD        33.9870   -2.9640   58.1840 S.3    81  MET81      -0.1393
    142  CE        33.7890   -2.6130   59.9340 C.3    81  MET81       0.0692
    143  N         34.2910   -4.7160   52.5560 N.3    85  LEU85      -0.1245
    144  CA        35.5880   -4.3260   51.9890 C.3    85  LEU85       0.1561
    145  C         35.7160   -4.7690   50.5290 C.2    85  LEU85       0.2260
    146  O         36.3100   -4.0610   49.6960 O.2    85  LEU85      -0.2867
    147  CB        36.7560   -4.9020   52.8010 C.3    85  LEU85       0.0270
    148  CG        38.1330   -4.4770   52.2800 C.3    85  LEU85       0.0019
    149  CD1       38.3660   -3.0320   52.5940 C.3    85  LEU85       0.0001
    150  CD2       39.2550   -5.3270   52.8670 C.3    85  LEU85       0.0001
    151  N         35.2830    5.8850   51.6180 N.3   105  LEU105     -0.1245
    152  CA        35.4390    4.4540   51.9020 C.3   105  LEU105      0.1561
    153  C         34.6250    4.0480   53.1370 C.2   105  LEU105      0.2260
    154  O         33.8820    3.0700   53.1010 O.2   105  LEU105     -0.2867
    155  CB        36.9260    4.0870   52.0070 C.3   105  LEU105      0.0270
    156  CG        37.2120    2.6730   52.5210 C.3   105  LEU105      0.0019
    157  CD1       36.6070    1.6560   51.5560 C.3   105  LEU105      0.0001
    158  CD2       38.7060    2.4460   52.6910 C.3   105  LEU105      0.0001
    159  N         31.5390    1.3420   53.4020 N.3   109  LEU109     -0.1245
    160  CA        31.5330    0.1620   54.2810 C.3   109  LEU109      0.1561
    161  C         30.2880    0.1420   55.1640 C.2   109  LEU109      0.2260
    162  O         29.6890   -0.9140   55.4040 O.2   109  LEU109     -0.2867
    163  CB        32.7980    0.1040   55.1720 C.3   109  LEU109      0.0270
    164  CG        34.1590    0.0140   54.4670 C.3   109  LEU109      0.0019
    165  CD1       35.2370    0.2980   55.4980 C.3   109  LEU109      0.0001
    166  CD2       34.4000   -1.3420   53.8480 C.3   109  LEU109      0.0001
    167  N         30.8070   -1.3560   62.6190 N.3   117  ILE117     -0.1231
    168  CA        31.3370   -0.7740   63.8590 C.3   117  ILE117      0.1692
    169  C         32.6310   -0.0910   63.4650 C.2   117  ILE117      0.2592
    170  O         33.2280   -0.4300   62.4340 O.2   117  ILE117     -0.2718
    171  CB        31.5800   -1.8580   64.9290 C.3   117  ILE117      0.0266
    172  CG1       31.8120   -1.2360   66.3080 C.3   117  ILE117      0.0019
    173  CG2       32.7740   -2.7160   64.5480 C.3   117  ILE117      0.0020
    174  CD1       31.7520   -2.3030   67.4300 C.3   117  ILE117      0.0001
    175  N         33.0650    0.8990   64.2400 N.am  118  PHE118     -0.1963
    176  CA        34.2580    1.6770   63.9020 C.3   118  PHE118      0.1756
    177  C         34.7490    2.2860   65.2150 C.2   118  PHE118      0.2461
    178  O         33.9580    2.5110   66.1210 O.2   118  PHE118     -0.2730
    179  CB        33.9140    2.7870   62.8930 C.3   118  PHE118      0.0574
    180  CG        35.1090    3.4050   62.2250 C.ar  118  PHE118     -0.0200
    181  CD1       35.8070    2.7260   61.2380 C.ar  118  PHE118     -0.0042
    182  CD2       35.5250    4.6880   62.5720 C.ar  118  PHE118     -0.0042
    183  CE1       36.9290    3.3100   60.6370 C.ar  118  PHE118     -0.0003
    184  CE2       36.6270    5.2650   61.9720 C.ar  118  PHE118     -0.0003
    185  CZ        37.3230    4.5790   61.0080 C.ar  118  PHE118     -0.0000
    186  N         36.0590    2.5310   65.3370 N.am  119  PRO119     -0.2727
    187  CA        36.5220    3.0560   66.6270 C.3   119  PRO119      0.1402
    188  C         35.9100    4.4260   66.9470 C.2   119  PRO119      0.2269
    189  O         35.8280    5.3500   66.1110 O.2   119  PRO119     -0.2865
    190  CB        38.0120    3.2280   66.4030 C.3   119  PRO119      0.0296
    191  CG        38.3770    2.2660   65.3350 C.3   119  PRO119      0.0237
    192  CD        37.1720    2.1840   64.4410 C.3   119  PRO119      0.0939
@<TRIPOS>BOND
     1    91    90    2
     2    88    89    1
     3   146   145    2
     4    95    93    1
     5    92    89    1
     6    92    93    1
     7    90    89    1
     8   145   144    1
     9    93    94    1
    10   157   156    1
    11   151   152    1
    12   152   155    1
    13   152   153    1
    14   144   143    1
    15   144   147    1
    16   155   156    1
    17   148   149    1
    18   148   147    1
    19   148   150    1
    20   156   158    1
    21   154   153    2
    22   159   160    1
    23   166   164    1
    24    84    83    2
    25   160   161    1
    26   160   163    1
    27   164   163    1
    28   164   165    1
    29   101   100    1
    30   100    97    1
    31    83    82    1
    32    96    97    1
    33   161   162    2
    34   138   137    2
    35    97    98    1
    36    71    72    1
    37    71    70    1
    38   137   136    1
    39    98    99    2
    40    82    85    1
    41    82    81    1
    42    85    86    1
    43    85    87    1
    44   118   116    1
    45   136   135    1
    46   136   139    1
    47    69    70    1
    48    69    66    1
    49   141   140    1
    50   141   142    1
    51   140   139    1
    52    68    67    2
    53   116   115    1
    54    67    66    1
    55    66    65    1
    56   115   117    1
    57   115   112    1
    58   102   103    1
    59    65    60   am
    60   111   112    1
    61   111   104   am
    62   107   106    1
    63   107   108    1
    64   106   103    1
    65    76    75    2
    66   112   113    1
    67    75    74    1
    68   103   104    1
    69   183   185   ar
    70   183   181   ar
    71   104   105    2
    72   113   114    2
    73   185   184   ar
    74    60    61    2
    75    60    59    1
    76   181   180   ar
    77   108   110   am
    78   108   109    2
    79    73    74    1
    80    74    77    1
    81    58    59    1
    82    77    78    1
    83   184   182   ar
    84   133   134    1
    85   133   132    1
    86    59    62    1
    87   180   182   ar
    88   180   179    1
    89   170   169    2
    90    62    63    1
    91    62    64    1
    92   167   168    1
    93   179   176    1
    94    78    79    1
    95   132   131    1
    96   169   168    1
    97   169   175   am
    98   131   128    1
    99   168   171    1
   100   176   175    1
   101   176   177    1
   102    49    50    2
   103    49    48    1
   104    47    48    1
   105    48    51    1
   106   192   191    1
   107   192   186    1
   108    79    80    1
   109   173   171    1
   110   126   124    1
   111   119   120    1
   112   130   129    2
   113   127   128    1
   114   127   121   am
   115   171   172    1
   116   128   129    1
   117   124   123    1
   118   177   186   am
   119   177   178    2
   120   123   120    1
   121   123   125    1
   122   191   190    1
   123   186   187    1
   124    51    52    1
   125   120   121    1
   126    52    53    1
   127   121   122    2
   128   189   188    2
   129   172   174    1
   130   190   187    1
   131   187   188    1
   132    53    54    1
   133     7     6    1
   134     7     8    1
   135    54    55    2
   136     6     5    1
   137    55    57    1
   138    55    56    1
   139    36    37    1
   140     5     2    1
   141    37    40    1
   142    37    38    1
   143    21    22    1
   144    21    18    1
   145    24    23    1
   146    24    25    1
   147    20    19    2
   148    46    44    1
   149    39    38    2
   150     2     3    1
   151     2     1    1
   152    23    19   am
   153    19    18    1
   154    26    25    2
   155    40    41    1
   156    43    44    2
   157    43    42    1
   158     4     3    2
   159    41    42    1
   160    44    45    1
   161    25    27   am
   162    18    17    1
   163     3     9   am
   164    27    28    1
   165     9    10    1
   166    29    30    2
   167    29    28    1
   168    15    16    1
   169    15    14    1
   170    10    11    1
   171    10    13    1
   172    28    31    1
   173    12    11    2
   174    14    13    1
   175    31    32    1
   176    32    33    1
   177    35    33   ar
   178    33    34   ar
