@<TRIPOS>MOLECULE
tmp/4f7iA03.pdb
 84 78 0 0 0
SMALL
GASTEIGER

@<TRIPOS>ATOM
      1  N         12.4280    3.6070   18.7160 N.3   104  LEU104     -0.1245
      2  CA        12.6000    4.7850   19.5900 C.3   104  LEU104      0.1561
      3  C         12.9360    4.2540   21.0090 C.2   104  LEU104      0.2260
      4  O         12.1500    3.5160   21.6160 O.2   104  LEU104     -0.2867
      5  CB        11.3090    5.5970   19.6310 C.3   104  LEU104      0.0270
      6  CG        10.6990    6.0330   18.2900 C.3   104  LEU104      0.0019
      7  CD1        9.5030    6.9740   18.5010 C.3   104  LEU104      0.0001
      8  CD2       11.7050    6.6480   17.3400 C.3   104  LEU104      0.0001
      9  N         14.0790    5.9430   24.4780 N.3   106  PRO106     -0.2116
     10  CA        14.3680    7.1830   25.2230 C.3   106  PRO106      0.1372
     11  C         14.9900    6.8150   26.5510 C.2   106  PRO106      0.2244
     12  O         14.7500    5.6840   27.0890 O.2   106  PRO106     -0.2868
     13  CB        12.9770    7.8080   25.4310 C.3   106  PRO106      0.0268
     14  CG        12.0430    6.6200   25.4070 C.3   106  PRO106      0.0207
     15  CD        12.6410    5.6410   24.4520 C.3   106  PRO106      0.0892
     16  N         15.7820    9.1540   30.0910 N.3   108  LYS108     -0.1245
     17  CA        15.5950   10.4380   30.7200 C.3   108  LYS108      0.1561
     18  C         15.9180   10.2580   32.1870 C.2   108  LYS108      0.2260
     19  O         15.6370    9.1900   32.7410 O.2   108  LYS108     -0.2867
     20  CB        14.0850   10.8160   30.6000 C.3   108  LYS108      0.0271
     21  CG        13.7820   12.2660   30.7800 C.3   108  LYS108      0.0035
     22  CD        12.2700   12.5500   30.7610 C.3   108  LYS108      0.0206
     23  CE        11.4880   11.5230   29.9220 C.3   108  LYS108      0.1093
     24  NZ         9.9990   11.7950   29.7720 N.3   108  LYS108     -0.1314
     25  N         16.9470   10.7360   23.2190 N.3   130  LEU130     -0.1245
     26  CA        16.1720    9.7980   22.4590 C.3   130  LEU130      0.1561
     27  C         17.0590    9.1120   21.4400 C.2   130  LEU130      0.2260
     28  O         17.5620    9.7750   20.5000 O.2   130  LEU130     -0.2867
     29  CB        14.9720   10.4710   21.7640 C.3   130  LEU130      0.0270
     30  CG        14.1820    9.5480   20.7920 C.3   130  LEU130      0.0019
     31  CD1       13.4680    8.3440   21.4720 C.3   130  LEU130      0.0001
     32  CD2       13.0960   10.3720   20.0590 C.3   130  LEU130      0.0001
     33  N         11.6900   13.8210   14.9420 N.3   173  ALA173     -0.1245
     34  CA        11.6760   13.7170   16.4170 C.3   173  ALA173      0.1562
     35  C         12.3970   14.9380   17.0410 C.2   173  ALA173      0.2260
     36  O         11.9180   15.5050   18.0200 O.2   173  ALA173     -0.2867
     37  CB        12.3160   12.3800   16.8950 C.3   173  ALA173      0.0290
     38  N         10.4430   18.0200   17.3340 N.3   176  LYS176     -0.1231
     39  CA         9.4820   18.0160   18.4430 C.3   176  LYS176      0.1693
     40  C         10.1890   18.1430   19.8090 C.2   176  LYS176      0.2591
     41  O          9.5580   18.2660   20.8440 O.2   176  LYS176     -0.2718
     42  CB         8.5620   16.7910   18.3460 C.3   176  LYS176      0.0285
     43  CG         7.6170   16.9300   17.1510 C.3   176  LYS176      0.0035
     44  CD         6.5360   15.8650   17.1020 C.3   176  LYS176      0.0206
     45  CE         7.1170   14.4760   16.9310 C.3   176  LYS176      0.1093
     46  NZ         6.0620   13.4800   16.5760 N.3   176  LYS176     -0.1314
     47  N         11.5180   18.1190   19.8170 N.am  177  ARG177     -0.1980
     48  CA        12.2230   18.0180   21.0690 C.3   177  ARG177      0.1597
     49  C         13.1120   19.2390   21.1160 C.2   177  ARG177      0.2287
     50  O         12.5960   20.3470   21.1560 O.2   177  ARG177     -0.2864
     51  CB        13.0030   16.6890   21.1910 C.3   177  ARG177      0.0334
     52  CG        12.0960   15.4280   21.3400 C.3   177  ARG177      0.0492
     53  CD        12.9130   14.1300   21.1630 C.3   177  ARG177      0.2205
     54  NE        14.0980   14.1800   22.0280 N.pl3 177  ARG177     -0.0865
     55  CZ        14.1400   13.7550   23.2940 C.cat 177  ARG177      0.5346
     56  NH1       13.0860   13.1480   23.8600 N.pl3 177  ARG177      0.1354
     57  NH2       15.2710   13.8870   23.9950 N.pl3 177  ARG177      0.1354
     58  N          4.2440    4.3190   26.1880 N.3   297  MET297     -0.1245
     59  CA         4.5870    4.6750   24.7930 C.3   297  MET297      0.1570
     60  C          3.4810    4.1720   23.8360 C.2   297  MET297      0.2261
     61  O          3.1630    4.8060   22.8560 O.2   297  MET297     -0.2867
     62  CB         5.9770    4.1300   24.4070 C.3   297  MET297      0.0387
     63  CG         7.1290    4.8330   25.1310 C.3   297  MET297      0.0595
     64  SD         8.7540    4.2280   24.4610 S.3   297  MET297     -0.1393
     65  CE         9.0200    5.2130   23.0080 C.3   297  MET297      0.0692
     66  N          0.6340    6.5360   23.9570 N.3   300  GLU300     -0.1231
     67  CA         0.9380    7.7900   23.2270 C.3   300  GLU300      0.1699
     68  C          1.0010    7.5960   21.6700 C.2   300  GLU300      0.2592
     69  O          0.2510    8.2220   20.9280 O.2   300  GLU300     -0.2718
     70  CB         2.2360    8.4200   23.7180 C.3   300  GLU300      0.0402
     71  CG         2.6590    9.6210   22.8990 C.3   300  GLU300      0.1161
     72  CD         3.8160   10.3930   23.5370 C.2   300  GLU300      0.3649
     73  OE1        4.1350   10.1630   24.7350 O.co2 300  GLU300     -0.2457
     74  OE2        4.4080   11.2360   22.8300 O.co2 300  GLU300     -0.2457
     75  N          1.8570    6.6860   21.2280 N.am  301  HIS301     -0.1976
     76  CA         2.2050    6.5310   19.8100 C.3   301  HIS301      0.1656
     77  C          1.1980    5.7460   19.0080 C.2   301  HIS301      0.2291
     78  O          0.9940    6.0430   17.8390 O.2   301  HIS301     -0.2864
     79  CB         3.5820    5.8670   19.6850 C.3   301  HIS301      0.0771
     80  CG         4.7050    6.7570   20.1720 C.ar  301  HIS301      0.0820
     81  ND1        5.1220    7.8310   19.4530 N.ar  301  HIS301     -0.2267
     82  CD2        5.4260    6.7820   21.3920 C.ar  301  HIS301      0.1154
     83  CE1        6.0740    8.5130   20.1590 C.ar  301  HIS301      0.1986
     84  NE2        6.2670    7.8630   21.3400 N.ar  301  HIS301     -0.2212
@<TRIPOS>BOND
     1    33    34    1
     2    34    37    1
     3    34    35    1
     4    46    45    1
     5    45    44    1
     6    35    36    2
     7    44    43    1
     8    43    42    1
     9    38    39    1
    10     8     6    1
    11    78    77    2
    12     6     7    1
    13     6     5    1
    14    42    39    1
    15    39    40    1
    16     1     2    1
    17    77    76    1
    18    81    83   ar
    19    81    80   ar
    20     2     5    1
    21     2     3    1
    22    79    76    1
    23    79    80    1
    24    40    47   am
    25    40    41    2
    26    76    75    1
    27    47    48    1
    28    32    30    1
    29    83    84   ar
    30    80    82   ar
    31    28    27    2
    32    30    31    1
    33    30    29    1
    34    69    68    2
    35     3     4    2
    36    48    49    1
    37    48    51    1
    38    49    50    2
    39    53    52    1
    40    53    54    1
    41    51    52    1
    42    75    68   am
    43    84    82   ar
    44    27    26    1
    45    68    67    1
    46    29    26    1
    47    54    55    2
    48    26    25    1
    49    74    72   ar
    50    61    60    2
    51    71    72    1
    52    71    70    1
    53    65    64    1
    54    67    70    1
    55    67    66    1
    56    55    56    1
    57    55    57    1
    58    72    73   ar
    59    60    59    1
    60    62    59    1
    61    62    63    1
    62    15     9    1
    63    15    14    1
    64    64    63    1
    65     9    10    1
    66    59    58    1
    67    10    13    1
    68    10    11    1
    69    14    13    1
    70    11    12    2
    71    24    23    1
    72    23    22    1
    73    16    17    1
    74    20    17    1
    75    20    21    1
    76    17    18    1
    77    22    21    1
    78    18    19    2
