@<TRIPOS>MOLECULE
tmp/4f7jA00.pdb
 166 157 0 0 0
SMALL
GASTEIGER

@<TRIPOS>ATOM
      1  N          4.8160  -20.8360  147.5020 N.3    32  TYR32      -0.1241
      2  CA         4.8240  -21.9040  148.5070 C.3    32  TYR32       0.1605
      3  C          4.8750  -23.3140  147.8790 C.2    32  TYR32       0.2264
      4  O          5.1100  -24.2990  148.5910 O.2    32  TYR32      -0.2867
      5  CB         3.5820  -21.8230  149.4040 C.3    32  TYR32       0.0534
      6  CG         3.3100  -20.4790  150.0530 C.ar   32  TYR32      -0.0201
      7  CD1        4.2610  -19.8640  150.8770 C.ar   32  TYR32      -0.0009
      8  CD2        2.0810  -19.8330  149.8670 C.ar   32  TYR32      -0.0009
      9  CE1        3.9990  -18.6250  151.4840 C.ar   32  TYR32       0.0417
     10  CE2        1.8090  -18.6030  150.4690 C.ar   32  TYR32       0.0417
     11  CZ         2.7680  -18.0060  151.2760 C.ar   32  TYR32       0.1957
     12  OH         2.4840  -16.7970  151.8670 O.3    32  TYR32      -0.2866
     13  N          0.5750  -26.4580  142.3520 N.3    35  VAL35      -0.1245
     14  CA        -0.7880  -26.9670  142.5750 C.3    35  VAL35       0.1561
     15  C         -1.3090  -27.7510  141.3610 C.2    35  VAL35       0.2260
     16  O         -1.2270  -27.2650  140.2290 O.2    35  VAL35      -0.2867
     17  CB        -1.7660  -25.8090  142.8460 C.3    35  VAL35       0.0252
     18  CG1       -3.1370  -26.3340  143.2350 C.3    35  VAL35       0.0019
     19  CG2       -1.2310  -24.9070  143.9250 C.3    35  VAL35       0.0019
     20  N         -1.4880  -30.1120  146.3440 N.3    52  LYS52      -0.1245
     21  CA        -0.3980  -29.1340  146.5160 C.3    52  LYS52       0.1561
     22  C          0.8660  -29.8410  146.9880 C.2    52  LYS52       0.2260
     23  O          0.8380  -30.5110  148.0140 O.2    52  LYS52      -0.2867
     24  CB        -0.8140  -28.0800  147.5440 C.3    52  LYS52       0.0271
     25  CG         0.1570  -26.9130  147.7320 C.3    52  LYS52       0.0035
     26  CD        -0.1900  -26.0840  148.9950 C.3    52  LYS52       0.0206
     27  CE         0.7980  -24.9450  149.1730 C.3    52  LYS52       0.1093
     28  NZ         0.4340  -24.0020  150.2320 N.3    52  LYS52      -0.1314
     29  N          6.8870  -22.7190  156.8440 N.3    62  SER62      -0.1217
     30  CA         5.7820  -22.6860  155.8840 C.3    62  SER62       0.1889
     31  C          4.9040  -23.9280  155.9430 C.2    62  SER62       0.2288
     32  O          3.6930  -23.8200  156.0780 O.2    62  SER62      -0.2866
     33  CB         6.3290  -22.5490  154.4590 C.3    62  SER62       0.2089
     34  OG         7.0100  -21.3220  154.2930 O.3    62  SER62      -0.2183
     35  N          3.3490  -24.4140  159.5930 N.3    65  ARG65      -0.1231
     36  CA         2.2880  -23.4060  159.7740 C.3    65  ARG65       0.1694
     37  C          0.9790  -23.7680  159.0430 C.2    65  ARG65       0.2591
     38  O         -0.1010  -23.6920  159.6320 O.2    65  ARG65      -0.2718
     39  CB         2.7580  -22.0060  159.3170 C.3    65  ARG65       0.0321
     40  CG         1.6920  -20.9100  159.5260 C.3    65  ARG65       0.0489
     41  CD         2.1500  -19.4930  159.2110 C.3    65  ARG65       0.2205
     42  NE         1.0440  -18.5590  159.4720 N.pl3  65  ARG65      -0.0865
     43  CZ         0.2530  -17.9800  158.5600 C.cat  65  ARG65       0.5346
     44  NH1        0.4170  -18.1650  157.2420 N.pl3  65  ARG65       0.1354
     45  NH2       -0.7170  -17.1720  158.9780 N.pl3  65  ARG65       0.1354
     46  N          1.0900  -24.1420  157.7690 N.am   66  GLU66      -0.1979
     47  CA        -0.0790  -24.4330  156.9400 C.3    66  GLU66       0.1602
     48  C         -0.7940  -25.6830  157.4290 C.2    66  GLU66       0.2287
     49  O         -2.0120  -25.6720  157.6060 O.2    66  GLU66      -0.2864
     50  CB         0.3130  -24.6100  155.4680 C.3    66  GLU66       0.0415
     51  CG        -0.8750  -24.7390  154.5220 C.3    66  GLU66       0.1163
     52  CD        -0.4710  -24.7090  153.0540 C.2    66  GLU66       0.3649
     53  OE1        0.6860  -25.0570  152.7270 O.co2  66  GLU66      -0.2457
     54  OE2       -1.3160  -24.3460  152.2110 O.co2  66  GLU66      -0.2457
     55  N         -2.5040  -25.0630  161.0400 N.3    69  LEU69      -0.1231
     56  CA        -3.6500  -24.1690  161.0350 C.3    69  LEU69       0.1693
     57  C         -4.8340  -24.8370  160.3360 C.2    69  LEU69       0.2591
     58  O         -5.8790  -25.0620  160.9570 O.2    69  LEU69      -0.2718
     59  CB        -3.2780  -22.8580  160.3390 C.3    69  LEU69       0.0284
     60  CG        -4.0460  -21.6060  160.7010 C.3    69  LEU69       0.0019
     61  CD1       -3.6880  -21.1320  162.1180 C.3    69  LEU69       0.0001
     62  CD2       -3.6990  -20.5560  159.6690 C.3    69  LEU69       0.0001
     63  N         -4.6460  -25.2050  159.0670 N.am   70  LEU70      -0.1980
     64  CA        -5.7420  -25.7470  158.2440 C.3    70  LEU70       0.1596
     65  C         -6.2790  -27.1150  158.6840 C.2    70  LEU70       0.2287
     66  O         -7.3710  -27.5130  158.2700 O.2    70  LEU70      -0.2864
     67  CB        -5.3490  -25.8000  156.7650 C.3    70  LEU70       0.0297
     68  CG        -5.4430  -24.4260  156.1020 C.3    70  LEU70       0.0022
     69  CD1       -4.2160  -23.5400  156.4160 C.3    70  LEU70       0.0001
     70  CD2       -5.6240  -24.5930  154.6100 C.3    70  LEU70       0.0001
     71  N         -9.0370  -25.6950  161.0850 N.3    73  LEU73      -0.1245
     72  CA       -10.0230  -24.7420  160.5990 C.3    73  LEU73       0.1561
     73  C        -11.1450  -25.4380  159.8370 C.2    73  LEU73       0.2260
     74  O        -10.8870  -26.3230  159.0120 O.2    73  LEU73      -0.2867
     75  CB        -9.3660  -23.6830  159.7160 C.3    73  LEU73       0.0270
     76  CG        -8.3980  -22.7100  160.3920 C.3    73  LEU73       0.0019
     77  CD1       -7.7160  -21.8700  159.3020 C.3    73  LEU73       0.0001
     78  CD2       -9.1030  -21.8140  161.4080 C.3    73  LEU73       0.0001
     79  N        -13.9830  -20.9630  154.1220 N.3    78  VAL78      -0.1231
     80  CA       -12.5360  -21.0740  154.1870 C.3    78  VAL78       0.1692
     81  C        -12.2130  -22.3800  153.5070 C.2    78  VAL78       0.2591
     82  O        -12.9440  -23.3580  153.6780 O.2    78  VAL78      -0.2718
     83  CB       -12.0130  -21.0930  155.6560 C.3    78  VAL78       0.0266
     84  CG1      -10.5170  -21.3560  155.6960 C.3    78  VAL78       0.0020
     85  CG2      -12.3200  -19.7750  156.3480 C.3    78  VAL78       0.0020
     86  N        -11.1270  -22.4050  152.7410 N.am   79  ILE79      -0.1980
     87  CA       -10.7570  -23.5980  151.9770 C.3    79  ILE79       0.1595
     88  C        -10.3520  -24.6960  152.9590 C.2    79  ILE79       0.2287
     89  O         -9.7820  -24.4040  154.0110 O.2    79  ILE79      -0.2864
     90  CB        -9.6260  -23.2970  150.9490 C.3    79  ILE79       0.0276
     91  CG1       -9.6040  -24.3530  149.8340 C.3    79  ILE79       0.0022
     92  CG2       -8.2760  -23.1680  151.6470 C.3    79  ILE79       0.0022
     93  CD1       -8.4240  -24.2210  148.8970 C.3    79  ILE79       0.0001
     94  N         -6.5900  -30.5020  148.8500 N.3    97  PHE97      -0.1241
     95  CA        -7.6940  -29.5660  149.0430 C.3    97  PHE97       0.1605
     96  C         -8.8300  -29.8890  148.0850 C.2    97  PHE97       0.2264
     97  O         -8.6500  -30.6430  147.1120 O.2    97  PHE97      -0.2867
     98  CB        -7.2130  -28.1390  148.7980 C.3    97  PHE97       0.0534
     99  CG        -6.0830  -27.7200  149.6950 C.ar   97  PHE97      -0.0203
    100  CD1       -6.3380  -27.2300  150.9710 C.ar   97  PHE97      -0.0042
    101  CD2       -4.7600  -27.8220  149.2680 C.ar   97  PHE97      -0.0042
    102  CE1       -5.2920  -26.8380  151.8120 C.ar   97  PHE97      -0.0003
    103  CE2       -3.7040  -27.4400  150.1040 C.ar   97  PHE97      -0.0003
    104  CZ        -3.9730  -26.9440  151.3800 C.ar   97  PHE97      -0.0000
    105  N        -12.1720  -16.7080  160.6490 N.3   133  LEU133     -0.1245
    106  CA       -10.7150  -16.6650  160.8520 C.3   133  LEU133      0.1561
    107  C        -10.3340  -15.6400  161.9170 C.2   133  LEU133      0.2260
    108  O         -9.4660  -15.8880  162.7520 O.2   133  LEU133     -0.2867
    109  CB        -9.9810  -16.3640  159.5270 C.3   133  LEU133      0.0270
    110  CG       -10.0870  -17.4330  158.4260 C.3   133  LEU133      0.0019
    111  CD1       -9.6120  -16.9100  157.0740 C.3   133  LEU133      0.0001
    112  CD2       -9.3200  -18.6940  158.8040 C.3   133  LEU133      0.0001
    113  N         -6.9290  -15.5400  163.4070 N.3   138  VAL138     -0.1231
    114  CA        -6.1970  -15.9530  162.2130 C.3   138  VAL138      0.1692
    115  C         -6.3610  -14.7930  161.2570 C.2   138  VAL138      0.2592
    116  O         -7.4790  -14.4990  160.8360 O.2   138  VAL138     -0.2718
    117  CB        -6.7510  -17.2620  161.6160 C.3   138  VAL138      0.0266
    118  CG1       -6.2250  -17.5040  160.2090 C.3   138  VAL138      0.0020
    119  CG2       -6.3860  -18.4380  162.5170 C.3   138  VAL138      0.0020
    120  N         -5.2640  -14.0850  160.9970 N.am  139  LEU139     -0.1966
    121  CA        -5.2380  -13.0150  160.0070 C.3   139  LEU139      0.1728
    122  C         -4.7850  -13.5720  158.6590 C.2   139  LEU139      0.2616
    123  O         -3.8930  -14.4260  158.6090 O.2   139  LEU139     -0.2715
    124  CB        -4.2990  -11.8950  160.4530 C.3   139  LEU139      0.0311
    125  CG        -4.5470  -11.3430  161.8620 C.3   139  LEU139      0.0022
    126  CD1       -3.6370  -10.1370  162.0940 C.3   139  LEU139      0.0001
    127  CD2       -6.0050  -10.9750  162.0850 C.3   139  LEU139      0.0001
    128  N         -5.4090  -13.0940  157.5780 N.am  140  HIS140     -0.1973
    129  CA        -5.0980  -13.5850  156.2230 C.3   140  HIS140      0.1656
    130  C         -3.7830  -13.0100  155.7580 C.2   140  HIS140      0.2291
    131  O         -2.9020  -13.7570  155.3340 O.2   140  HIS140     -0.2864
    132  CB        -6.1970  -13.2320  155.2340 C.3   140  HIS140      0.0771
    133  CG        -6.0270  -13.8810  153.9030 C.ar  140  HIS140      0.0820
    134  ND1       -5.1320  -13.4200  152.9600 N.ar  140  HIS140     -0.2267
    135  CD2       -6.6230  -14.9670  153.3590 C.ar  140  HIS140      0.1154
    136  CE1       -5.1840  -14.1960  151.8930 C.ar  140  HIS140      0.1986
    137  NE2       -6.0870  -15.1370  152.1070 N.ar  140  HIS140     -0.2212
    138  N        -12.1070  -19.0440  150.7460 N.3   162  ILE162     -0.1231
    139  CA       -10.9610  -18.1570  150.9380 C.3   162  ILE162      0.1692
    140  C         -9.7240  -19.0210  151.0640 C.2   162  ILE162      0.2592
    141  O         -9.7280  -19.9880  151.8020 O.2   162  ILE162     -0.2718
    142  CB       -11.1330  -17.2430  152.1650 C.3   162  ILE162      0.0266
    143  CG1      -12.2530  -16.2350  151.9040 C.3   162  ILE162      0.0019
    144  CG2       -9.8470  -16.4500  152.4770 C.3   162  ILE162      0.0020
    145  CD1      -12.5080  -15.2950  153.0730 C.3   162  ILE162      0.0001
    146  N         -8.6750  -18.6590  150.3320 N.am  163  ALA163     -0.1966
    147  CA        -7.4260  -19.4200  150.2680 C.3   163  ALA163      0.1728
    148  C         -6.2280  -18.4980  150.4710 C.2   163  ALA163      0.2616
    149  O         -6.3970  -17.3320  150.7910 O.2   163  ALA163     -0.2715
    150  CB        -7.3230  -20.0970  148.9180 C.3   163  ALA163      0.0334
    151  N         -5.0250  -19.0470  150.2990 N.am  164  ASP164     -0.1957
    152  CA        -3.7920  -18.2680  150.1940 C.3   164  ASP164      0.1840
    153  C         -2.8180  -19.0060  149.2670 C.2   164  ASP164      0.2621
    154  O         -2.0960  -19.9010  149.6920 O.2   164  ASP164     -0.2715
    155  CB        -3.1810  -18.0490  151.5840 C.3   164  ASP164      0.1450
    156  CG        -2.0670  -16.9960  151.5960 C.2   164  ASP164      0.3671
    157  OD1       -1.6220  -16.5080  150.5290 O.co2 164  ASP164     -0.2456
    158  OD2       -1.6440  -16.6440  152.7110 O.co2 164  ASP164     -0.2456
    159  N         -2.8180  -18.6270  147.9930 N.am  165  MET165     -0.1977
    160  CA        -1.9770  -19.2770  146.9820 C.3   165  MET165      0.1605
    161  C         -0.5000  -18.9120  147.1530 C.2   165  MET165      0.2287
    162  O          0.3710  -19.7640  146.9840 O.2   165  MET165     -0.2864
    163  CB        -2.4290  -18.9030  145.5580 C.3   165  MET165      0.0413
    164  CG        -3.9370  -19.0240  145.2810 C.3   165  MET165      0.0598
    165  SD        -4.7180  -20.5690  145.7960 S.3   165  MET165     -0.1393
    166  CE        -4.1350  -21.6600  144.5060 C.3   165  MET165      0.0692
@<TRIPOS>BOND
     1    16    15    2
     2    15    14    1
     3    13    14    1
     4    14    17    1
     5    17    18    1
     6    17    19    1
     7   166   165    1
     8   164   163    1
     9   164   165    1
    10   163   160    1
    11    20    21    1
    12    21    22    1
    13    21    24    1
    14   160   161    1
    15   160   159    1
    16   162   161    2
    17    22    23    2
    18    97    96    2
    19     1     2    1
    20    24    25    1
    21    25    26    1
    22     3     2    1
    23     3     4    2
    24   159   153   am
    25    96    95    1
    26     2     5    1
    27    98    95    1
    28    98    99    1
    29    94    95    1
    30    93    91    1
    31   150   147    1
    32    26    27    1
    33    27    28    1
    34   153   154    2
    35   153   152    1
    36   101    99   ar
    37   101   103   ar
    38     5     6    1
    39    99   100   ar
    40    91    90    1
    41     8     6   ar
    42     8    10   ar
    43     6     7   ar
    44   103   104   ar
    45   152   151    1
    46   152   155    1
    47   147   146    1
    48   147   148    1
    49   151   148   am
    50   146   140   am
    51    10    11   ar
    52   148   149    2
    53   157   156   ar
    54   138   139    1
    55     7     9   ar
    56   139   140    1
    57   139   142    1
    58    90    92    1
    59    90    87    1
    60   100   102   ar
    61   140   141    2
    62    11     9   ar
    63    11    12    1
    64   104   102   ar
    65   155   156    1
    66   156   158   ar
    67   136   137   ar
    68   136   134   ar
    69   143   142    1
    70   143   145    1
    71    87    86    1
    72    87    88    1
    73   137   135   ar
    74   142   144    1
    75    54    52   ar
    76    53    52   ar
    77    86    81   am
    78    88    89    2
    79   134   133   ar
    80    52    51    1
    81   135   133   ar
    82    81    82    2
    83    81    80    1
    84   133   132    1
    85    79    80    1
    86    80    83    1
    87    34    33    1
    88    33    30    1
    89    51    50    1
    90    70    68    1
    91   132   129    1
    92   131   130    2
    93    50    47    1
    94    83    84    1
    95    83    85    1
    96   130   129    1
    97    30    31    1
    98    30    29    1
    99    31    32    2
   100    68    69    1
   101    68    67    1
   102   129   128    1
   103    67    64    1
   104    47    48    1
   105    47    46    1
   106   111   110    1
   107    44    43    1
   108    48    49    2
   109   128   122   am
   110    46    37   am
   111    64    65    1
   112    64    63    1
   113    66    65    2
   114   110   112    1
   115   110   109    1
   116    43    45    1
   117    43    42    2
   118   123   122    2
   119   122   121    1
   120    74    73    2
   121    37    38    2
   122    37    36    1
   123    63    57   am
   124    41    42    1
   125    41    40    1
   126    77    76    1
   127    39    40    1
   128    39    36    1
   129   109   106    1
   130    35    36    1
   131    62    60    1
   132    75    76    1
   133    75    72    1
   134    73    72    1
   135   121   124    1
   136   121   120    1
   137   118   117    1
   138    57    58    2
   139    57    56    1
   140    59    60    1
   141    59    56    1
   142    76    78    1
   143   124   125    1
   144    72    71    1
   145   105   106    1
   146    60    61    1
   147   116   115    2
   148   106   107    1
   149   120   115   am
   150    56    55    1
   151   115   114    1
   152   117   114    1
   153   117   119    1
   154   125   127    1
   155   125   126    1
   156   107   108    2
   157   114   113    1
