@<TRIPOS>MOLECULE
tmp/4f7lA00.pdb
 234 221 0 0 0
SMALL
GASTEIGER

@<TRIPOS>ATOM
      1  N         37.9040   62.4370  132.2330 N.3    29  VAL29      -0.1231
      2  CA        38.8190   61.2770  132.1290 C.3    29  VAL29       0.1692
      3  C         38.2910   59.9690  132.7270 C.2    29  VAL29       0.2592
      4  O         38.9220   58.9210  132.5780 O.2    29  VAL29      -0.2718
      5  CB        40.1930   61.5990  132.7480 C.3    29  VAL29       0.0266
      6  CG1       40.8490   62.7190  131.9580 C.3    29  VAL29       0.0020
      7  CG2       40.0650   61.9730  134.2160 C.3    29  VAL29       0.0020
      8  N         37.1370   60.0280  133.3850 N.am   30  GLY30      -0.1957
      9  CA        36.5310   58.8460  133.9860 C.3    30  GLY30       0.1869
     10  C         35.1130   59.1200  134.4450 C.2    30  GLY30       0.2309
     11  O         34.8310   60.1910  134.9830 O.2    30  GLY30      -0.2863
     12  N         30.9270   56.5390  141.8200 N.3    34  TYR34      -0.1241
     13  CA        31.2580   57.5470  142.8430 C.3    34  TYR34       0.1605
     14  C         31.5570   58.9670  142.3210 C.2    34  TYR34       0.2264
     15  O         31.9750   59.8230  143.1070 O.2    34  TYR34      -0.2867
     16  CB        32.4420   57.0490  143.6920 C.3    34  TYR34       0.0534
     17  CG        31.9970   55.9100  144.6370 C.ar   34  TYR34      -0.0201
     18  CD1       31.8610   54.6220  144.1390 C.ar   34  TYR34      -0.0009
     19  CD2       31.7520   56.1150  145.9900 C.ar   34  TYR34      -0.0009
     20  CE1       31.4960   53.5710  144.9580 C.ar   34  TYR34       0.0417
     21  CE2       31.3870   55.0700  146.8180 C.ar   34  TYR34       0.0417
     22  CZ        31.2600   53.8010  146.2970 C.ar   34  TYR34       0.1957
     23  OH        30.8970   52.7570  147.1170 O.3    34  TYR34      -0.2866
     24  N         35.2760   62.2650  136.8690 N.3    37  VAL37      -0.1245
     25  CA        36.6300   62.7890  137.1010 C.3    37  VAL37       0.1561
     26  C         37.1400   63.5310  135.8750 C.2    37  VAL37       0.2260
     27  O         37.1250   62.9780  134.7700 O.2    37  VAL37      -0.2867
     28  CB        37.6300   61.6670  137.3930 C.3    37  VAL37       0.0252
     29  CG1       38.9720   62.2580  137.7820 C.3    37  VAL37       0.0019
     30  CG2       37.1050   60.7590  138.4960 C.3    37  VAL37       0.0019
     31  N         43.5650   65.7970  139.1370 N.3    52  ALA52      -0.1245
     32  CA        42.3220   65.0340  139.0210 C.3    52  ALA52       0.1562
     33  C         41.2530   65.7740  139.8050 C.2    52  ALA52       0.2260
     34  O         41.3510   65.8670  141.0260 O.2    52  ALA52      -0.2867
     35  CB        42.4940   63.6290  139.5740 C.3    52  ALA52       0.0290
     36  N         37.3800   65.8480  140.8450 N.3    54  LYS54      -0.1245
     37  CA        36.3020   64.8530  140.9380 C.3    54  LYS54       0.1561
     38  C         35.0070   65.4240  141.4960 C.2    54  LYS54       0.2260
     39  O         34.9510   65.7830  142.6760 O.2    54  LYS54      -0.2867
     40  CB        36.7480   63.6940  141.8390 C.3    54  LYS54       0.0271
     41  CG        35.6420   62.6850  142.2140 C.3    54  LYS54       0.0035
     42  CD        36.2420   61.4140  142.8230 C.3    54  LYS54       0.0206
     43  CE        35.3520   60.8040  143.8930 C.3    54  LYS54       0.1093
     44  NZ        36.0390   59.6810  144.5380 N.3    54  LYS54      -0.1314
     45  N         28.9140   58.4920  151.5210 N.3    64  SER64      -0.1217
     46  CA        30.1160   58.3010  150.7220 C.3    64  SER64       0.1889
     47  C         30.9740   59.5570  150.6260 C.2    64  SER64       0.2288
     48  O         32.2020   59.4620  150.6390 O.2    64  SER64      -0.2866
     49  CB        29.7670   57.7760  149.3450 C.3    64  SER64       0.2089
     50  OG        29.4640   56.4040  149.4670 O.3    64  SER64      -0.2183
     51  N         32.6030   60.0110  154.3050 N.3    67  ARG67      -0.1231
     52  CA        33.7170   59.0550  154.4790 C.3    67  ARG67       0.1694
     53  C         34.9660   59.4450  153.7120 C.2    67  ARG67       0.2591
     54  O         36.0150   59.6210  154.3160 O.2    67  ARG67      -0.2718
     55  CB        33.3240   57.6390  154.0500 C.3    67  ARG67       0.0321
     56  CG        34.4600   56.5840  154.1790 C.3    67  ARG67       0.0489
     57  CD        33.9800   55.1560  153.8330 C.3    67  ARG67       0.2205
     58  NE        35.0450   54.3140  153.2610 N.pl3  67  ARG67      -0.0865
     59  CZ        36.0210   53.7080  153.9460 C.cat  67  ARG67       0.5346
     60  NH1       36.1190   53.8250  155.2770 N.pl3  67  ARG67       0.1354
     61  NH2       36.9180   52.9690  153.2870 N.pl3  67  ARG67       0.1354
     62  N         34.8560   59.5640  152.3880 N.am   68  GLU68      -0.1979
     63  CA        36.0190   59.8700  151.5350 C.3    68  GLU68       0.1602
     64  C         36.7570   61.0830  152.0480 C.2    68  GLU68       0.2287
     65  O         37.9830   61.0650  152.1460 O.2    68  GLU68      -0.2864
     66  CB        35.6230   60.1070  150.0740 C.3    68  GLU68       0.0415
     67  CG        36.8300   60.2950  149.1300 C.3    68  GLU68       0.1163
     68  CD        36.4770   60.2500  147.6370 C.2    68  GLU68       0.3649
     69  OE1       35.2770   60.2030  147.2740 O.co2  68  GLU68      -0.2457
     70  OE2       37.4260   60.2620  146.8170 O.co2  68  GLU68      -0.2457
     71  N         38.5440   60.5520  155.7720 N.3    71  LEU71      -0.1231
     72  CA        39.7970   59.7930  155.7910 C.3    71  LEU71       0.1693
     73  C         40.9510   60.5110  155.1090 C.2    71  LEU71       0.2591
     74  O         41.9780   60.7660  155.7280 O.2    71  LEU71      -0.2718
     75  CB        39.6340   58.4410  155.0880 C.3    71  LEU71       0.0284
     76  CG        38.9390   57.2940  155.7890 C.3    71  LEU71       0.0019
     77  CD1       38.8740   56.1220  154.8180 C.3    71  LEU71       0.0001
     78  CD2       39.6760   56.9120  157.0540 C.3    71  LEU71       0.0001
     79  N         40.7890   60.8120  153.8250 N.am   72  LEU72      -0.1980
     80  CA        41.8690   61.4050  153.0400 C.3    72  LEU72       0.1596
     81  C         42.3480   62.7570  153.5610 C.2    72  LEU72       0.2287
     82  O         43.4850   63.1660  153.3060 O.2    72  LEU72      -0.2864
     83  CB        41.4730   61.5200  151.5710 C.3    72  LEU72       0.0297
     84  CG        41.6180   60.1700  150.8830 C.3    72  LEU72       0.0022
     85  CD1       40.3160   59.3760  150.9560 C.3    72  LEU72       0.0001
     86  CD2       42.0720   60.3810  149.4660 C.3    72  LEU72       0.0001
     87  N         45.1620   61.3530  155.8340 N.3    75  LEU75      -0.1245
     88  CA        46.1640   60.3940  155.3850 C.3    75  LEU75       0.1561
     89  C         47.2720   61.0900  154.6360 C.2    75  LEU75       0.2260
     90  O         46.9890   61.8600  153.7340 O.2    75  LEU75      -0.2867
     91  CB        45.5340   59.3310  154.4790 C.3    75  LEU75       0.0270
     92  CG        44.4520   58.4570  155.1250 C.3    75  LEU75       0.0019
     93  CD1       43.6480   57.7360  154.0800 C.3    75  LEU75       0.0001
     94  CD2       45.0700   57.4880  156.0920 C.3    75  LEU75       0.0001
     95  N         49.7690   56.6270  148.9860 N.3    80  VAL80      -0.1231
     96  CA        48.3250   56.8330  148.9940 C.3    80  VAL80       0.1692
     97  C         48.0480   58.0930  148.1880 C.2    80  VAL80       0.2591
     98  O         48.8640   59.0180  148.1900 O.2    80  VAL80      -0.2718
     99  CB        47.8160   57.0170  150.4160 C.3    80  VAL80       0.0266
    100  CG1       46.3060   57.0800  150.4290 C.3    80  VAL80       0.0020
    101  CG2       48.3350   55.8820  151.2980 C.3    80  VAL80       0.0020
    102  N         46.9130   58.1160  147.4870 N.am   81  ILE81      -0.1980
    103  CA        46.4570   59.3000  146.7320 C.3    81  ILE81       0.1595
    104  C         46.2320   60.4610  147.7040 C.2    81  ILE81       0.2287
    105  O         45.7970   60.2400  148.8380 O.2    81  ILE81      -0.2864
    106  CB        45.1550   58.9900  145.9700 C.3    81  ILE81       0.0276
    107  CG1       44.8310   60.0620  144.9120 C.3    81  ILE81       0.0022
    108  CG2       44.0110   58.7980  146.9460 C.3    81  ILE81       0.0022
    109  CD1       45.4290   59.7950  143.5400 C.3    81  ILE81       0.0001
    110  N         42.7240   66.1140  143.4870 N.3    99  PHE99      -0.1227
    111  CA        43.7100   65.0660  143.7320 C.3    99  PHE99       0.1736
    112  C         44.7930   65.2290  142.6910 C.2    99  PHE99       0.2595
    113  O         44.4750   65.4810  141.5320 O.2    99  PHE99      -0.2718
    114  CB        43.0930   63.6880  143.5130 C.3    99  PHE99       0.0547
    115  CG        42.0370   63.3050  144.5100 C.ar   99  PHE99      -0.0202
    116  CD1       42.3780   62.6420  145.6770 C.ar   99  PHE99      -0.0042
    117  CD2       40.6950   63.5430  144.2490 C.ar   99  PHE99      -0.0042
    118  CE1       41.4100   62.2510  146.5770 C.ar   99  PHE99      -0.0003
    119  CE2       39.7220   63.1640  145.1540 C.ar   99  PHE99      -0.0003
    120  CZ        40.0820   62.5210  146.3260 C.ar   99  PHE99      -0.0000
    121  N         46.0590   65.0490  143.0590 N.am  100  ASP100     -0.1960
    122  CA        47.1430   65.2900  142.0900 C.3   100  ASP100      0.1840
    123  C         47.0110   64.2650  140.9590 C.2   100  ASP100      0.2622
    124  O         46.6600   63.1150  141.2050 O.2   100  ASP100     -0.2715
    125  CB        48.5430   65.2730  142.7490 C.3   100  ASP100      0.1450
    126  CG        49.5220   66.2850  142.1140 C.2   100  ASP100      0.3671
    127  OD1       49.4970   66.4620  140.8650 O.co2 100  ASP100     -0.2456
    128  OD2       50.3170   66.8990  142.8750 O.co2 100  ASP100     -0.2456
    129  N         47.2430   64.7040  139.7290 N.am  101  TYR101     -0.1960
    130  CA        46.8740   63.9240  138.5600 C.3   101  TYR101      0.1771
    131  C         47.8990   62.8460  138.2450 C.2   101  TYR101      0.2619
    132  O         48.9800   63.1490  137.7380 O.2   101  TYR101     -0.2715
    133  CB        46.6980   64.8260  137.3340 C.3   101  TYR101      0.0574
    134  CG        46.2700   64.0510  136.1170 C.ar  101  TYR101     -0.0198
    135  CD1       44.9800   63.5300  136.0310 C.ar  101  TYR101     -0.0009
    136  CD2       47.1510   63.8040  135.0730 C.ar  101  TYR101     -0.0009
    137  CE1       44.5680   62.7920  134.9380 C.ar  101  TYR101      0.0417
    138  CE2       46.7500   63.0700  133.9690 C.ar  101  TYR101      0.0417
    139  CZ        45.4480   62.5620  133.9070 C.ar  101  TYR101      0.1957
    140  OH        45.0210   61.8230  132.8190 O.3   101  TYR101     -0.2866
    141  N         47.5360   61.5910  138.5180 N.am  102  ALA102     -0.1977
    142  CA        48.3390   60.4190  138.1230 C.3   102  ALA102      0.1597
    143  C         48.0460   60.0100  136.6830 C.2   102  ALA102      0.2287
    144  O         46.9520   59.5640  136.3810 O.2   102  ALA102     -0.2864
    145  CB        48.0570   59.2590  139.0560 C.3   102  ALA102      0.0319
    146  N         47.8290   53.9720  135.2810 N.3   105  ASP105     -0.1239
    147  CA        47.5260   52.9370  136.2770 C.3   105  ASP105      0.1674
    148  C         47.9370   51.5410  135.8030 C.2   105  ASP105      0.2266
    149  O         48.2880   51.3440  134.6400 O.2   105  ASP105     -0.2867
    150  CB        46.0330   52.9520  136.6400 C.3   105  ASP105      0.1410
    151  CG        45.1250   52.6570  135.4510 C.2   105  ASP105      0.3668
    152  OD1       45.4550   51.7670  134.6410 O.co2 105  ASP105     -0.2456
    153  OD2       44.0660   53.3150  135.3330 O.co2 105  ASP105     -0.2456
    154  N         48.2640   52.1280  155.3830 N.3   137  LEU137     -0.1245
    155  CA        46.8040   52.1130  155.5800 C.3   137  LEU137      0.1561
    156  C         46.3780   51.1100  156.6720 C.2   137  LEU137      0.2260
    157  O         45.5520   51.4170  157.5440 O.2   137  LEU137     -0.2867
    158  CB        46.0880   51.8360  154.2530 C.3   137  LEU137      0.0270
    159  CG        46.2920   52.8860  153.1450 C.3   137  LEU137      0.0019
    160  CD1       45.7300   52.3990  151.8130 C.3   137  LEU137      0.0001
    161  CD2       45.6830   54.2400  153.5290 C.3   137  LEU137      0.0001
    162  N         42.9450   51.1250  158.3590 N.3   142  VAL142     -0.1231
    163  CA        42.1710   51.5510  157.1950 C.3   142  VAL142      0.1692
    164  C         42.3130   50.4820  156.1040 C.2   142  VAL142      0.2592
    165  O         43.3880   50.3380  155.5140 O.2   142  VAL142     -0.2718
    166  CB        42.6670   52.9470  156.7010 C.3   142  VAL142      0.0266
    167  CG1       42.2010   53.2590  155.2660 C.3   142  VAL142      0.0020
    168  CG2       42.2060   54.0100  157.6500 C.3   142  VAL142      0.0020
    169  N         41.2370   49.7310  155.8530 N.am  143  LEU143     -0.1966
    170  CA        41.2440   48.6570  154.8380 C.3   143  LEU143      0.1728
    171  C         40.7420   49.1550  153.4810 C.2   143  LEU143      0.2616
    172  O         39.7300   49.8590  153.4120 O.2   143  LEU143     -0.2715
    173  CB        40.3680   47.4850  155.2940 C.3   143  LEU143      0.0311
    174  CG        40.6270   46.8940  156.6840 C.3   143  LEU143      0.0022
    175  CD1       39.5870   45.8280  156.9710 C.3   143  LEU143      0.0001
    176  CD2       42.0400   46.3320  156.8080 C.3   143  LEU143      0.0001
    177  N         41.4270   48.7730  152.4060 N.am  144  HIS144     -0.1973
    178  CA        41.0460   49.2100  151.0560 C.3   144  HIS144      0.1656
    179  C         39.7740   48.5270  150.5330 C.2   144  HIS144      0.2291
    180  O         38.8950   49.2000  149.9800 O.2   144  HIS144     -0.2864
    181  CB        42.1880   48.9770  150.0940 C.3   144  HIS144      0.0771
    182  CG        42.0000   49.6380  148.7730 C.ar  144  HIS144      0.0820
    183  ND1       41.1340   49.1540  147.8190 N.ar  144  HIS144     -0.2267
    184  CD2       42.5910   50.7250  148.2310 C.ar  144  HIS144      0.1154
    185  CE1       41.1900   49.9230  146.7480 C.ar  144  HIS144      0.1986
    186  NE2       42.0660   50.8840  146.9720 N.ar  144  HIS144     -0.2212
    187  N         47.3520   53.5580  140.8000 N.3   153  LEU153     -0.1245
    188  CA        47.7140   54.6560  139.9080 C.3   153  LEU153      0.1561
    189  C         49.2350   54.7950  139.9070 C.2   153  LEU153      0.2260
    190  O         49.8810   54.4770  140.9080 O.2   153  LEU153     -0.2867
    191  CB        47.0630   55.9690  140.3610 C.3   153  LEU153      0.0270
    192  CG        45.5840   55.9660  140.7550 C.3   153  LEU153      0.0019
    193  CD1       45.2140   57.3330  141.2740 C.3   153  LEU153      0.0001
    194  CD2       44.7030   55.5660  139.5840 C.3   153  LEU153      0.0001
    195  N         48.1500   54.5230  145.5650 N.3   166  ILE166     -0.1231
    196  CA        46.9460   53.7530  145.8810 C.3   166  ILE166      0.1692
    197  C         45.7100   54.6760  145.8870 C.2   166  ILE166      0.2592
    198  O         45.7550   55.7650  146.4560 O.2   166  ILE166     -0.2718
    199  CB        47.0990   53.0210  147.2410 C.3   166  ILE166      0.0266
    200  CG1       48.1920   51.9490  147.1380 C.3   166  ILE166      0.0019
    201  CG2       45.7920   52.3590  147.6770 C.3   166  ILE166      0.0020
    202  CD1       48.7700   51.4670  148.4780 C.3   166  ILE166      0.0001
    203  N         44.6270   54.2280  145.2470 N.am  167  ALA167     -0.1966
    204  CA        43.3830   54.9940  145.1380 C.3   167  ALA167      0.1728
    205  C         42.1370   54.1000  145.1900 C.2   167  ALA167      0.2616
    206  O         42.2450   52.8890  145.0770 O.2   167  ALA167     -0.2715
    207  CB        43.3990   55.7750  143.8520 C.3   167  ALA167      0.0334
    208  N         40.9610   54.7020  145.3680 N.am  168  ASP168     -0.1957
    209  CA        39.6860   53.9710  145.2860 C.3   168  ASP168      0.1840
    210  C         38.7340   54.7310  144.3620 C.2   168  ASP168      0.2621
    211  O         38.4780   55.9200  144.5850 O.2   168  ASP168     -0.2715
    212  CB        39.0570   53.7880  146.6780 C.3   168  ASP168      0.1450
    213  CG        37.9400   52.7380  146.6940 C.2   168  ASP168      0.3671
    214  OD1       38.1870   51.5840  146.2990 O.co2 168  ASP168     -0.2456
    215  OD2       36.8100   53.0550  147.1110 O.co2 168  ASP168     -0.2456
    216  N         38.2180   54.0470  143.3370 N.am  169  MET169     -0.1977
    217  CA        37.3530   54.6540  142.3120 C.3   169  MET169      0.1605
    218  C         35.8680   54.3250  142.5830 C.2   169  MET169      0.2287
    219  O         35.0860   55.2160  142.9340 O.2   169  MET169     -0.2864
    220  CB        37.7800   54.1880  140.9100 C.3   169  MET169      0.0413
    221  CG        39.2880   54.2330  140.6500 C.3   169  MET169      0.0598
    222  SD        39.9260   55.7720  139.9670 S.3   169  MET169     -0.1393
    223  CE        41.5430   55.7720  140.7280 C.3   169  MET169      0.0692
    224  N         46.2960   59.4840  129.2570 N.3   325  ARG325     -0.1245
    225  CA        44.8890   59.1090  129.4070 C.3   325  ARG325      0.1563
    226  C         44.0370   59.8840  128.4120 C.2   325  ARG325      0.2260
    227  O         44.1360   61.1040  128.3510 O.2   325  ARG325     -0.2867
    228  CB        44.4010   59.4070  130.8290 C.3   325  ARG325      0.0307
    229  CG        43.2100   58.5560  131.2950 C.3   325  ARG325      0.0489
    230  CD        43.6230   57.4340  132.2600 C.3   325  ARG325      0.2205
    231  NE        44.3220   57.9360  133.4480 N.pl3 325  ARG325     -0.0865
    232  CZ        44.7510   57.1760  134.4600 C.cat 325  ARG325      0.5346
    233  NH1       44.5650   55.8600  134.4720 N.pl3 325  ARG325      0.1354
    234  NH2       45.3880   57.7370  135.4770 N.pl3 325  ARG325      0.1354
@<TRIPOS>BOND
     1   227   226    2
     2   226   225    1
     3   224   225    1
     4   225   228    1
     5   228   229    1
     6   229   230    1
     7     6     5    1
     8     2     1    1
     9     2     3    1
    10     2     5    1
    11   230   231    1
    12     4     3    2
    13     3     8   am
    14     5     7    1
    15   140   139    1
    16     8     9    1
    17   231   232    2
    18   139   138   ar
    19   139   137   ar
    20   138   136   ar
    21     9    10    1
    22    10    11    2
    23   232   233    1
    24   232   234    1
    25   149   148    2
    26   152   151   ar
    27    27    26    2
    28   137   135   ar
    29   136   134   ar
    30   146   147    1
    31   153   151   ar
    32   151   150    1
    33   148   147    1
    34    26    25    1
    35   135   134   ar
    36   134   133    1
    37   147   150    1
    38   144   143    2
    39   143   142    1
    40    24    25    1
    41    25    28    1
    42   133   130    1
    43    28    29    1
    44    28    30    1
    45   132   131    2
    46   142   141    1
    47   142   145    1
    48   131   141   am
    49   131   130    1
    50   130   129    1
    51    32    31    1
    52    32    35    1
    53    32    33    1
    54   194   192    1
    55   129   123   am
    56    33    34    2
    57   189   188    1
    58   189   190    2
    59   188   191    1
    60   188   187    1
    61   222   221    1
    62   222   223    1
    63   191   192    1
    64   221   220    1
    65   192   193    1
    66    36    37    1
    67   127   126   ar
    68   220   217    1
    69    37    38    1
    70    37    40    1
    71   123   124    2
    72   123   122    1
    73    38    39    2
    74   113   112    2
    75    12    13    1
    76    40    41    1
    77   122   125    1
    78   122   121    1
    79   126   125    1
    80   126   128   ar
    81    41    42    1
    82   217   218    1
    83   217   216    1
    84    14    13    1
    85    14    15    2
    86   218   219    2
    87   112   121   am
    88   112   111    1
    89    42    43    1
    90    13    16    1
    91   216   210   am
    92   110   111    1
    93   114   111    1
    94   114   115    1
    95   109   107    1
    96    16    17    1
    97   207   204    1
    98    43    44    1
    99    18    17   ar
   100    18    20   ar
   101   117   115   ar
   102   117   119   ar
   103   210   211    2
   104   210   209    1
   105   115   116   ar
   106    17    19   ar
   107   107   106    1
   108    20    22   ar
   109   206   205    2
   110   204   205    1
   111   204   203    1
   112   119   120   ar
   113   205   208   am
   114   203   197   am
   115   209   208    1
   116   209   212    1
   117   195   196    1
   118   116   118   ar
   119   196   197    1
   120   196   199    1
   121   197   198    2
   122   106   103    1
   123   106   108    1
   124    19    21   ar
   125    22    21   ar
   126    22    23    1
   127   214   213   ar
   128   120   118   ar
   129   212   213    1
   130   213   215   ar
   131   103   102    1
   132   103   104    1
   133   185   186   ar
   134   185   183   ar
   135    70    68   ar
   136   186   184   ar
   137   200   199    1
   138   200   202    1
   139   199   201    1
   140    69    68   ar
   141   102    97   am
   142    68    67    1
   143   104   105    2
   144   183   182   ar
   145    97    98    2
   146    97    96    1
   147   184   182   ar
   148   182   181    1
   149    95    96    1
   150    96    99    1
   151    67    66    1
   152    49    50    1
   153    49    46    1
   154    86    84    1
   155   180   179    2
   156    66    63    1
   157   181   178    1
   158    99   100    1
   159    99   101    1
   160   179   178    1
   161    47    48    2
   162    47    46    1
   163    46    45    1
   164    84    85    1
   165    84    83    1
   166   178   177    1
   167    63    64    1
   168    63    62    1
   169    83    80    1
   170   160   159    1
   171    64    65    2
   172    62    53   am
   173   177   171   am
   174    80    81    1
   175    80    79    1
   176   159   161    1
   177   159   158    1
   178    58    57    1
   179    58    59    2
   180    61    59    1
   181    82    81    2
   182   172   171    2
   183   171   170    1
   184    53    54    2
   185    53    52    1
   186    90    89    2
   187    79    73   am
   188    57    56    1
   189    59    60    1
   190    55    56    1
   191    55    52    1
   192    93    92    1
   193   158   155    1
   194    51    52    1
   195    91    92    1
   196    91    88    1
   197    89    88    1
   198    77    76    1
   199   170   173    1
   200   170   169    1
   201    75    76    1
   202    75    72    1
   203    73    74    2
   204    73    72    1
   205    92    94    1
   206   167   166    1
   207   173   174    1
   208   154   155    1
   209    88    87    1
   210   165   164    2
   211   155   156    1
   212    71    72    1
   213    76    78    1
   214   169   164   am
   215   164   163    1
   216   156   157    2
   217   174   176    1
   218   174   175    1
   219   166   163    1
   220   166   168    1
   221   163   162    1
