@<TRIPOS>MOLECULE
tmp/4f7nA00.pdb
 215 204 0 0 0
SMALL
GASTEIGER

@<TRIPOS>ATOM
      1  N          5.0270  -20.7780  150.1050 N.3    33  TYR33      -0.1241
      2  CA         4.6640  -21.8750  151.0290 C.3    33  TYR33       0.1605
      3  C          4.7230  -23.2990  150.4370 C.2    33  TYR33       0.2264
      4  O          4.4800  -24.2750  151.1580 O.2    33  TYR33      -0.2867
      5  CB         3.2610  -21.6440  151.6160 C.3    33  TYR33       0.0534
      6  CG         3.0750  -20.4060  152.4830 C.ar   33  TYR33      -0.0201
      7  CD1        4.1420  -19.8160  153.1920 C.ar   33  TYR33      -0.0009
      8  CD2        1.8010  -19.8530  152.6400 C.ar   33  TYR33      -0.0009
      9  CE1        3.9360  -18.6890  153.9980 C.ar   33  TYR33       0.0417
     10  CE2        1.5860  -18.7340  153.4460 C.ar   33  TYR33       0.0417
     11  CZ         2.6530  -18.1550  154.1200 C.ar   33  TYR33       0.1957
     12  OH         2.4240  -17.0520  154.9100 O.3    33  TYR33      -0.2866
     13  N          0.6490  -26.8560  145.5990 N.3    36  VAL36      -0.1245
     14  CA        -0.7250  -27.3330  145.8300 C.3    36  VAL36       0.1561
     15  C         -1.2070  -28.1270  144.6070 C.2    36  VAL36       0.2260
     16  O         -1.0980  -27.6430  143.4750 O.2    36  VAL36      -0.2867
     17  CB        -1.7060  -26.1580  146.0990 C.3    36  VAL36       0.0252
     18  CG1       -3.0940  -26.6710  146.5070 C.3    36  VAL36       0.0019
     19  CG2       -1.1580  -25.2320  147.1810 C.3    36  VAL36       0.0019
     20  N         -7.4980  -30.8650  147.7200 N.3    51  ALA51      -0.1245
     21  CA        -6.3120  -30.0220  147.6540 C.3    51  ALA51       0.1562
     22  C         -5.2200  -30.7140  148.4560 C.2    51  ALA51       0.2260
     23  O         -5.4290  -31.0480  149.6170 O.2    51  ALA51      -0.2867
     24  CB        -6.5960  -28.6460  148.2090 C.3    51  ALA51       0.0290
     25  N         -1.2790  -30.2570  149.5690 N.3    53  LYS53      -0.1245
     26  CA        -0.1850  -29.2770  149.6650 C.3    53  LYS53       0.1561
     27  C          1.1090  -29.9270  150.1390 C.2    53  LYS53       0.2260
     28  O          1.1340  -30.5150  151.2160 O.2    53  LYS53      -0.2867
     29  CB        -0.5640  -28.1460  150.6370 C.3    53  LYS53       0.0271
     30  CG         0.5240  -27.0780  150.8600 C.3    53  LYS53       0.0035
     31  CD         0.0850  -26.0600  151.8930 C.3    53  LYS53       0.0206
     32  CE         1.2250  -25.1200  152.2430 C.3    53  LYS53       0.1093
     33  NZ         0.7850  -23.9600  153.0840 N.3    53  LYS53      -0.1314
     34  N          7.3710  -22.9670  160.0550 N.3    63  SER63      -0.1217
     35  CA         6.1960  -22.8260  159.1780 C.3    63  SER63       0.1889
     36  C          5.2960  -24.0590  159.2010 C.2    63  SER63       0.2288
     37  O          4.0860  -23.9390  159.3970 O.2    63  SER63      -0.2866
     38  CB         6.6070  -22.5110  157.7360 C.3    63  SER63       0.2089
     39  OG         6.8780  -21.1310  157.6040 O.3    63  SER63      -0.2183
     40  N          3.6700  -24.4810  162.7610 N.3    66  ARG66      -0.1231
     41  CA         2.5890  -23.5170  162.9920 C.3    66  ARG66       0.1694
     42  C          1.2940  -23.8460  162.2260 C.2    66  ARG66       0.2591
     43  O          0.1910  -23.7220  162.7750 O.2    66  ARG66      -0.2718
     44  CB         3.0570  -22.1020  162.6310 C.3    66  ARG66       0.0321
     45  CG         1.9620  -21.0700  162.7550 C.3    66  ARG66       0.0489
     46  CD         2.4540  -19.6450  162.7920 C.3    66  ARG66       0.2205
     47  NE         1.3130  -18.7870  163.1180 N.pl3  66  ARG66      -0.0865
     48  CZ         0.3510  -18.4190  162.2690 C.cat  66  ARG66       0.5346
     49  NH1       -0.6440  -17.6550  162.7090 N.pl3  66  ARG66       0.1354
     50  NH2        0.3760  -18.7820  160.9820 N.pl3  66  ARG66       0.1354
     51  N          1.4330  -24.2310  160.9590 N.am   67  GLU67      -0.1979
     52  CA         0.2870  -24.6200  160.1240 C.3    67  GLU67       0.1602
     53  C         -0.4470  -25.8420  160.6960 C.2    67  GLU67       0.2287
     54  O         -1.6820  -25.8610  160.7780 O.2    67  GLU67      -0.2864
     55  CB         0.7550  -24.9140  158.6930 C.3    67  GLU67       0.0415
     56  CG        -0.3550  -25.1090  157.6620 C.3    67  GLU67       0.1163
     57  CD         0.1610  -25.1070  156.2180 C.2    67  GLU67       0.3649
     58  OE1        1.3690  -25.3690  155.9950 O.co2  67  GLU67      -0.2457
     59  OE2       -0.6450  -24.8510  155.3030 O.co2  67  GLU67      -0.2457
     60  N         -2.1670  -25.0630  164.3300 N.3    70  LEU70      -0.1231
     61  CA        -3.4140  -24.2840  164.2760 C.3    70  LEU70       0.1693
     62  C         -4.5500  -25.0410  163.5980 C.2    70  LEU70       0.2591
     63  O         -5.5810  -25.2950  164.2230 O.2    70  LEU70      -0.2718
     64  CB        -3.2160  -22.9180  163.6050 C.3    70  LEU70       0.0284
     65  CG        -2.5990  -21.8190  164.4720 C.3    70  LEU70       0.0019
     66  CD1       -2.3270  -20.5910  163.6270 C.3    70  LEU70       0.0001
     67  CD2       -3.4810  -21.4410  165.6580 C.3    70  LEU70       0.0001
     68  N         -4.3510  -25.4190  162.3400 N.am   71  LEU71      -0.1980
     69  CA        -5.4170  -26.0380  161.5290 C.3    71  LEU71       0.1596
     70  C         -5.9270  -27.3760  162.0710 C.2    71  LEU71       0.2287
     71  O         -7.0440  -27.7910  161.7470 O.2    71  LEU71      -0.2864
     72  CB        -4.9590  -26.2200  160.0860 C.3    71  LEU71       0.0297
     73  CG        -4.7370  -24.9050  159.3350 C.3    71  LEU71       0.0022
     74  CD1       -3.7760  -25.1180  158.1850 C.3    71  LEU71       0.0001
     75  CD2       -6.0500  -24.3400  158.8230 C.3    71  LEU71       0.0001
     76  N         -8.5930  -25.7400  164.4770 N.3    74  LEU74      -0.1245
     77  CA        -9.6310  -24.8590  163.9200 C.3    74  LEU74       0.1561
     78  C        -10.7450  -25.6510  163.2450 C.2    74  LEU74       0.2260
     79  O        -10.4880  -26.6380  162.5680 O.2    74  LEU74      -0.2867
     80  CB        -9.0280  -23.8460  162.9410 C.3    74  LEU74       0.0270
     81  CG        -8.0010  -22.8730  163.5320 C.3    74  LEU74       0.0019
     82  CD1       -7.3510  -22.0620  162.4230 C.3    74  LEU74       0.0001
     83  CD2       -8.6220  -21.9430  164.5570 C.3    74  LEU74       0.0001
     84  N        -13.6990  -21.3680  157.2360 N.3    79  VAL79      -0.1231
     85  CA       -12.2500  -21.4720  157.3580 C.3    79  VAL79       0.1692
     86  C        -11.8170  -22.7770  156.7020 C.2    79  VAL79       0.2591
     87  O        -12.3800  -23.8300  156.9950 O.2    79  VAL79      -0.2718
     88  CB       -11.8330  -21.4630  158.8470 C.3    79  VAL79       0.0266
     89  CG1      -10.3330  -21.7590  159.0220 C.3    79  VAL79       0.0020
     90  CG2      -12.1780  -20.1150  159.4810 C.3    79  VAL79       0.0020
     91  N        -10.8080  -22.7140  155.8370 N.am   80  ILE80      -0.1980
     92  CA       -10.3240  -23.9020  155.1400 C.3    80  ILE80       0.1595
     93  C         -9.8810  -24.9600  156.1570 C.2    80  ILE80       0.2287
     94  O         -9.2300  -24.6380  157.1500 O.2    80  ILE80      -0.2864
     95  CB        -9.1920  -23.5610  154.1180 C.3    80  ILE80       0.0276
     96  CG1       -8.9190  -24.7300  153.1640 C.3    80  ILE80       0.0022
     97  CG2       -7.9070  -23.1570  154.8150 C.3    80  ILE80       0.0022
     98  CD1      -10.0130  -24.9630  152.1200 C.3    80  ILE80       0.0001
     99  N         -6.2890  -30.9870  152.2330 N.3    98  PHE98      -0.1227
    100  CA        -7.3490  -29.9970  152.4810 C.3    98  PHE98       0.1736
    101  C         -8.5740  -30.2600  151.6050 C.2    98  PHE98       0.2595
    102  O         -8.5360  -31.0960  150.6990 O.2    98  PHE98      -0.2718
    103  CB        -6.8510  -28.5900  152.1390 C.3    98  PHE98       0.0547
    104  CG        -5.7230  -28.1030  152.9960 C.ar   98  PHE98      -0.0202
    105  CD1       -5.9790  -27.5430  154.2360 C.ar   98  PHE98      -0.0042
    106  CD2       -4.4080  -28.1560  152.5430 C.ar   98  PHE98      -0.0042
    107  CE1       -4.9430  -27.0670  155.0250 C.ar   98  PHE98      -0.0003
    108  CE2       -3.3630  -27.6880  153.3300 C.ar   98  PHE98      -0.0003
    109  CZ        -3.6310  -27.1410  154.5720 C.ar   98  PHE98      -0.0000
    110  N         -9.6530  -29.5190  151.8710 N.am   99  ASP99      -0.1960
    111  CA       -10.7880  -29.4230  150.9450 C.3    99  ASP99       0.1840
    112  C        -10.3110  -28.6950  149.7000 C.2    99  ASP99       0.2622
    113  O         -9.5140  -27.7480  149.8020 O.2    99  ASP99      -0.2715
    114  CB       -11.9430  -28.5900  151.5230 C.3    99  ASP99       0.1450
    115  CG       -12.5660  -29.1970  152.7670 C.2    99  ASP99       0.3671
    116  OD1      -12.7600  -30.4330  152.8140 O.co2  99  ASP99      -0.2456
    117  OD2      -12.8880  -28.4140  153.6900 O.co2  99  ASP99      -0.2456
    118  N        -10.8140  -29.1180  148.5410 N.am  100  TYR100     -0.1960
    119  CA       -10.5180  -28.4470  147.2810 C.3   100  TYR100      0.1771
    120  C        -11.5480  -27.3530  147.0090 C.2   100  TYR100      0.2619
    121  O        -12.7420  -27.6400  146.9110 O.2   100  TYR100     -0.2715
    122  CB       -10.5030  -29.4370  146.1230 C.3   100  TYR100      0.0574
    123  CG       -10.1280  -28.7810  144.8220 C.ar  100  TYR100     -0.0198
    124  CD1       -8.8300  -28.3170  144.6040 C.ar  100  TYR100     -0.0009
    125  CD2      -11.0720  -28.5930  143.8180 C.ar  100  TYR100     -0.0009
    126  CE1       -8.4780  -27.6930  143.4100 C.ar  100  TYR100      0.0417
    127  CE2      -10.7300  -27.9730  142.6230 C.ar  100  TYR100      0.0417
    128  CZ        -9.4330  -27.5230  142.4240 C.ar  100  TYR100      0.1957
    129  OH        -9.1030  -26.9120  141.2380 O.3   100  TYR100     -0.2866
    130  N        -11.0660  -26.1140  146.8820 N.am  101  ALA101     -0.1977
    131  CA       -11.8770  -24.9580  146.5100 C.3   101  ALA101      0.1597
    132  C        -11.5590  -24.5700  145.0710 C.2   101  ALA101      0.2287
    133  O        -10.4370  -24.1840  144.7780 O.2   101  ALA101     -0.2864
    134  CB       -11.5820  -23.7970  147.4400 C.3   101  ALA101      0.0319
    135  N        -11.8530  -16.6970  164.0080 N.3   137  LEU137     -0.1245
    136  CA       -10.3980  -16.6960  164.1930 C.3   137  LEU137      0.1561
    137  C         -9.9570  -15.6790  165.2510 C.2   137  LEU137      0.2260
    138  O         -9.1390  -15.9820  166.1210 O.2   137  LEU137     -0.2867
    139  CB        -9.6790  -16.4350  162.8590 C.3   137  LEU137      0.0270
    140  CG        -9.7630  -17.5420  161.7950 C.3   137  LEU137      0.0019
    141  CD1       -9.2060  -17.0560  160.4560 C.3   137  LEU137      0.0001
    142  CD2       -9.0370  -18.8090  162.2320 C.3   137  LEU137      0.0001
    143  N         -6.4450  -15.7370  166.7750 N.3   142  VAL142     -0.1231
    144  CA        -5.7180  -16.0620  165.5590 C.3   142  VAL142      0.1692
    145  C         -5.9260  -14.9010  164.5970 C.2   142  VAL142      0.2592
    146  O         -7.0510  -14.6490  164.1670 O.2   142  VAL142     -0.2718
    147  CB        -6.2330  -17.3690  164.9230 C.3   142  VAL142      0.0266
    148  CG1       -5.5320  -17.6530  163.5850 C.3   142  VAL142      0.0020
    149  CG2       -6.0330  -18.5390  165.8790 C.3   142  VAL142      0.0020
    150  N         -4.8440  -14.1920  164.2830 N.am  143  LEU143     -0.1966
    151  CA        -4.8560  -13.1240  163.2810 C.3   143  LEU143      0.1728
    152  C         -4.4300  -13.7180  161.9420 C.2   143  LEU143      0.2616
    153  O         -3.5810  -14.6150  161.9020 O.2   143  LEU143     -0.2715
    154  CB        -3.9030  -11.9920  163.6810 C.3   143  LEU143      0.0311
    155  CG        -4.0320  -11.4530  165.1130 C.3   143  LEU143      0.0022
    156  CD1       -2.9650  -10.4120  165.3800 C.3   143  LEU143      0.0001
    157  CD2       -5.4140  -10.8730  165.3580 C.3   143  LEU143      0.0001
    158  N         -5.0160  -13.2190  160.8520 N.am  144  HIS144     -0.1973
    159  CA        -4.6520  -13.6890  159.5150 C.3   144  HIS144      0.1656
    160  C         -3.3400  -13.0580  159.0710 C.2   144  HIS144      0.2291
    161  O         -2.4040  -13.7620  158.7030 O.2   144  HIS144     -0.2864
    162  CB        -5.7520  -13.3910  158.4940 C.3   144  HIS144      0.0771
    163  CG        -5.5690  -14.1250  157.2080 C.ar  144  HIS144      0.0820
    164  ND1       -4.5970  -13.7870  156.2920 N.ar  144  HIS144     -0.2267
    165  CD2       -6.2030  -15.2070  156.7040 C.ar  144  HIS144      0.1154
    166  CE1       -4.6500  -14.6210  155.2700 C.ar  144  HIS144      0.1986
    167  NE2       -5.6180  -15.4910  155.4930 N.ar  144  HIS144     -0.2212
    168  N        -10.9340  -18.0170  149.2850 N.3   153  LEU153     -0.1245
    169  CA       -11.3770  -19.1190  148.4290 C.3   153  LEU153      0.1561
    170  C        -12.9000  -19.2530  148.4600 C.2   153  LEU153      0.2260
    171  O        -13.5520  -18.8590  149.4350 O.2   153  LEU153     -0.2867
    172  CB       -10.7430  -20.4470  148.8680 C.3   153  LEU153      0.0270
    173  CG        -9.2320  -20.4940  149.1150 C.3   153  LEU153      0.0019
    174  CD1       -8.8150  -21.9060  149.4730 C.3   153  LEU153      0.0001
    175  CD2       -8.4440  -19.9930  147.9060 C.3   153  LEU153      0.0001
    176  N        -11.7460  -19.1390  154.0960 N.3   166  ILE166     -0.1231
    177  CA       -10.5470  -18.3160  154.3110 C.3   166  ILE166      0.1692
    178  C         -9.3200  -19.2290  154.3640 C.2   166  ILE166      0.2592
    179  O         -9.3480  -20.2790  155.0030 O.2   166  ILE166     -0.2718
    180  CB       -10.6570  -17.4500  155.5910 C.3   166  ILE166      0.0266
    181  CG1      -11.7880  -16.4310  155.4260 C.3   166  ILE166      0.0019
    182  CG2       -9.3420  -16.6890  155.8920 C.3   166  ILE166      0.0020
    183  CD1      -12.2480  -15.8050  156.7270 C.3   166  ILE166      0.0001
    184  N         -8.2540  -18.8080  153.6830 N.am  167  ALA167     -0.1966
    185  CA        -7.0040  -19.5770  153.5700 C.3   167  ALA167      0.1728
    186  C         -5.8150  -18.6350  153.6780 C.2   167  ALA167      0.2616
    187  O         -5.9970  -17.4330  153.8020 O.2   167  ALA167     -0.2715
    188  CB        -6.9650  -20.3040  152.2410 C.3   167  ALA167      0.0334
    189  N         -4.6080  -19.1920  153.6650 N.am  168  ASP168     -0.1957
    190  CA        -3.3730  -18.4060  153.5730 C.3   168  ASP168      0.1840
    191  C         -2.4430  -19.0910  152.5630 C.2   168  ASP168      0.2621
    192  O         -1.7570  -20.0620  152.8960 O.2   168  ASP168     -0.2715
    193  CB        -2.7230  -18.2690  154.9580 C.3   168  ASP168      0.1450
    194  CG        -1.5380  -17.3100  154.9710 C.2   168  ASP168      0.3671
    195  OD1       -1.4780  -16.4000  154.1250 O.co2 168  ASP168     -0.2456
    196  OD2       -0.6590  -17.4590  155.8430 O.co2 168  ASP168     -0.2456
    197  N         -2.4550  -18.5920  151.3270 N.am  169  MET169     -0.1977
    198  CA        -1.7550  -19.2300  150.2010 C.3   169  MET169      0.1605
    199  C         -0.2850  -18.8260  150.0550 C.2   169  MET169      0.2287
    200  O          0.5010  -19.5910  149.4990 O.2   169  MET169     -0.2864
    201  CB        -2.4830  -18.9300  148.8870 C.3   169  MET169      0.0413
    202  CG        -3.9710  -19.2870  148.8810 C.3   169  MET169      0.0598
    203  SD        -4.3270  -20.9870  149.3560 S.3   169  MET169     -0.1393
    204  CE        -3.4360  -21.9030  148.0960 C.3   169  MET169      0.0692
    205  N         -9.7860  -24.2700  137.5820 N.3   329  ARG329     -0.1245
    206  CA        -8.3480  -24.0360  137.7260 C.3   329  ARG329      0.1563
    207  C         -7.5410  -24.7290  136.6380 C.2   329  ARG329      0.2260
    208  O         -7.6770  -25.9340  136.4430 O.2   329  ARG329     -0.2867
    209  CB        -7.8560  -24.5480  139.0810 C.3   329  ARG329      0.0307
    210  CG        -8.4630  -23.8460  140.2800 C.3   329  ARG329      0.0489
    211  CD        -7.6000  -24.0370  141.5230 C.3   329  ARG329      0.2205
    212  NE        -8.1930  -23.3800  142.6810 N.pl3 329  ARG329     -0.0865
    213  CZ        -8.1620  -22.0690  142.9130 C.cat 329  ARG329      0.5346
    214  NH1       -7.5500  -21.2320  142.0780 N.pl3 329  ARG329      0.1354
    215  NH2       -8.7570  -21.5880  143.9930 N.pl3 329  ARG329      0.1354
@<TRIPOS>BOND
     1   208   207    2
     2   207   206    1
     3   205   206    1
     4   206   209    1
     5   209   210    1
     6   210   211    1
     7   129   128    1
     8   211   212    1
     9   214   213    1
    10   128   127   ar
    11   128   126   ar
    12   127   125   ar
    13   212   213    2
    14   213   215    1
    15   126   124   ar
    16    16    15    2
    17   125   123   ar
    18   124   123   ar
    19    15    14    1
    20   133   132    2
    21   123   122    1
    22   132   131    1
    23    13    14    1
    24    14    17    1
    25    17    18    1
    26    17    19    1
    27   122   119    1
    28   131   130    1
    29   131   134    1
    30   130   120   am
    31   121   120    2
    32   120   119    1
    33   119   118    1
    34    21    20    1
    35    21    24    1
    36    21    22    1
    37   175   173    1
    38   204   203    1
    39   169   170    1
    40   169   172    1
    41   169   168    1
    42    22    23    2
    43   170   171    2
    44   118   112   am
    45   172   173    1
    46   202   201    1
    47   202   203    1
    48   201   198    1
    49   173   174    1
    50   200   199    2
    51    25    26    1
    52    26    27    1
    53    26    29    1
    54   112   113    2
    55   112   111    1
    56   199   198    1
    57     1     2    1
    58    27    28    2
    59   198   197    1
    60     3     2    1
    61     3     4    2
    62    29    30    1
    63   102   101    2
    64    30    31    1
    65   111   114    1
    66   111   110    1
    67     2     5    1
    68   197   191   am
    69   114   115    1
    70   101   110   am
    71   101   100    1
    72     5     6    1
    73    31    32    1
    74    98    96    1
    75   103   100    1
    76   103   104    1
    77    99   100    1
    78   188   185    1
    79    32    33    1
    80     6     8   ar
    81     6     7   ar
    82   106   104   ar
    83   106   108   ar
    84   191   192    2
    85   191   190    1
    86     8    10   ar
    87   115   116   ar
    88   115   117   ar
    89   104   105   ar
    90    96    95    1
    91     7     9   ar
    92   108   109   ar
    93    10    11   ar
    94   185   186    1
    95   185   184    1
    96   190   189    1
    97   190   193    1
    98   189   186   am
    99   186   187    2
   100   184   178   am
   101     9    11   ar
   102   176   177    1
   103    95    97    1
   104    95    92    1
   105    11    12    1
   106   195   194   ar
   107   105   107   ar
   108   177   178    1
   109   177   180    1
   110   178   179    2
   111   109   107   ar
   112   193   194    1
   113   194   196   ar
   114    92    91    1
   115    92    93    1
   116   166   167   ar
   117   166   164   ar
   118    59    57   ar
   119   181   180    1
   120   181   183    1
   121   167   165   ar
   122   180   182    1
   123    91    86   am
   124    58    57   ar
   125    93    94    2
   126    57    56    1
   127   164   163   ar
   128    86    87    2
   129    86    85    1
   130   165   163   ar
   131   163   162    1
   132    84    85    1
   133    85    88    1
   134    39    38    1
   135    56    55    1
   136    38    35    1
   137    74    73    1
   138   162   159    1
   139    55    52    1
   140   161   160    2
   141    75    73    1
   142    88    89    1
   143    88    90    1
   144   160   159    1
   145    35    36    1
   146    35    34    1
   147    36    37    2
   148    73    72    1
   149   159   158    1
   150    72    69    1
   151    52    53    1
   152    52    51    1
   153   141   140    1
   154    53    54    2
   155   158   152   am
   156    51    42   am
   157    50    48    1
   158    69    70    1
   159    69    68    1
   160    71    70    2
   161   140   142    1
   162   140   139    1
   163   153   152    2
   164   152   151    1
   165    42    43    2
   166    42    41    1
   167    48    49    1
   168    48    47    2
   169    68    62   am
   170    82    81    1
   171    79    78    2
   172    44    45    1
   173    44    41    1
   174    45    46    1
   175    40    41    1
   176    46    47    1
   177   139   136    1
   178    80    81    1
   179    80    77    1
   180    78    77    1
   181   151   154    1
   182   151   150    1
   183    81    83    1
   184   148   147    1
   185    62    63    2
   186    62    61    1
   187    64    61    1
   188    64    65    1
   189    66    65    1
   190   154   155    1
   191    77    76    1
   192   135   136    1
   193   146   145    2
   194   136   137    1
   195    61    60    1
   196   150   145   am
   197    65    67    1
   198   145   144    1
   199   147   144    1
   200   147   149    1
   201   155   157    1
   202   155   156    1
   203   137   138    2
   204   144   143    1
