@<TRIPOS>MOLECULE
tmp/4f7pA00.pdb
 227 218 0 0 0
SMALL
GASTEIGER

@<TRIPOS>ATOM
      1  N         13.1640  -31.2010   -5.7780 N.3     5  MET5       -0.1245
      2  CA        12.6510  -30.4900   -6.9370 C.3     5  MET5        0.1570
      3  C         13.1230  -29.0490   -6.8270 C.2     5  MET5        0.2261
      4  O         13.0850  -28.4520   -5.7500 O.2     5  MET5       -0.2867
      5  CB        11.1180  -30.5510   -7.0250 C.3     5  MET5        0.0387
      6  CG        10.5660  -29.8330   -8.2480 C.3     5  MET5        0.0595
      7  SD         8.8100  -30.1550   -8.5390 S.3     5  MET5       -0.1393
      8  CE         8.1220  -29.4990   -7.0240 C.3     5  MET5        0.0692
      9  N         13.2740  -25.1960   -9.0710 N.3     7  TYR7       -0.1227
     10  CA        13.0890  -24.3320  -10.2120 C.3     7  TYR7        0.1736
     11  C         14.1330  -23.2350  -10.1280 C.2     7  TYR7        0.2595
     12  O         14.3910  -22.6870   -9.0490 O.2     7  TYR7       -0.2718
     13  CB        11.6860  -23.7340  -10.2200 C.3     7  TYR7        0.0548
     14  CG        10.6090  -24.7100  -10.6130 C.ar    7  TYR7       -0.0200
     15  CD1       10.2990  -24.9280  -11.9500 C.ar    7  TYR7       -0.0009
     16  CD2        9.8950  -25.4100   -9.6490 C.ar    7  TYR7       -0.0009
     17  CE1        9.3110  -25.8180  -12.3140 C.ar    7  TYR7        0.0417
     18  CE2        8.9100  -26.3040  -10.0050 C.ar    7  TYR7        0.0417
     19  CZ         8.6180  -26.4990  -11.3370 C.ar    7  TYR7        0.1957
     20  OH         7.6270  -27.3800  -11.6890 O.3     7  TYR7       -0.2866
     21  N         14.7550  -22.9500  -11.2640 N.am    8  PHE8       -0.1962
     22  CA        15.7790  -21.9260  -11.3560 C.3     8  PHE8        0.1771
     23  C         15.3530  -20.9060  -12.3920 C.2     8  PHE8        0.2620
     24  O         15.0440  -21.2650  -13.5320 O.2     8  PHE8       -0.2715
     25  CB        17.1070  -22.5310  -11.8170 C.3     8  PHE8        0.0574
     26  CG        17.5960  -23.6810  -10.9740 C.ar    8  PHE8       -0.0200
     27  CD1       18.3010  -23.4560   -9.8060 C.ar    8  PHE8       -0.0042
     28  CD2       17.3830  -24.9920  -11.3740 C.ar    8  PHE8       -0.0042
     29  CE1       18.7640  -24.5140   -9.0370 C.ar    8  PHE8       -0.0003
     30  CE2       17.8420  -26.0510  -10.6080 C.ar    8  PHE8       -0.0003
     31  CZ        18.5450  -25.8050   -9.4400 C.ar    8  PHE8       -0.0000
     32  N         15.3580  -19.6340  -12.0220 N.am    9  SER9       -0.1950
     33  CA        15.0130  -18.5960  -12.9880 C.3     9  SER9        0.1924
     34  C         16.1270  -17.5690  -13.0960 C.2     9  SER9        0.2314
     35  O         16.8270  -17.2860  -12.1150 O.2     9  SER9       -0.2863
     36  CB        13.6960  -17.9060  -12.6140 C.3     9  SER9        0.2116
     37  OG        13.8590  -17.0500  -11.4910 O.3     9  SER9       -0.2180
     38  N         13.3330  -19.8220  -17.2540 N.3    24  ALA24      -0.1245
     39  CA        13.1500  -20.6760  -16.0840 C.3    24  ALA24       0.1562
     40  C         13.2710  -22.1430  -16.4680 C.2    24  ALA24       0.2260
     41  O         12.8560  -22.5500  -17.5640 O.2    24  ALA24      -0.2867
     42  CB        11.7990  -20.4160  -15.4320 C.3    24  ALA24       0.0290
     43  N          5.1220  -22.8030  -20.9030 N.3    45  MET45      -0.1245
     44  CA         5.9750  -23.7570  -20.2060 C.3    45  MET45       0.1570
     45  C          6.0220  -24.9740  -21.1140 C.2    45  MET45       0.2261
     46  O          4.9920  -25.3920  -21.6410 O.2    45  MET45      -0.2867
     47  CB         5.3920  -24.1370  -18.8450 C.3    45  MET45       0.0387
     48  CG         6.3100  -25.0220  -18.0070 C.3    45  MET45       0.0595
     49  SD         7.6930  -24.0920  -17.3160 S.3    45  MET45      -0.1393
     50  CE         7.0570  -23.7580  -15.6790 C.3    45  MET45       0.0692
     51  N         -2.6350  -28.7640  -16.8760 N.3    59  TYR59      -0.1241
     52  CA        -1.3010  -28.6350  -16.2870 C.3    59  TYR59       0.1605
     53  C         -0.5160  -27.5590  -17.0240 C.2    59  TYR59       0.2264
     54  O         -0.0500  -26.5890  -16.4270 O.2    59  TYR59      -0.2867
     55  CB        -0.5570  -29.9700  -16.3480 C.3    59  TYR59       0.0534
     56  CG         0.8620  -29.9080  -15.8150 C.ar   59  TYR59      -0.0201
     57  CD1        1.1190  -30.0490  -14.4600 C.ar   59  TYR59      -0.0009
     58  CD2        1.9430  -29.7090  -16.6720 C.ar   59  TYR59      -0.0009
     59  CE1        2.4130  -29.9890  -13.9670 C.ar   59  TYR59       0.0417
     60  CE2        3.2470  -29.6510  -16.1830 C.ar   59  TYR59       0.0417
     61  CZ         3.4680  -29.7920  -14.8330 C.ar   59  TYR59       0.1957
     62  OH         4.7540  -29.7320  -14.3400 O.3    59  TYR59      -0.2866
     63  N          0.7620  -24.0360  -15.3090 N.3    63  GLU63      -0.1245
     64  CA         2.2010  -23.8220  -15.1660 C.3    63  GLU63       0.1567
     65  C          2.6510  -22.6030  -15.9440 C.2    63  GLU63       0.2260
     66  O          3.4800  -21.8200  -15.4760 O.2    63  GLU63      -0.2867
     67  CB         2.9740  -25.0500  -15.6460 C.3    63  GLU63       0.0388
     68  CG         2.6720  -26.2880  -14.8440 C.3    63  GLU63       0.1160
     69  CD         2.9840  -26.0950  -13.3800 C.2    63  GLU63       0.3649
     70  OE1        4.1010  -25.6200  -13.0730 O.co2  63  GLU63      -0.2457
     71  OE2        2.1190  -26.4140  -12.5400 O.co2  63  GLU63      -0.2457
     72  N          1.5010  -19.4990  -13.9960 N.3    66  LYS66      -0.1231
     73  CA         2.3510  -19.2930  -12.8280 C.3    66  LYS66       0.1693
     74  C          3.7250  -18.7390  -13.2040 C.2    66  LYS66       0.2591
     75  O          4.1780  -17.7570  -12.6120 O.2    66  LYS66      -0.2718
     76  CB         2.4850  -20.5840  -12.0270 C.3    66  LYS66       0.0285
     77  CG         1.2200  -20.9920  -11.2990 C.3    66  LYS66       0.0035
     78  CD         1.4470  -22.2040  -10.4130 C.3    66  LYS66       0.0206
     79  CE         1.6640  -23.4700  -11.2280 C.3    66  LYS66       0.1093
     80  NZ         1.6430  -24.6850  -10.3540 N.3    66  LYS66      -0.1314
     81  N          4.3830  -19.3460  -14.1920 N.am   67  VAL67      -0.1980
     82  CA         5.7370  -18.9120  -14.5650 C.3    67  VAL67       0.1595
     83  C          5.7520  -17.5520  -15.2720 C.2    67  VAL67       0.2287
     84  O          6.7110  -16.7910  -15.1590 O.2    67  VAL67      -0.2864
     85  CB         6.4930  -19.9710  -15.4140 C.3    67  VAL67       0.0276
     86  CG1        5.9690  -19.9900  -16.8490 C.3    67  VAL67       0.0022
     87  CG2        7.9940  -19.6720  -15.4160 C.3    67  VAL67       0.0022
     88  N          3.7030  -15.1410  -14.5000 N.3    69  ALA69      -0.1231
     89  CA         3.5030  -14.2210  -13.3810 C.3    69  ALA69       0.1694
     90  C          4.8300  -13.9440  -12.6690 C.2    69  ALA69       0.2592
     91  O          5.1390  -12.8000  -12.3350 O.2    69  ALA69      -0.2718
     92  CB         2.4950  -14.7880  -12.4030 C.3    69  ALA69       0.0304
     93  N          5.6070  -15.0010  -12.4440 N.am   70  HIS70      -0.1976
     94  CA         6.9510  -14.8730  -11.8740 C.3    70  HIS70       0.1656
     95  C          7.7770  -13.9550  -12.7670 C.2    70  HIS70       0.2291
     96  O          8.4450  -13.0410  -12.2950 O.2    70  HIS70      -0.2864
     97  CB         7.5970  -16.2570  -11.7680 C.3    70  HIS70       0.0771
     98  CG         8.9840  -16.2550  -11.2000 C.ar   70  HIS70       0.0820
     99  ND1        9.6160  -15.1130  -10.7440 N.ar   70  HIS70      -0.2267
    100  CD2        9.8620  -17.2670  -11.0060 C.ar   70  HIS70       0.1154
    101  CE1       10.8200  -15.4250  -10.3010 C.ar   70  HIS70       0.1986
    102  NE2       10.9980  -16.7250  -10.4540 N.ar   70  HIS70      -0.2212
    103  N          6.8750  -10.4090  -12.1330 N.3    73  THR73      -0.1218
    104  CA         7.3150  -10.0250  -10.7940 C.3    73  THR73       0.1862
    105  C          8.8070   -9.6970  -10.7680 C.2    73  THR73       0.2287
    106  O          9.2120   -8.6570  -10.2460 O.2    73  THR73      -0.2866
    107  CB         6.9950  -11.1150   -9.7580 C.3    73  THR73       0.1770
    108  OG1        5.5720  -11.2670   -9.6550 O.3    73  THR73      -0.2211
    109  CG2        7.5480  -10.7300   -8.3900 C.3    73  THR73       0.0375
    110  N         16.6100  -16.5310   -9.2540 N.3    97  MET97      -0.1245
    111  CA        15.7760  -17.0140   -8.1820 C.3    97  MET97       0.1570
    112  C         15.7610  -18.5330   -8.1900 C.2    97  MET97       0.2261
    113  O         15.7230  -19.1560   -9.2470 O.2    97  MET97      -0.2867
    114  CB        14.3750  -16.4370   -8.3530 C.3    97  MET97       0.0387
    115  CG        13.6090  -16.3240   -7.0840 C.3    97  MET97       0.0595
    116  SD        12.3100  -17.5440   -7.0740 S.3    97  MET97      -0.1393
    117  CE        12.6530  -18.3320   -5.5070 C.3    97  MET97       0.0692
    118  N         13.8710  -21.9010   -6.0940 N.3    99  PHE99      -0.1241
    119  CA        12.9240  -22.3880   -5.0990 C.3    99  PHE99       0.1605
    120  C         12.6410  -23.8660   -5.3210 C.2    99  PHE99       0.2264
    121  O         12.8890  -24.4010   -6.3990 O.2    99  PHE99      -0.2867
    122  CB        11.6290  -21.5600   -5.1060 C.3    99  PHE99       0.0534
    123  CG        10.8080  -21.7080   -6.3600 C.ar   99  PHE99      -0.0203
    124  CD1        9.8570  -22.7090   -6.4680 C.ar   99  PHE99      -0.0042
    125  CD2       10.9700  -20.8280   -7.4200 C.ar   99  PHE99      -0.0042
    126  CE1        9.0980  -22.8370   -7.6180 C.ar   99  PHE99      -0.0003
    127  CE2       10.2140  -20.9520   -8.5660 C.ar   99  PHE99      -0.0003
    128  CZ         9.2790  -21.9570   -8.6650 C.ar   99  PHE99      -0.0000
    129  N         13.7040  -20.8000   -1.0380 N.3   114  HIS114     -0.1241
    130  CA        13.1180  -19.6620   -1.7100 C.3   114  HIS114      0.1621
    131  C         14.1250  -18.5350   -1.6100 C.2   114  HIS114      0.2264
    132  O         14.1690  -17.8220   -0.6080 O.2   114  HIS114     -0.2867
    133  CB        11.8190  -19.2560   -1.0290 C.3   114  HIS114      0.0745
    134  CG        11.0020  -18.2830   -1.8160 C.ar  114  HIS114      0.0817
    135  ND1       11.1500  -16.9180   -1.6960 N.ar  114  HIS114     -0.2268
    136  CD2       10.0160  -18.4770   -2.7240 C.ar  114  HIS114      0.1154
    137  CE1       10.2940  -16.3130   -2.5000 C.ar  114  HIS114      0.1986
    138  NE2        9.5940  -17.2360   -3.1350 N.ar  114  HIS114     -0.2212
    139  N         16.9920  -15.5120   -3.6530 N.3   116  TYR116     -0.1241
    140  CA        17.2780  -14.5880   -4.7410 C.3   116  TYR116      0.1605
    141  C         18.7480  -14.1850   -4.7930 C.2   116  TYR116      0.2264
    142  O         19.4030  -14.0590   -3.7570 O.2   116  TYR116     -0.2867
    143  CB        16.4910  -13.3060   -4.5330 C.3   116  TYR116      0.0534
    144  CG        15.1000  -13.3040   -5.1170 C.ar  116  TYR116     -0.0201
    145  CD1       14.9020  -13.0460   -6.4680 C.ar  116  TYR116     -0.0009
    146  CD2       13.9850  -13.5160   -4.3170 C.ar  116  TYR116     -0.0009
    147  CE1       13.6330  -13.0180   -7.0140 C.ar  116  TYR116      0.0417
    148  CE2       12.6990  -13.4950   -4.8590 C.ar  116  TYR116      0.0417
    149  CZ        12.5360  -13.2440   -6.2070 C.ar  116  TYR116      0.1957
    150  OH        11.2710  -13.2180   -6.7570 O.3   116  TYR116     -0.2866
    151  N          3.0470  -17.7360    3.3650 N.3   155  GLN155     -0.1231
    152  CA         2.6670  -18.3040    2.0730 C.3   155  GLN155      0.1698
    153  C          3.7110  -19.3080    1.5630 C.2   155  GLN155      0.2592
    154  O          3.4230  -20.4960    1.4190 O.2   155  GLN155     -0.2718
    155  CB         2.4640  -17.1990    1.0380 C.3   155  GLN155      0.0381
    156  CG         1.7380  -15.9710    1.5720 C.3   155  GLN155      0.0905
    157  CD         1.4920  -14.9350    0.4910 C.2   155  GLN155      0.2608
    158  OE1        1.4680  -15.2610   -0.6970 O.2   155  GLN155     -0.2717
    159  NE2        1.3070  -13.6810    0.8960 N.am  155  GLN155     -0.0878
    160  N          4.9210  -18.8300    1.2900 N.am  156  GLN156     -0.1979
    161  CA         5.9670  -19.7010    0.7550 C.3   156  GLN156      0.1601
    162  C          6.0760  -20.9990    1.5540 C.2   156  GLN156      0.2287
    163  O          6.1590  -22.0820    0.9780 O.2   156  GLN156     -0.2864
    164  CB         7.3190  -18.9800    0.6970 C.3   156  GLN156      0.0394
    165  CG         7.3240  -17.7720   -0.2280 C.3   156  GLN156      0.0908
    166  CD         6.5390  -18.0130   -1.5130 C.2   156  GLN156      0.2608
    167  OE1        6.7040  -19.0390   -2.1820 O.2   156  GLN156     -0.2717
    168  NE2        5.6800  -17.0620   -1.8640 N.am  156  GLN156     -0.0878
    169  N          3.8250  -22.5890    2.9800 N.3   158  ALA158     -0.1231
    170  CA         2.7300  -23.4480    2.5480 C.3   158  ALA158      0.1694
    171  C          3.0690  -24.2130    1.2820 C.2   158  ALA158      0.2592
    172  O          3.1630  -25.4400    1.3100 O.2   158  ALA158     -0.2718
    173  CB         1.4700  -22.6290    2.3390 C.3   158  ALA158      0.0304
    174  N          3.2200  -23.4890    0.1710 N.am  159  TYR159     -0.1976
    175  CA         3.6260  -24.0940   -1.0980 C.3   159  TYR159      0.1639
    176  C          4.7480  -25.1000   -0.8870 C.2   159  TYR159      0.2290
    177  O          4.6760  -26.2390   -1.3450 O.2   159  TYR159     -0.2864
    178  CB         4.0680  -23.0270   -2.1070 C.3   159  TYR159      0.0560
    179  CG         4.8800  -23.5940   -3.2560 C.ar  159  TYR159     -0.0198
    180  CD1        4.2530  -24.1440   -4.3690 C.ar  159  TYR159     -0.0009
    181  CD2        6.2750  -23.5940   -3.2210 C.ar  159  TYR159     -0.0009
    182  CE1        4.9840  -24.6730   -5.4150 C.ar  159  TYR159      0.0417
    183  CE2        7.0180  -24.1260   -4.2670 C.ar  159  TYR159      0.0417
    184  CZ         6.3670  -24.6660   -5.3600 C.ar  159  TYR159      0.1957
    185  OH         7.0910  -25.1960   -6.4080 O.3   159  TYR159     -0.2866
    186  N          2.1030  -27.9840   -2.0260 N.3   163  THR163     -0.1218
    187  CA         2.0890  -28.1500   -3.4760 C.3   163  THR163      0.1862
    188  C          3.4240  -28.7090   -3.9660 C.2   163  THR163      0.2287
    189  O          3.4680  -29.6400   -4.7750 O.2   163  THR163     -0.2866
    190  CB         1.8350  -26.7980   -4.1820 C.3   163  THR163      0.1770
    191  OG1        0.7320  -26.1260   -3.5620 O.3   163  THR163     -0.2211
    192  CG2        1.5520  -26.9950   -5.6620 C.3   163  THR163      0.0375
    193  N          3.8090  -32.4220   -3.0620 N.3   166  ASP166     -0.1225
    194  CA         2.8860  -33.2320   -3.8490 C.3   166  ASP166      0.1805
    195  C          3.3780  -33.4000   -5.2820 C.2   166  ASP166      0.2598
    196  O          3.3570  -34.5040   -5.8210 O.2   166  ASP166     -0.2718
    197  CB         1.4840  -32.6140   -3.8310 C.3   166  ASP166      0.1424
    198  CG         0.8470  -32.6520   -2.4490 C.2   166  ASP166      0.3668
    199  OD1        1.2680  -33.4880   -1.6150 O.co2 166  ASP166     -0.2456
    200  OD2       -0.0760  -31.8450   -2.1950 O.co2 166  ASP166     -0.2456
    201  N          3.8190  -32.3040   -5.8950 N.am  167  GLY167     -0.1957
    202  CA         4.3440  -32.3420   -7.2470 C.3   167  GLY167      0.1869
    203  C          5.5420  -33.2660   -7.3860 C.2   167  GLY167      0.2309
    204  O          5.6120  -34.0740   -8.3100 O.2   167  GLY167     -0.2863
    205  N          4.4920  -36.8320   -7.0720 N.3   170  ARG170     -0.1231
    206  CA         3.7970  -37.2000   -8.3020 C.3   170  ARG170      0.1694
    207  C          4.7820  -37.4660   -9.4400 C.2   170  ARG170      0.2592
    208  O          4.6590  -38.4560  -10.1700 O.2   170  ARG170     -0.2718
    209  CB         2.8160  -36.1040   -8.7160 C.3   170  ARG170      0.0321
    210  CG         2.2050  -36.3170  -10.0960 C.3   170  ARG170      0.0489
    211  CD         1.4290  -35.0940  -10.5570 C.3   170  ARG170      0.2205
    212  NE         0.8950  -35.2660  -11.9050 N.pl3 170  ARG170     -0.0865
    213  CZ        -0.2540  -35.8790  -12.1790 C.cat 170  ARG170      0.5346
    214  NH1       -0.9900  -36.3850  -11.1980 N.pl3 170  ARG170      0.1354
    215  NH2       -0.6660  -35.9920  -13.4350 N.pl3 170  ARG170      0.1354
    216  N          5.7570  -36.5710   -9.5920 N.am  171  TYR171     -0.1976
    217  CA         6.7440  -36.7030  -10.6560 C.3   171  TYR171      0.1639
    218  C          7.6080  -37.9400  -10.4430 C.2   171  TYR171      0.2290
    219  O          7.9200  -38.6630  -11.3890 O.2   171  TYR171     -0.2864
    220  CB         7.6290  -35.4550  -10.7450 C.3   171  TYR171      0.0560
    221  CG         6.8800  -34.1760  -11.0410 C.ar  171  TYR171     -0.0198
    222  CD1        5.7160  -34.1860  -11.8100 C.ar  171  TYR171     -0.0009
    223  CD2        7.3420  -32.9540  -10.5690 C.ar  171  TYR171     -0.0009
    224  CE1        5.0320  -33.0110  -12.0860 C.ar  171  TYR171      0.0417
    225  CE2        6.6630  -31.7760  -10.8390 C.ar  171  TYR171      0.0417
    226  CZ         5.5050  -31.8120  -11.5960 C.ar  171  TYR171      0.1957
    227  OH         4.8260  -30.6430  -11.8710 O.3   171  TYR171     -0.2866
@<TRIPOS>BOND
     1    46    45    2
     2    45    44    1
     3    43    44    1
     4    44    47    1
     5    47    48    1
     6    48    49    1
     7    41    40    2
     8    49    50    1
     9    38    39    1
    10    53    54    2
    11    53    52    1
    12    51    52    1
    13    86    85    1
    14    58    60   ar
    15    58    56   ar
    16    40    39    1
    17    55    52    1
    18    55    56    1
    19    60    61   ar
    20    39    42    1
    21    65    66    2
    22    65    64    1
    23    56    57   ar
    24    67    64    1
    25    67    68    1
    26    87    85    1
    27    85    82    1
    28    63    64    1
    29    83    84    2
    30    83    82    1
    31    68    69    1
    32    61    62    1
    33    61    59   ar
    34    82    81    1
    35    88    89    1
    36    57    59   ar
    37    81    74   am
    38    72    73    1
    39    24    23    2
    40   215   213    1
    41    89    90    1
    42    89    92    1
    43    69    70   ar
    44    69    71   ar
    45    74    73    1
    46    74    75    2
    47    34    33    1
    48    34    35    2
    49    33    36    1
    50    33    32    1
    51    73    76    1
    52    95    96    2
    53    95    94    1
    54    90    93   am
    55    90    91    2
    56    36    37    1
    57    93    94    1
    58    23    32   am
    59    23    22    1
    60    17    15   ar
    61    17    19   ar
    62   213   212    2
    63   213   214    1
    64   103   104    1
    65   224   222   ar
    66   224   226   ar
    67    76    77    1
    68    15    14   ar
    69   212   211    1
    70    94    97    1
    71   227   226    1
    72    25    22    1
    73    25    26    1
    74   222   221   ar
    75    97    98    1
    76    20    19    1
    77   226   225   ar
    78   219   218    2
    79    28    26   ar
    80    28    30   ar
    81    22    21    1
    82    19    18   ar
    83    77    78    1
    84    21    11   am
    85    79    78    1
    86    79    80    1
    87    98   100   ar
    88    98    99   ar
    89   221   220    1
    90   221   223   ar
    91   100   102   ar
    92    26    27   ar
    93   225   223   ar
    94   104   105    1
    95   104   107    1
    96   105   106    2
    97   220   217    1
    98    99   101   ar
    99   217   218    1
   100   217   216    1
   101    14    13    1
   102    14    16   ar
   103    30    31   ar
   104   211   210    1
   105   102   101   ar
   106    13    10    1
   107    10    11    1
   108    10     9    1
   109   208   207    2
   110    11    12    2
   111   210   209    1
   112    18    16   ar
   113    27    29   ar
   114   107   108    1
   115   107   109    1
   116   216   207   am
   117    31    29   ar
   118   207   206    1
   119   110   111    1
   120   113   112    2
   121   209   206    1
   122   128   127   ar
   123   128   126   ar
   124   127   125   ar
   125     7     6    1
   126     7     8    1
   127   114   111    1
   128   114   115    1
   129   204   203    2
   130   206   205    1
   131     6     5    1
   132   112   111    1
   133   126   124   ar
   134   125   123   ar
   135   203   202    1
   136   202   201    1
   137   115   116    1
   138   116   117    1
   139     5     2    1
   140   147   145   ar
   141   147   149   ar
   142     2     3    1
   143     2     1    1
   144     3     4    2
   145   150   149    1
   146   124   123   ar
   147   145   144   ar
   148   185   184    1
   149   121   120    2
   150   123   122    1
   151   149   148   ar
   152   118   119    1
   153   201   195   am
   154   196   195    2
   155   192   190    1
   156   182   184   ar
   157   182   180   ar
   158   184   183   ar
   159   120   119    1
   160   195   194    1
   161   144   143    1
   162   144   146   ar
   163   122   119    1
   164   148   146   ar
   165   141   140    1
   166   141   142    2
   167   189   188    2
   168   140   143    1
   169   140   139    1
   170   180   179   ar
   171   183   181   ar
   172   190   191    1
   173   190   187    1
   174   188   187    1
   175   194   197    1
   176   194   193    1
   177   197   198    1
   178   187   186    1
   179   179   181   ar
   180   179   178    1
   181   138   136   ar
   182   138   137   ar
   183   136   134   ar
   184   137   135   ar
   185   198   200   ar
   186   198   199   ar
   187   167   166    2
   188   178   175    1
   189   168   166   am
   190   134   135   ar
   191   134   133    1
   192   130   131    1
   193   130   129    1
   194   130   133    1
   195   131   132    2
   196   166   165    1
   197   177   176    2
   198   175   176    1
   199   175   174    1
   200   158   157    2
   201   165   164    1
   202   174   171   am
   203   157   159   am
   204   157   156    1
   205   164   161    1
   206   161   160    1
   207   161   162    1
   208   163   162    2
   209   155   156    1
   210   155   152    1
   211   171   172    2
   212   171   170    1
   213   160   153   am
   214   154   153    2
   215   153   152    1
   216   152   151    1
   217   173   170    1
   218   170   169    1
