@<TRIPOS>MOLECULE
tmp/4f7sA00.pdb
 145 138 0 0 0
SMALL
GASTEIGER

@<TRIPOS>ATOM
      1  N          2.4780   61.9790   45.9030 N.3    27  VAL27      -0.1231
      2  CA         3.3430   60.7800   45.7360 C.3    27  VAL27       0.1692
      3  C          2.8850   59.5150   46.4980 C.2    27  VAL27       0.2592
      4  O          3.3450   58.4200   46.1870 O.2    27  VAL27      -0.2718
      5  CB         4.8180   61.0850   46.1280 C.3    27  VAL27       0.0266
      6  CG1        5.4410   62.0450   45.1390 C.3    27  VAL27       0.0020
      7  CG2        4.9080   61.6460   47.5490 C.3    27  VAL27       0.0020
      8  N          2.0140   59.6720   47.4970 N.am   28  GLY28      -0.1957
      9  CA         1.3970   58.5520   48.2280 C.3    28  GLY28       0.1869
     10  C         -0.0980   58.7980   48.3700 C.2    28  GLY28       0.2309
     11  O         -0.5250   59.9490   48.4920 O.2    28  GLY28      -0.2863
     12  N          0.2180   61.8490   50.6650 N.3    35  VAL35      -0.1245
     13  CA         1.5490   62.4440   50.8130 C.3    35  VAL35       0.1561
     14  C          1.9240   63.2270   49.5450 C.2    35  VAL35       0.2260
     15  O          1.7210   62.7370   48.4250 O.2    35  VAL35      -0.2867
     16  CB         2.6180   61.3670   51.0880 C.3    35  VAL35       0.0252
     17  CG1        3.9600   62.0090   51.4230 C.3    35  VAL35       0.0019
     18  CG2        2.1840   60.4630   52.2380 C.3    35  VAL35       0.0019
     19  N          8.2650   66.3950   52.5100 N.3    50  ALA50      -0.1245
     20  CA         7.0660   65.5700   52.4010 C.3    50  ALA50       0.1562
     21  C          5.9800   66.1710   53.2840 C.2    50  ALA50       0.2260
     22  O          6.2010   66.3890   54.4740 O.2    50  ALA50      -0.2867
     23  CB         7.3540   64.1310   52.8210 C.3    50  ALA50       0.0290
     24  N          2.2220   65.3190   54.6100 N.3    52  LYS52      -0.1245
     25  CA         1.1550   64.3350   54.7760 C.3    52  LYS52       0.1561
     26  C         -0.1170   65.0480   55.2420 C.2    52  LYS52       0.2260
     27  O         -0.1420   65.6110   56.3380 O.2    52  LYS52      -0.2867
     28  CB         1.5660   63.2770   55.8050 C.3    52  LYS52       0.0271
     29  CG         0.5530   62.1400   56.0030 C.3    52  LYS52       0.0035
     30  CD         0.9650   61.2570   57.1700 C.3    52  LYS52       0.0206
     31  CE        -0.0170   60.1220   57.3740 C.3    52  LYS52       0.1093
     32  NZ         0.4520   59.1810   58.4240 N.3    52  LYS52      -0.1314
     33  N         11.7070   58.2630   60.7990 N.3    79  ILE79      -0.1245
     34  CA        11.2620   59.4840   60.1100 C.3    79  ILE79       0.1561
     35  C         10.9540   60.5780   61.1490 C.2    79  ILE79       0.2260
     36  O         10.4000   60.2970   62.2180 O.2    79  ILE79      -0.2867
     37  CB        10.0650   59.1910   59.1540 C.3    79  ILE79       0.0252
     38  CG1       10.0290   60.1990   58.0150 C.3    79  ILE79       0.0019
     39  CG2        8.7160   59.1250   59.9080 C.3    79  ILE79       0.0019
     40  CD1       11.1070   59.9920   56.9700 C.3    79  ILE79       0.0001
     41  N          7.5900   66.5040   56.8800 N.3    97  PHE97      -0.1227
     42  CA         8.8410   65.7450   57.0430 C.3    97  PHE97       0.1736
     43  C          9.8390   66.1120   55.9470 C.2    97  PHE97       0.2595
     44  O          9.4600   66.6890   54.9170 O.2    97  PHE97      -0.2718
     45  CB         8.5810   64.2480   56.9370 C.3    97  PHE97       0.0547
     46  CG         7.4430   63.7520   57.7850 C.ar   97  PHE97      -0.0202
     47  CD1        6.1440   63.7340   57.2830 C.ar   97  PHE97      -0.0042
     48  CD2        7.6730   63.2750   59.0710 C.ar   97  PHE97      -0.0042
     49  CE1        5.0940   63.2690   58.0470 C.ar   97  PHE97      -0.0003
     50  CE2        6.6250   62.7940   59.8440 C.ar   97  PHE97      -0.0003
     51  CZ         5.3310   62.7880   59.3330 C.ar   97  PHE97      -0.0000
     52  N         11.1060   65.7460   56.1580 N.am   98  ASP98      -0.1960
     53  CA        12.1010   65.7690   55.0810 C.3    98  ASP98       0.1840
     54  C         11.7240   64.6770   54.0710 C.2    98  ASP98       0.2622
     55  O         11.2460   63.6160   54.4500 O.2    98  ASP98      -0.2715
     56  CB        13.5360   65.5380   55.6000 C.3    98  ASP98       0.1450
     57  CG        14.1630   66.7850   56.2520 C.2    98  ASP98       0.3671
     58  OD1       13.6680   67.9220   56.0820 O.co2  98  ASP98      -0.2456
     59  OD2       15.1900   66.6130   56.9390 O.co2  98  ASP98      -0.2456
     60  N         11.9250   64.9640   52.7920 N.am   99  TYR99      -0.1960
     61  CA        11.5190   64.0710   51.7050 C.3    99  TYR99       0.1771
     62  C         12.5290   62.9470   51.4930 C.2    99  TYR99       0.2619
     63  O         13.7090   63.2240   51.2920 O.2    99  TYR99      -0.2715
     64  CB        11.3960   64.8820   50.4130 C.3    99  TYR99       0.0574
     65  CG        10.8380   64.1130   49.2410 C.ar   99  TYR99      -0.0198
     66  CD1        9.4850   63.7600   49.1960 C.ar   99  TYR99      -0.0009
     67  CD2       11.6500   63.7530   48.1650 C.ar   99  TYR99      -0.0009
     68  CE1        8.9550   63.0550   48.1140 C.ar   99  TYR99       0.0417
     69  CE2       11.1240   63.0500   47.0690 C.ar   99  TYR99       0.0417
     70  CZ         9.7770   62.7030   47.0560 C.ar   99  TYR99       0.1957
     71  OH         9.2540   62.0160   45.9870 O.3    99  TYR99      -0.2866
     72  N         12.0520   61.6990   51.5120 N.am  100  ALA100     -0.1977
     73  CA        12.8500   60.5180   51.1450 C.3   100  ALA100      0.1597
     74  C         12.5530   60.0640   49.7090 C.2   100  ALA100      0.2287
     75  O         11.4960   59.5060   49.4370 O.2   100  ALA100     -0.2864
     76  CB        12.5890   59.3650   52.1260 C.3   100  ALA100      0.0319
     77  N         12.4990   54.0800   48.5730 N.3   103  ASP103     -0.1239
     78  CA        12.0140   53.1450   49.5720 C.3   103  ASP103      0.1674
     79  C         12.2740   51.7290   49.0920 C.2   103  ASP103      0.2266
     80  O         12.5540   51.5140   47.9030 O.2   103  ASP103     -0.2867
     81  CB        10.5250   53.3600   49.8200 C.3   103  ASP103      0.1410
     82  CG         9.7170   53.2580   48.5610 C.2   103  ASP103      0.3668
     83  OD1        9.3640   54.3130   48.0010 O.co2 103  ASP103     -0.2456
     84  OD2        9.4600   52.1230   48.1200 O.co2 103  ASP103     -0.2456
     85  N         10.2730   49.1300   48.6560 N.3   105  TRP105     -0.1227
     86  CA         9.3160   48.5900   47.6720 C.3   105  TRP105      0.1737
     87  C          9.8160   48.8690   46.2630 C.2   105  TRP105      0.2595
     88  O          9.9390   47.9470   45.4660 O.2   105  TRP105     -0.2718
     89  CB         7.9110   49.1780   47.8690 C.3   105  TRP105      0.0564
     90  CG         6.8280   48.5120   47.0730 C.ar  105  TRP105      0.0003
     91  CD1        6.0430   47.4740   47.4720 C.ar  105  TRP105      0.0946
     92  CD2        6.3950   48.8570   45.7490 C.ar  105  TRP105      0.0152
     93  NE1        5.1520   47.1420   46.4830 N.ar  105  TRP105     -0.2442
     94  CE2        5.3460   47.9720   45.4100 C.ar  105  TRP105      0.0810
     95  CE3        6.7990   49.8180   44.8120 C.ar  105  TRP105      0.0012
     96  CZ2        4.6890   48.0190   44.1710 C.ar  105  TRP105      0.0191
     97  CZ3        6.1400   49.8700   43.5710 C.ar  105  TRP105      0.0001
     98  CH2        5.0970   48.9730   43.2670 C.ar  105  TRP105      0.0015
     99  N         10.1330   50.1350   45.9860 N.am  106  HIS106     -0.1975
    100  CA        10.6710   50.5530   44.6820 C.3   106  HIS106      0.1656
    101  C         12.0810   50.0110   44.4010 C.2   106  HIS106      0.2291
    102  O         12.3620   49.6130   43.2800 O.2   106  HIS106     -0.2864
    103  CB        10.6500   52.0840   44.5310 C.3   106  HIS106      0.0771
    104  CG         9.2940   52.6390   44.2170 C.ar  106  HIS106      0.0820
    105  ND1        8.4360   53.1120   45.1880 N.ar  106  HIS106     -0.2267
    106  CD2        8.6470   52.7900   43.0370 C.ar  106  HIS106      0.1154
    107  CE1        7.3210   53.5330   44.6180 C.ar  106  HIS106      0.1986
    108  NE2        7.4240   53.3500   43.3140 N.ar  106  HIS106     -0.2212
    109  N          7.4960   48.9990   51.7300 N.3   149  ALA149     -0.1245
    110  CA         7.0200   50.3550   51.3840 C.3   149  ALA149      0.1562
    111  C          7.1820   51.3810   52.5200 C.2   149  ALA149      0.2260
    112  O          7.2450   52.5920   52.2620 O.2   149  ALA149     -0.2867
    113  CB         5.5580   50.3180   50.9030 C.3   149  ALA149      0.0290
    114  N         11.7660   53.7530   54.0930 N.3   152  LEU152     -0.1245
    115  CA        12.2190   54.7830   53.1640 C.3   152  LEU152      0.1561
    116  C         13.7590   54.7930   53.1430 C.2   152  LEU152      0.2260
    117  O         14.4080   54.2830   54.0660 O.2   152  LEU152     -0.2867
    118  CB        11.6740   56.1630   53.5580 C.3   152  LEU152      0.0270
    119  CG        10.1850   56.3240   53.9160 C.3   152  LEU152      0.0019
    120  CD1        9.8900   57.7950   54.2210 C.3   152  LEU152      0.0001
    121  CD2        9.2580   55.8180   52.8200 C.3   152  LEU152      0.0001
    122  N          9.0910   54.5820   58.5690 N.3   166  ALA166     -0.1231
    123  CA         7.8910   55.4340   58.4990 C.3   166  ALA166      0.1694
    124  C          6.5970   54.6190   58.6120 C.2   166  ALA166      0.2592
    125  O          6.6230   53.3910   58.6680 O.2   166  ALA166     -0.2718
    126  CB         7.8900   56.2510   57.1820 C.3   166  ALA166      0.0304
    127  N          5.4710   55.3270   58.6380 N.am  167  ASP167     -0.1974
    128  CA         4.1270   54.7470   58.6140 C.3   167  ASP167      0.1709
    129  C          3.9090   53.6990   59.6990 C.2   167  ASP167      0.2293
    130  O          3.3300   52.6360   59.4470 O.2   167  ASP167     -0.2864
    131  CB         3.8160   54.1700   57.2300 C.3   167  ASP167      0.1436
    132  CG         3.6260   55.2360   56.1900 C.2   167  ASP167      0.3671
    133  OD1        2.7400   56.0920   56.3790 O.co2 167  ASP167     -0.2456
    134  OD2        4.3550   55.2160   55.1800 O.co2 167  ASP167     -0.2456
    135  N         10.4370   59.0820   42.2050 N.3   336  ARG336     -0.1245
    136  CA         9.0070   58.7330   42.2480 C.3   336  ARG336      0.1563
    137  C          8.1880   59.5680   41.2740 C.2   336  ARG336      0.2260
    138  O          8.4470   60.7630   41.1030 O.2   336  ARG336     -0.2867
    139  CB         8.4290   58.8920   43.6630 C.3   336  ARG336      0.0307
    140  CG         8.8430   57.7910   44.6170 C.3   336  ARG336      0.0489
    141  CD         7.8740   57.6320   45.7950 C.3   336  ARG336      0.2205
    142  NE         8.5320   56.9960   46.9480 N.pl3 336  ARG336     -0.0865
    143  CZ         9.4190   57.5980   47.7410 C.cat 336  ARG336      0.5346
    144  NH1        9.7710   58.8690   47.5460 N.pl3 336  ARG336      0.1354
    145  NH2        9.9640   56.9280   48.7450 N.pl3 336  ARG336      0.1354
@<TRIPOS>BOND
     1   138   137    2
     2   137   136    1
     3   135   136    1
     4   136   139    1
     5   106   108   ar
     6   106   104   ar
     7    98    97   ar
     8    98    96   ar
     9   102   101    2
    10   108   107   ar
    11    97    95   ar
    12   139   140    1
    13    96    94   ar
    14   104   103    1
    15   104   105   ar
    16   101   100    1
    17   103   100    1
    18   140   141    1
    19   107   105   ar
    20   100    99    1
    21    95    92   ar
    22     6     5    1
    23    94    92   ar
    24    94    93   ar
    25    88    87    2
    26     2     1    1
    27     2     5    1
    28     2     3    1
    29    92    90   ar
    30   141   142    1
    31    99    87   am
    32    71    70    1
    33     5     7    1
    34     4     3    2
    35    87    86    1
    36    93    91   ar
    37     3     8   am
    38   142   143    2
    39    70    69   ar
    40    70    68   ar
    41    69    67   ar
    42    90    91   ar
    43    90    89    1
    44     8     9    1
    45   144   143    1
    46    86    89    1
    47    86    85    1
    48   143   145    1
    49    80    79    2
    50    83    82   ar
    51    68    66   ar
    52    84    82   ar
    53    67    65   ar
    54     9    10    1
    55    10    11    2
    56    15    14    2
    57    82    81    1
    58    77    78    1
    59    79    78    1
    60    66    65   ar
    61    65    64    1
    62    75    74    2
    63    14    13    1
    64    78    81    1
    65    74    73    1
    66    64    61    1
    67    12    13    1
    68    13    16    1
    69   113   110    1
    70    16    17    1
    71    16    18    1
    72    73    72    1
    73    73    76    1
    74    63    62    2
    75   110   109    1
    76   110   111    1
    77    62    72   am
    78    62    61    1
    79    61    60    1
    80   112   111    2
    81    20    19    1
    82    20    23    1
    83    20    21    1
    84    60    54   am
    85   121   119    1
    86   116   115    1
    87   116   117    2
    88   115   118    1
    89   115   114    1
    90    21    22    2
    91   118   119    1
    92   119   120    1
    93    54    55    2
    94    54    53    1
    95    24    25    1
    96    25    26    1
    97    25    28    1
    98    44    43    2
    99    53    56    1
   100    53    52    1
   101   134   132   ar
   102    26    27    2
   103    56    57    1
   104    28    29    1
   105    43    52   am
   106    43    42    1
   107    29    30    1
   108    58    57   ar
   109   132   133   ar
   110   132   131    1
   111    57    59   ar
   112    41    42    1
   113    45    42    1
   114    45    46    1
   115    40    38    1
   116    30    31    1
   117   126   123    1
   118   131   128    1
   119    47    46   ar
   120    47    49   ar
   121    31    32    1
   122    46    48   ar
   123    38    37    1
   124    49    51   ar
   125   123   122    1
   126   123   124    1
   127   124   127   am
   128   124   125    2
   129   128   127    1
   130   128   129    1
   131    48    50   ar
   132    37    39    1
   133    37    34    1
   134    51    50   ar
   135   130   129    2
   136    34    33    1
   137    34    35    1
   138    35    36    2
