@<TRIPOS>MOLECULE
tmp/4f7vA00.pdb
 237 228 0 0 0
SMALL
GASTEIGER

@<TRIPOS>ATOM
      1  N         12.9470   22.1500    9.0800 N.3     8  GLY8       -0.1225
      2  CA        12.7800   23.5810    8.9220 C.3     8  GLY8        0.1811
      3  C         13.1360   24.3800   10.1600 C.2     8  GLY8        0.2280
      4  O         12.9130   23.9360   11.2820 O.2     8  GLY8       -0.2866
      5  N         13.6620   29.6830    1.9990 N.3    42  THR42      -0.1204
      6  CA        12.3110   29.6500    1.4560 C.3    42  THR42       0.1979
      7  C         11.4570   30.7200    2.1260 C.2    42  THR42       0.2459
      8  O         11.5750   30.9820    3.3270 O.2    42  THR42      -0.2732
      9  CB        11.6540   28.2390    1.5850 C.3    42  THR42       0.1783
     10  OG1       11.4370   27.9130    2.9620 O.3    42  THR42      -0.2211
     11  CG2       12.5280   27.1500    0.9820 C.3    42  THR42       0.0376
     12  N         10.5870   31.3600    1.3400 N.am   43  PRO43      -0.2728
     13  CA         9.7000   32.3730    1.9150 C.3    43  PRO43       0.1401
     14  C          8.6790   31.7230    2.8420 C.2    43  PRO43       0.2269
     15  O          8.2270   30.6040    2.5480 O.2    43  PRO43      -0.2865
     16  CB         8.9990   32.9720    0.6950 C.3    43  PRO43       0.0296
     17  CG         9.3490   32.1020   -0.4790 C.3    43  PRO43       0.0237
     18  CD        10.1640   30.9390   -0.0040 C.3    43  PRO43       0.0939
     19  N          5.6180   30.1920    4.5380 N.3    45  LEU45      -0.1245
     20  CA         4.2210   29.8430    4.3360 C.3    45  LEU45       0.1561
     21  C          3.5040   30.3860    5.5670 C.2    45  LEU45       0.2260
     22  O          3.6780   29.8700    6.6760 O.2    45  LEU45      -0.2867
     23  CB         4.0260   28.3400    4.1900 C.3    45  LEU45       0.0270
     24  CG         2.5530   27.9480    4.1780 C.3    45  LEU45       0.0019
     25  CD1        1.8070   28.7670    3.1320 C.3    45  LEU45       0.0001
     26  CD2        2.4040   26.4660    3.9140 C.3    45  LEU45       0.0001
     27  N         12.6980   30.7140    6.0650 N.3    53  TYR53      -0.1241
     28  CA        13.0460   29.4380    6.6540 C.3    53  TYR53       0.1605
     29  C         14.2490   28.8560    5.9400 C.2    53  TYR53       0.2264
     30  O         14.4680   29.0870    4.7490 O.2    53  TYR53      -0.2867
     31  CB        11.9010   28.4390    6.5100 C.3    53  TYR53       0.0534
     32  CG        10.7480   28.7160    7.4400 C.ar   53  TYR53      -0.0201
     33  CD1        9.9990   29.8750    7.3040 C.ar   53  TYR53      -0.0009
     34  CD2       10.4260   27.8310    8.4500 C.ar   53  TYR53      -0.0009
     35  CE1        8.9630   30.1480    8.1520 C.ar   53  TYR53       0.0417
     36  CE2        9.3900   28.1000    9.3160 C.ar   53  TYR53       0.0417
     37  CZ         8.6590   29.2620    9.1500 C.ar   53  TYR53       0.1957
     38  OH         7.6140   29.5560    9.9930 O.3    53  TYR53      -0.2866
     39  N         15.1080   25.2120    4.8830 N.3    55  ASN55      -0.1240
     40  CA        14.5560   23.8820    4.7020 C.3    55  ASN55       0.1653
     41  C         15.5910   22.9630    4.0630 C.2    55  ASN55       0.2266
     42  O         16.4040   23.3830    3.2290 O.2    55  ASN55      -0.2867
     43  CB        13.2730   23.9310    3.8350 C.3    55  ASN55       0.1155
     44  CG        12.0710   24.4860    4.5860 C.2    55  ASN55       0.2627
     45  OD1       11.5430   25.5400    4.2500 O.2    55  ASN55      -0.2716
     46  ND2       11.6560   23.7810    5.6360 N.am   55  ASN55      -0.0877
     47  N          9.7900    8.7130   15.7860 N.3    70  LEU70      -0.1245
     48  CA         9.1120    9.9570   16.1300 C.3    70  LEU70       0.1561
     49  C          9.4780   10.3880   17.5530 C.2    70  LEU70       0.2260
     50  O          9.6750   11.5720   17.7970 O.2    70  LEU70      -0.2867
     51  CB         7.5750    9.8350   15.9930 C.3    70  LEU70       0.0270
     52  CG         6.7600   11.0910   16.2940 C.3    70  LEU70       0.0019
     53  CD1        7.0300   12.1830   15.2770 C.3    70  LEU70       0.0001
     54  CD2        5.2560   10.7380   16.3490 C.3    70  LEU70       0.0001
     55  N         12.7670   12.2390   17.1580 N.3    73  THR73      -0.1203
     56  CA        12.6830   13.5320   16.5010 C.3    73  THR73       0.1994
     57  C         11.9820   14.5530   17.3880 C.2    73  THR73       0.2617
     58  O         12.3680   15.7150   17.4180 O.2    73  THR73      -0.2717
     59  CB        11.9870   13.4490   15.1220 C.3    73  THR73       0.1784
     60  OG1       10.6570   12.9460   15.2640 O.3    73  THR73      -0.2211
     61  CG2       12.7590   12.5210   14.1990 C.3    73  THR73       0.0376
     62  N         10.9610   14.1240   18.1270 N.am   74  GLN74      -0.1979
     63  CA        10.2870   15.0280   19.0560 C.3    74  GLN74       0.1601
     64  C         11.1780   15.4120   20.2300 C.2    74  GLN74       0.2287
     65  O         11.1370   16.5590   20.6890 O.2    74  GLN74      -0.2864
     66  CB         8.9740   14.4330   19.5420 C.3    74  GLN74       0.0394
     67  CG         7.8850   14.4950   18.4790 C.3    74  GLN74       0.0908
     68  CD         6.5830   13.8660   18.9390 C.2    74  GLN74       0.2608
     69  OE1        6.5650   13.0250   19.8230 O.2    74  GLN74      -0.2717
     70  NE2        5.4970   14.2770   18.3350 N.am   74  GLN74      -0.0878
     71  N         13.5150   18.0650   18.8800 N.3    77  GLU77      -0.1245
     72  CA        12.7870   19.3110   18.8150 C.3    77  GLU77       0.1567
     73  C         12.7190   19.9960   20.1780 C.2    77  GLU77       0.2260
     74  O         12.8720   21.1940   20.2520 O.2    77  GLU77      -0.2867
     75  CB        11.3490   19.0940   18.2970 C.3    77  GLU77       0.0388
     76  CG        11.2780   18.7770   16.8000 C.3    77  GLU77       0.1160
     77  CD         9.8660   18.5240   16.3110 C.2    77  GLU77       0.3649
     78  OE1        9.0570   17.9790   17.0890 O.co2  77  GLU77      -0.2457
     79  OE2        9.5640   18.8710   15.1450 O.co2  77  GLU77      -0.2457
     80  N          8.8020   26.9900   17.4240 N.3    85  LYS85      -0.1245
     81  CA         8.4480   25.9030   16.4980 C.3    85  LYS85       0.1561
     82  C          6.9660   25.5270   16.5460 C.2    85  LYS85       0.2260
     83  O          6.5590   24.5670   15.8950 O.2    85  LYS85      -0.2867
     84  CB         9.2630   24.6240   16.7830 C.3    85  LYS85       0.0271
     85  CG         8.5120   23.5650   17.6430 C.3    85  LYS85       0.0035
     86  CD         8.6520   22.1180   17.1350 C.3    85  LYS85       0.0206
     87  CE         7.6200   21.1890   17.8100 C.3    85  LYS85       0.1093
     88  NZ         6.4000   20.8660   16.9700 N.3    85  LYS85      -0.1314
     89  N          1.6300   28.8680   14.8820 N.3    88  ARG88      -0.1231
     90  CA         0.9580   28.1520   13.7990 C.3    88  ARG88       0.1694
     91  C          1.4810   28.5310   12.4190 C.2    88  ARG88       0.2592
     92  O          1.6450   27.6620   11.5560 O.2    88  ARG88      -0.2718
     93  CB        -0.5610   28.3730   13.8700 C.3    88  ARG88       0.0321
     94  CG        -1.3870   27.3830   13.0400 C.3    88  ARG88       0.0489
     95  CD        -2.8920   27.4890   13.3280 C.3    88  ARG88       0.2205
     96  NE        -3.4260   28.8260   13.0590 N.pl3  88  ARG88      -0.0865
     97  CZ        -4.7140   29.1640   13.1320 C.cat  88  ARG88       0.5346
     98  NH1       -5.6360   28.2620   13.4590 N.pl3  88  ARG88       0.1354
     99  NH2       -5.0860   30.4120   12.8640 N.pl3  88  ARG88       0.1354
    100  N          1.7380   29.8190   12.2090 N.am   89  TRP89      -0.1962
    101  CA         2.2620   30.2850   10.9290 C.3    89  TRP89       0.1771
    102  C          3.6850   30.8050   11.0860 C.2    89  TRP89       0.2620
    103  O          4.1690   31.5970   10.2660 O.2    89  TRP89      -0.2715
    104  CB         1.3390   31.3490   10.3190 C.3    89  TRP89       0.0590
    105  CG        -0.0230   30.8000   10.0390 C.ar   89  TRP89       0.0006
    106  CD1       -1.1980   31.1490   10.6460 C.ar   89  TRP89       0.0946
    107  CD2       -0.3490   29.7690    9.0960 C.ar   89  TRP89       0.0152
    108  NE1       -2.2320   30.4050   10.1320 N.ar   89  TRP89      -0.2442
    109  CE2       -1.7390   29.5510    9.1800 C.ar   89  TRP89       0.0810
    110  CE3        0.4010   29.0140    8.1870 C.ar   89  TRP89       0.0012
    111  CZ2       -2.3940   28.6100    8.3860 C.ar   89  TRP89       0.0191
    112  CZ3       -0.2470   28.0850    7.4040 C.ar   89  TRP89       0.0001
    113  CH2       -1.6330   27.8890    7.5060 C.ar   89  TRP89       0.0015
    114  N          4.3460   30.3340   12.1440 N.am   90  GLY90      -0.1954
    115  CA         5.7130   30.7170   12.4390 C.3    90  GLY90       0.1869
    116  C          5.7910   31.8650   13.4290 C.2    90  GLY90       0.2309
    117  O          4.7720   32.4800   13.7610 O.2    90  GLY90      -0.2863
    118  N          9.4010   29.3340   13.5600 N.3    92  ARG92      -0.1245
    119  CA         9.6200   27.9360   13.9560 C.3    92  ARG92       0.1563
    120  C         11.0870   27.7400   14.3280 C.2    92  ARG92       0.2260
    121  O         11.9630   27.8450   13.4850 O.2    92  ARG92      -0.2867
    122  CB         9.2680   26.9640   12.8150 C.3    92  ARG92       0.0307
    123  CG         7.8390   27.0760   12.2510 C.3    92  ARG92       0.0489
    124  CD         6.7430   26.7960   13.2710 C.3    92  ARG92       0.2205
    125  NE         6.5820   25.3660   13.5290 N.pl3  92  ARG92      -0.0865
    126  CZ         5.4480   24.7870   13.9220 C.cat  92  ARG92       0.5346
    127  NH1        4.3500   25.5110   14.1290 N.pl3  92  ARG92       0.1354
    128  NH2        5.4210   23.4730   14.1350 N.pl3  92  ARG92       0.1354
    129  N         11.5380   22.3870   13.3590 N.3    95  ASP95      -0.1225
    130  CA        10.6410   21.2800   13.0700 C.3    95  ASP95       0.1805
    131  C         11.3560   20.1460   12.3600 C.2    95  ASP95       0.2598
    132  O         12.1710   20.3640   11.4570 O.2    95  ASP95      -0.2718
    133  CB         9.4960   21.7430   12.1730 C.3    95  ASP95       0.1424
    134  CG         8.7990   22.9590   12.6980 C.2    95  ASP95       0.3668
    135  OD1        8.4450   22.9660   13.8930 O.co2  95  ASP95      -0.2456
    136  OD2        8.6160   23.9130   11.9150 O.co2  95  ASP95      -0.2456
    137  N         11.0520   18.9420   12.7960 N.am   96  LEU96      -0.1966
    138  CA        11.4900   17.7120   12.1650 C.3    96  LEU96       0.1728
    139  C         10.2550   16.9020   11.8060 C.2    96  LEU96       0.2616
    140  O          9.5350   16.4410   12.6960 O.2    96  LEU96      -0.2715
    141  CB        12.3770   16.9360   13.1190 C.3    96  LEU96       0.0311
    142  CG        13.6850   17.6480   13.4630 C.3    96  LEU96       0.0022
    143  CD1       14.4550   16.8960   14.5370 C.3    96  LEU96       0.0001
    144  CD2       14.5450   17.8120   12.2180 C.3    96  LEU96       0.0001
    145  N         10.0000   16.7530   10.5060 N.am   97  ASP97      -0.1957
    146  CA         8.8300   16.0320   10.0210 C.3    97  ASP97       0.1840
    147  C          9.2080   14.7770    9.2800 C.2    97  ASP97       0.2621
    148  O          9.9760   14.8370    8.3130 O.2    97  ASP97      -0.2715
    149  CB         8.0590   16.9300    9.0740 C.3    97  ASP97       0.1450
    150  CG         7.0350   17.7530    9.7800 C.2    97  ASP97       0.3671
    151  OD1        6.1650   17.1320   10.4240 O.co2  97  ASP97      -0.2456
    152  OD2        7.1130   18.9970    9.6920 O.co2  97  ASP97      -0.2456
    153  N          8.6630   13.6420    9.7090 N.am   98  ILE98      -0.1977
    154  CA         8.8490   12.3910    9.0090 C.3    98  ILE98       0.1596
    155  C          7.9700   12.4170    7.7700 C.2    98  ILE98       0.2287
    156  O          6.7420   12.4360    7.8640 O.2    98  ILE98      -0.2864
    157  CB         8.4780   11.1950    9.9040 C.3    98  ILE98       0.0276
    158  CG1        9.3100   11.2270   11.1790 C.3    98  ILE98       0.0022
    159  CG2        8.7090    9.8650    9.1820 C.3    98  ILE98       0.0022
    160  CD1        8.9120   10.1540   12.1440 C.3    98  ILE98       0.0001
    161  N         -0.6850    9.4690   16.5000 N.3   110  ARG110     -0.1231
    162  CA         0.6060   10.1560   16.5690 C.3   110  ARG110      0.1694
    163  C          1.2070   10.4450   15.1920 C.2   110  ARG110      0.2592
    164  O          1.8920   11.4600   15.0160 O.2   110  ARG110     -0.2718
    165  CB         1.6110    9.3350   17.3810 C.3   110  ARG110      0.0321
    166  CG         1.3320    9.3050   18.8980 C.3   110  ARG110      0.0489
    167  CD         2.4830    8.6540   19.6250 C.3   110  ARG110      0.2205
    168  NE         3.5970    9.5750   19.6790 N.pl3 110  ARG110     -0.0865
    169  CZ         4.8430    9.2250   19.9750 C.cat 110  ARG110      0.5346
    170  NH1        5.1460    7.9580   20.2280 N.pl3 110  ARG110      0.1354
    171  NH2        5.7870   10.1540   20.0060 N.pl3 110  ARG110      0.1354
    172  N          0.9350    9.5690   14.2220 N.am  111  LEU111     -0.1966
    173  CA         1.6570    9.6110   12.9380 C.3   111  LEU111      0.1728
    174  C          0.7540    9.5830   11.7010 C.2   111  LEU111      0.2617
    175  O         -0.1710    8.7850   11.6140 O.2   111  LEU111     -0.2715
    176  CB         2.5770    8.4070   12.8290 C.3   111  LEU111      0.0311
    177  CG         3.9620    8.5070   13.4640 C.3   111  LEU111      0.0022
    178  CD1        4.6780    7.1590   13.3830 C.3   111  LEU111      0.0001
    179  CD2        4.7500    9.5810   12.7590 C.3   111  LEU111      0.0001
    180  N          1.0590   10.4280   10.7300 N.am  112  THR112     -0.1937
    181  CA         0.4510   10.3040    9.4150 C.3   112  THR112      0.2028
    182  C          1.6070   10.2180    8.4290 C.2   112  THR112      0.2642
    183  O          2.3380   11.1780    8.2750 O.2   112  THR112     -0.2714
    184  CB        -0.4150   11.4890    9.0600 C.3   112  THR112      0.1808
    185  OG1       -1.5230   11.5650    9.9690 O.3   112  THR112     -0.2208
    186  CG2       -0.9530   11.3300    7.6750 C.3   112  THR112      0.0379
    187  N          1.7590    9.0540    7.8090 N.am  113  VAL113     -0.1977
    188  CA         2.8330    8.8370    6.8450 C.3   113  VAL113      0.1596
    189  C          2.2010    8.1880    5.6230 C.2   113  VAL113      0.2287
    190  O          1.4620    7.2050    5.7440 O.2   113  VAL113     -0.2864
    191  CB         3.9190    7.8970    7.3990 C.3   113  VAL113      0.0276
    192  CG1        4.9540    7.5830    6.3000 C.3   113  VAL113      0.0022
    193  CG2        4.5560    8.5270    8.6190 C.3   113  VAL113      0.0022
    194  N          3.5550   12.1390    5.0600 N.3   115  HIS115     -0.1226
    195  CA         3.2270   13.3720    5.7460 C.3   115  HIS115      0.1752
    196  C          1.9660   14.0320    5.1820 C.2   115  HIS115      0.2596
    197  O          1.7670   14.0850    3.9690 O.2   115  HIS115     -0.2718
    198  CB         4.4230   14.3380    5.6640 C.3   115  HIS115      0.0759
    199  CG         4.1900   15.6770    6.2830 C.ar  115  HIS115      0.0818
    200  ND1        3.5460   16.7080    5.6270 N.ar  115  HIS115     -0.2268
    201  CD2        4.5630   16.1810    7.4830 C.ar  115  HIS115      0.1154
    202  CE1        3.5170   17.7750    6.3970 C.ar  115  HIS115      0.1986
    203  NE2        4.1360   17.4850    7.5320 N.ar  115  HIS115     -0.2212
    204  N          1.1690   14.5770    6.0990 N.am  116  TYR116     -0.1976
    205  CA        -0.2140   14.9940    5.8300 C.3   116  TYR116      0.1639
    206  C         -0.3760   16.1120    4.7910 C.2   116  TYR116      0.2290
    207  O         -1.4140   16.2010    4.1370 O.2   116  TYR116     -0.2864
    208  CB        -0.9160   15.4020    7.1560 C.3   116  TYR116      0.0560
    209  CG        -0.6560   16.8380    7.6040 C.ar  116  TYR116     -0.0198
    210  CD1        0.5700   17.2180    8.1460 C.ar  116  TYR116     -0.0009
    211  CD2       -1.6410   17.8100    7.5110 C.ar  116  TYR116     -0.0009
    212  CE1        0.8130   18.5160    8.5410 C.ar  116  TYR116      0.0417
    213  CE2       -1.4070   19.1200    7.9310 C.ar  116  TYR116      0.0417
    214  CZ        -0.1740   19.4630    8.4410 C.ar  116  TYR116      0.1957
    215  OH         0.0880   20.7560    8.8590 O.3   116  TYR116     -0.2866
    216  N          3.4230   21.4330   -0.3400 N.3   121  ARG121     -0.1245
    217  CA         4.5130   22.2430    0.1930 C.3   121  ARG121      0.1563
    218  C          5.7810   22.0720   -0.6330 C.2   121  ARG121      0.2260
    219  O          6.5110   21.0970   -0.4810 O.2   121  ARG121     -0.2867
    220  CB         4.7780   21.8290    1.6380 C.3   121  ARG121      0.0307
    221  CG         3.5870   22.1080    2.5230 C.3   121  ARG121      0.0489
    222  CD         3.8170   21.6670    3.9440 C.3   121  ARG121      0.2205
    223  NE         2.6390   21.9780    4.7330 N.pl3 121  ARG121     -0.0865
    224  CZ         2.6120   22.1930    6.0460 C.cat 121  ARG121      0.5346
    225  NH1        3.7090   22.1150    6.7810 N.pl3 121  ARG121      0.1354
    226  NH2        1.4580   22.4780    6.6220 N.pl3 121  ARG121      0.1354
    227  N          8.4540   23.5420   -0.3680 N.3   123  PHE123     -0.1241
    228  CA         9.6450   23.5800    0.5050 C.3   123  PHE123      0.1605
    229  C          9.9810   22.2250    1.1270 C.2   123  PHE123      0.2264
    230  O         11.0760   22.0350    1.6450 O.2   123  PHE123     -0.2867
    231  CB         9.5480   24.6970    1.5480 C.3   123  PHE123      0.0534
    232  CG         8.3680   24.5940    2.4860 C.ar  123  PHE123     -0.0203
    233  CD1        8.3930   23.7530    3.5690 C.ar  123  PHE123     -0.0042
    234  CD2        7.2880   25.4280    2.3240 C.ar  123  PHE123     -0.0042
    235  CE1        7.3260   23.6820    4.4490 C.ar  123  PHE123     -0.0003
    236  CE2        6.2120   25.3570    3.1960 C.ar  123  PHE123     -0.0003
    237  CZ         6.2470   24.4860    4.2580 C.ar  123  PHE123     -0.0000
@<TRIPOS>BOND
     1   218   219    2
     2   218   217    1
     3    17    18    1
     4    17    16    1
     5   227   228    1
     6   216   217    1
     7    18    12    1
     8   217   220    1
     9   228   229    1
    10   228   231    1
    11    16    13    1
    12    11     9    1
    13   229   230    2
    14    12    13    1
    15    12     7   am
    16     6     9    1
    17     6     5    1
    18     6     7    1
    19   231   232    1
    20     9    10    1
    21   220   221    1
    22    13    14    1
    23     7     8    2
    24   234   232   ar
    25   234   236   ar
    26   232   233   ar
    27   221   222    1
    28    15    14    2
    29    25    24    1
    30   236   237   ar
    31    42    41    2
    32   233   235   ar
    33    43    44    1
    34    43    40    1
    35    26    24    1
    36   222   223    1
    37   197   196    2
    38    41    40    1
    39   207   206    2
    40    24    23    1
    41    23    20    1
    42    45    44    2
    43   237   235   ar
    44    20    19    1
    45    20    21    1
    46    44    46   am
    47    40    39    1
    48   223   224    2
    49    30    29    2
    50   206   205    1
    51   194   195    1
    52   196   195    1
    53   196   204   am
    54    21    22    2
    55   189   190    2
    56   189   188    1
    57   200   199   ar
    58   200   202   ar
    59   198   195    1
    60   198   199    1
    61   205   204    1
    62   205   208    1
    63    29    28    1
    64   224   226    1
    65   224   225    1
    66    27    28    1
    67   199   201   ar
    68   192   191    1
    69   202   203   ar
    70    31    28    1
    71    31    32    1
    72   188   191    1
    73   188   187    1
    74   208   209    1
    75    33    32   ar
    76    33    35   ar
    77   191   193    1
    78   112   113   ar
    79   112   110   ar
    80    32    34   ar
    81   201   203   ar
    82   113   111   ar
    83   211   209   ar
    84   211   213   ar
    85   209   210   ar
    86   186   184    1
    87   155   156    2
    88   155   154    1
    89   187   182   am
    90   213   214   ar
    91   210   212   ar
    92    35    37   ar
    93   110   107   ar
    94   183   182    2
    95   148   147    2
    96   111   109   ar
    97   182   181    1
    98   214   212   ar
    99   214   215    1
   100    34    36   ar
   101     2     1    1
   102     2     3    1
   103   154   153    1
   104   154   157    1
   105   184   181    1
   106   184   185    1
   107   149   150    1
   108   149   146    1
   109   107   109   ar
   110   107   105   ar
   111    37    36   ar
   112    37    38    1
   113   109   108   ar
   114   159   157    1
   115   147   153   am
   116   147   146    1
   117   181   180    1
   118   152   150   ar
   119   150   151   ar
   120   157   158    1
   121   146   145    1
   122   105   104    1
   123   105   106   ar
   124   108   106   ar
   125     3     4    2
   126   103   102    2
   127   104   101    1
   128   145   139   am
   129   180   174   am
   130   101   102    1
   131   101   100    1
   132   102   114   am
   133   158   160    1
   134   132   131    2
   135    92    91    2
   136   175   174    2
   137   174   173    1
   138   139   138    1
   139   139   140    2
   140   136   134   ar
   141   114   115    1
   142   138   137    1
   143   138   141    1
   144   133   134    1
   145   133   130    1
   146   100    91   am
   147   144   142    1
   148   123   122    1
   149   123   124    1
   150   131   137   am
   151   131   130    1
   152    91    90    1
   153   115   116    1
   154   134   135   ar
   155   179   177    1
   156   122   119    1
   157   176   173    1
   158   176   177    1
   159    99    97    1
   160   173   172    1
   161    94    95    1
   162    94    93    1
   163    96    97    2
   164    96    95    1
   165   130   129    1
   166   141   142    1
   167    97    98    1
   168   124   125    1
   169   178   177    1
   170   116   117    2
   171   142   143    1
   172   121   120    2
   173   125   126    2
   174   118   119    1
   175    90    93    1
   176    90    89    1
   177   126   127    1
   178   126   128    1
   179   119   120    1
   180    61    59    1
   181   172   163   am
   182   164   163    2
   183    59    60    1
   184    59    56    1
   185    79    77   ar
   186   163   162    1
   187    53    52    1
   188    47    48    1
   189    83    82    2
   190    51    48    1
   191    51    52    1
   192    48    49    1
   193    52    54    1
   194    77    76    1
   195    77    78   ar
   196    81    82    1
   197    81    84    1
   198    81    80    1
   199   161   162    1
   200    56    55    1
   201    56    57    1
   202   162   165    1
   203    84    85    1
   204    76    75    1
   205    88    87    1
   206    86    85    1
   207    86    87    1
   208   165   166    1
   209    57    58    2
   210    57    62   am
   211    49    50    2
   212    62    63    1
   213    75    72    1
   214    70    68   am
   215    67    68    1
   216    67    66    1
   217    72    71    1
   218    72    73    1
   219   166   167    1
   220    68    69    2
   221    63    66    1
   222    63    64    1
   223   167   168    1
   224   168   169    2
   225   169   171    1
   226   169   170    1
   227    73    74    2
   228    64    65    2
