@<TRIPOS>MOLECULE
tmp/4f7wA01.pdb
 200 192 0 0 0
SMALL
GASTEIGER

@<TRIPOS>ATOM
      1  N        -21.0670   40.1260  -58.8350 N.3    90  VAL90      -0.1245
      2  CA       -22.1860   41.0230  -58.5040 C.3    90  VAL90       0.1561
      3  C        -23.0200   41.2470  -59.7840 C.2    90  VAL90       0.2260
      4  O        -22.4740   41.5470  -60.8320 O.2    90  VAL90      -0.2867
      5  CB       -21.6910   42.3890  -57.9880 C.3    90  VAL90       0.0252
      6  CG1      -22.8730   43.2900  -57.6400 C.3    90  VAL90       0.0019
      7  CG2      -20.7760   42.2380  -56.7820 C.3    90  VAL90       0.0019
      8  N        -27.1260   35.6140  -59.3140 N.3    94  LYS94      -0.1245
      9  CA       -27.0700   34.5830  -58.2870 C.3    94  LYS94       0.1561
     10  C        -28.3660   34.5120  -57.4980 C.2    94  LYS94       0.2260
     11  O        -28.8870   33.4140  -57.1820 O.2    94  LYS94      -0.2867
     12  CB       -25.9250   34.8510  -57.3050 C.3    94  LYS94       0.0271
     13  CG       -24.5090   34.8150  -57.8950 C.3    94  LYS94       0.0035
     14  CD       -23.4660   35.1000  -56.8390 C.3    94  LYS94       0.0206
     15  CE       -23.6320   36.4840  -56.1940 C.3    94  LYS94       0.1093
     16  NZ       -23.5570   37.5710  -57.2060 N.3    94  LYS94      -0.1314
     17  N        -24.2320   37.8690  -48.1090 N.3   120  ASP120     -0.1239
     18  CA       -24.3270   39.3180  -47.8310 C.3   120  ASP120      0.1674
     19  C        -24.4690   39.6330  -46.3190 C.2   120  ASP120      0.2266
     20  O        -23.8650   40.5690  -45.8080 O.2   120  ASP120     -0.2867
     21  CB       -25.5190   39.9570  -48.5950 C.3   120  ASP120      0.1410
     22  CG       -25.3200   39.9740  -50.1320 C.2   120  ASP120      0.3668
     23  OD1      -24.1890   39.8160  -50.5860 O.co2 120  ASP120     -0.2456
     24  OD2      -26.3200   40.1160  -50.8700 O.co2 120  ASP120     -0.2456
     25  N        -21.2600   40.1230  -44.2470 N.3   123  LEU123     -0.1245
     26  CA       -20.4820   41.3630  -44.3590 C.3   123  LEU123      0.1561
     27  C        -20.3530   42.0280  -42.9780 C.2   123  LEU123      0.2260
     28  O        -21.3000   41.9770  -42.1930 O.2   123  LEU123     -0.2867
     29  CB       -21.2250   42.3280  -45.2540 C.3   123  LEU123      0.0270
     30  CG       -21.1560   42.0650  -46.7600 C.3   123  LEU123      0.0019
     31  CD1      -22.1910   42.8900  -47.5080 C.3   123  LEU123      0.0001
     32  CD2      -19.7500   42.3330  -47.2760 C.3   123  LEU123      0.0001
     33  N        -16.6590   46.8550  -50.0490 N.3   138  LYS138     -0.1231
     34  CA       -17.7460   45.9850  -49.6660 C.3   138  LYS138      0.1693
     35  C        -17.8170   44.8920  -50.7280 C.2   138  LYS138      0.2592
     36  O        -17.8060   45.1880  -51.9340 O.2   138  LYS138     -0.2718
     37  CB       -19.0630   46.7650  -49.5670 C.3   138  LYS138      0.0285
     38  CG       -20.2050   45.9780  -48.9320 C.3   138  LYS138      0.0035
     39  CD       -21.5070   46.7580  -48.7870 C.3   138  LYS138      0.0206
     40  CE       -21.5550   47.5260  -47.4890 C.3   138  LYS138      0.1093
     41  NZ       -22.9100   48.0590  -47.2370 N.3   138  LYS138     -0.1314
     42  N        -17.8670   43.6350  -50.2700 N.am  139  GLY139     -0.1957
     43  CA       -17.7960   42.4540  -51.1430 C.3   139  GLY139      0.1869
     44  C        -16.3990   41.8740  -51.3760 C.2   139  GLY139      0.2309
     45  O        -16.2820   40.7740  -51.9380 O.2   139  GLY139     -0.2863
     46  N        -15.7800   40.8360  -45.1260 N.3   144  TYR144     -0.1241
     47  CA       -16.6140   39.7700  -44.6070 C.3   144  TYR144      0.1605
     48  C        -16.1360   39.2760  -43.2550 C.2   144  TYR144      0.2264
     49  O        -14.9490   39.2030  -42.9870 O.2   144  TYR144     -0.2867
     50  CB       -16.6380   38.5420  -45.5450 C.3   144  TYR144      0.0534
     51  CG       -17.4540   38.7220  -46.7800 C.ar  144  TYR144     -0.0201
     52  CD1      -18.8380   38.5780  -46.7490 C.ar  144  TYR144     -0.0009
     53  CD2      -16.8530   39.0440  -47.9850 C.ar  144  TYR144     -0.0009
     54  CE1      -19.5960   38.7840  -47.8880 C.ar  144  TYR144      0.0417
     55  CE2      -17.6070   39.2560  -49.1230 C.ar  144  TYR144      0.0417
     56  CZ       -18.9780   39.1070  -49.0630 C.ar  144  TYR144      0.1957
     57  OH       -19.7010   39.3010  -50.1740 O.3   144  TYR144     -0.2866
     58  N        -28.6850   40.9210  -44.4240 N.3   168  TYR168     -0.1241
     59  CA       -28.2630   42.1840  -45.0440 C.3   168  TYR168      0.1605
     60  C        -29.4210   42.7290  -45.8540 C.2   168  TYR168      0.2264
     61  O        -30.2270   41.9740  -46.3310 O.2   168  TYR168     -0.2867
     62  CB       -27.0880   41.9010  -45.9580 C.3   168  TYR168      0.0534
     63  CG       -26.5160   43.0920  -46.6450 C.ar  168  TYR168     -0.0201
     64  CD1      -25.5410   43.8580  -46.0340 C.ar  168  TYR168     -0.0009
     65  CD2      -26.9280   43.4400  -47.9140 C.ar  168  TYR168     -0.0009
     66  CE1      -25.0060   44.9540  -46.6570 C.ar  168  TYR168      0.0417
     67  CE2      -26.3920   44.5210  -48.5510 C.ar  168  TYR168      0.0417
     68  CZ       -25.4280   45.2680  -47.9210 C.ar  168  TYR168      0.1957
     69  OH       -24.9160   46.3470  -48.5480 O.3   168  TYR168     -0.2866
     70  N        -30.0500   45.2530  -49.1510 N.3   170  HIS170     -0.1241
     71  CA       -29.5770   46.1200  -50.2280 C.3   170  HIS170      0.1621
     72  C        -30.3300   47.4650  -50.2200 C.2   170  HIS170      0.2264
     73  O        -29.8010   48.4930  -50.6760 O.2   170  HIS170     -0.2867
     74  CB       -29.7560   45.4010  -51.5640 C.3   170  HIS170      0.0745
     75  CG       -28.9290   44.1660  -51.6680 C.ar  170  HIS170      0.0817
     76  ND1      -27.5900   44.1990  -51.9950 N.ar  170  HIS170     -0.2268
     77  CD2      -29.2260   42.8690  -51.4210 C.ar  170  HIS170      0.1154
     78  CE1      -27.1020   42.9700  -51.9700 C.ar  170  HIS170      0.1986
     79  NE2      -28.0720   42.1450  -51.6230 N.ar  170  HIS170     -0.2212
     80  N        -28.5700   49.3050  -47.6350 N.3   173  TYR173     -0.1241
     81  CA       -27.1140   49.1240  -47.8320 C.3   173  TYR173      0.1605
     82  C        -26.3510   48.7730  -46.5290 C.2   173  TYR173      0.2264
     83  O        -25.2790   49.3080  -46.2730 O.2   173  TYR173     -0.2867
     84  CB       -26.5310   50.3980  -48.4470 C.3   173  TYR173      0.0534
     85  CG       -25.1830   50.2560  -49.1120 C.ar  173  TYR173     -0.0201
     86  CD1      -24.9690   49.2700  -50.0690 C.ar  173  TYR173     -0.0009
     87  CD2      -24.1440   51.1460  -48.8320 C.ar  173  TYR173     -0.0009
     88  CE1      -23.7600   49.1530  -50.7100 C.ar  173  TYR173      0.0417
     89  CE2      -22.9160   51.0350  -49.4600 C.ar  173  TYR173      0.0417
     90  CZ       -22.7320   50.0330  -50.4000 C.ar  173  TYR173      0.1957
     91  OH       -21.5590   49.8840  -51.0620 O.3   173  TYR173     -0.2866
     92  N        -21.0470   35.8410  -53.6680 N.3   194  LEU194     -0.1245
     93  CA       -19.9090   35.9440  -54.5520 C.3   194  LEU194      0.1561
     94  C        -18.6730   35.2050  -54.0590 C.2   194  LEU194      0.2260
     95  O        -17.8160   34.8960  -54.8450 O.2   194  LEU194     -0.2867
     96  CB       -19.5740   37.4000  -54.8420 C.3   194  LEU194      0.0270
     97  CG       -19.1600   38.2650  -53.6780 C.3   194  LEU194      0.0019
     98  CD1      -17.6980   38.1010  -53.3640 C.3   194  LEU194      0.0001
     99  CD2      -19.5200   39.7240  -53.9660 C.3   194  LEU194      0.0001
    100  N        -25.9260   45.4290  -63.9650 N.3   233  TYR233     -0.1241
    101  CA       -25.7070   46.1280  -62.6930 C.3   233  TYR233      0.1605
    102  C        -26.3970   47.5060  -62.7100 C.2   233  TYR233      0.2264
    103  O        -27.0760   47.8860  -61.7710 O.2   233  TYR233     -0.2867
    104  CB       -24.2150   46.3190  -62.3860 C.3   233  TYR233      0.0534
    105  CG       -24.0280   47.1290  -61.1040 C.ar  233  TYR233     -0.0201
    106  CD1      -24.0550   46.5080  -59.8870 C.ar  233  TYR233     -0.0009
    107  CD2      -23.8920   48.5280  -61.1320 C.ar  233  TYR233     -0.0009
    108  CE1      -23.9560   47.2200  -58.7130 C.ar  233  TYR233      0.0417
    109  CE2      -23.7730   49.2590  -59.9630 C.ar  233  TYR233      0.0417
    110  CZ       -23.8180   48.6050  -58.7530 C.ar  233  TYR233      0.1957
    111  OH       -23.7010   49.2660  -57.5610 O.3   233  TYR233     -0.2866
    112  N        -30.2130   47.3080  -62.7330 N.3   236  ARG236     -0.1231
    113  CA       -30.7090   46.9660  -61.4120 C.3   236  ARG236      0.1694
    114  C        -30.6910   48.1850  -60.5150 C.2   236  ARG236      0.2592
    115  O        -31.6120   48.4120  -59.7200 O.2   236  ARG236     -0.2718
    116  CB       -29.8810   45.8550  -60.7590 C.3   236  ARG236      0.0321
    117  CG       -30.4790   45.3970  -59.4240 C.3   236  ARG236      0.0489
    118  CD       -29.7510   44.1950  -58.8560 C.3   236  ARG236      0.2205
    119  NE       -28.3830   44.5640  -58.5170 N.pl3 236  ARG236     -0.0865
    120  CZ       -27.4660   43.7290  -58.0410 C.cat 236  ARG236      0.5346
    121  NH1      -27.7600   42.4380  -57.8200 N.pl3 236  ARG236      0.1354
    122  NH2      -26.2540   44.1990  -57.7650 N.pl3 236  ARG236      0.1354
    123  N        -29.6080   48.9400  -60.6040 N.am  237  PHE237     -0.1976
    124  CA       -29.4490   50.1580  -59.8310 C.3   237  PHE237      0.1639
    125  C        -30.6180   51.1310  -60.1380 C.2   237  PHE237      0.2290
    126  O        -31.2290   51.6960  -59.2260 O.2   237  PHE237     -0.2864
    127  CB       -28.0920   50.7780  -60.1300 C.3   237  PHE237      0.0560
    128  CG       -27.8590   52.0770  -59.4360 C.ar  237  PHE237     -0.0200
    129  CD1      -28.3980   53.2400  -59.9420 C.ar  237  PHE237     -0.0042
    130  CD2      -27.0920   52.1360  -58.2970 C.ar  237  PHE237     -0.0042
    131  CE1      -28.1960   54.4440  -59.3090 C.ar  237  PHE237     -0.0003
    132  CE2      -26.8790   53.3430  -57.6510 C.ar  237  PHE237     -0.0003
    133  CZ       -27.4310   54.4970  -58.1690 C.ar  237  PHE237     -0.0000
    134  N        -31.7200   53.6370  -49.0420 N.3   251  TYR251     -0.1227
    135  CA       -30.4690   54.2850  -49.3290 C.3   251  TYR251      0.1736
    136  C        -30.4220   54.8440  -50.7500 C.2   251  TYR251      0.2595
    137  O        -29.7060   55.8160  -51.0230 O.2   251  TYR251     -0.2718
    138  CB       -29.3310   53.2870  -49.1480 C.3   251  TYR251      0.0548
    139  CG       -27.9740   53.9260  -49.0520 C.ar  251  TYR251     -0.0200
    140  CD1      -27.2410   54.1570  -50.1760 C.ar  251  TYR251     -0.0009
    141  CD2      -27.4330   54.2980  -47.8200 C.ar  251  TYR251     -0.0009
    142  CE1      -25.9940   54.7490  -50.1090 C.ar  251  TYR251      0.0417
    143  CE2      -26.1720   54.8850  -47.7370 C.ar  251  TYR251      0.0417
    144  CZ       -25.4620   55.1050  -48.9020 C.ar  251  TYR251      0.1957
    145  OH       -24.2210   55.6900  -48.9160 O.3   251  TYR251     -0.2866
    146  N        -31.1650   54.2250  -51.6600 N.am  252  PHE252     -0.1976
    147  CA       -31.2310   54.7370  -53.0250 C.3   252  PHE252      0.1639
    148  C        -32.0120   56.0360  -53.1630 C.2   252  PHE252      0.2290
    149  O        -31.9430   56.6680  -54.1970 O.2   252  PHE252     -0.2864
    150  CB       -31.7810   53.6820  -53.9530 C.3   252  PHE252      0.0560
    151  CG       -30.8650   52.5140  -54.1110 C.ar  252  PHE252     -0.0200
    152  CD1      -30.9380   51.4320  -53.2400 C.ar  252  PHE252     -0.0042
    153  CD2      -29.9310   52.4930  -55.1260 C.ar  252  PHE252     -0.0042
    154  CE1      -30.0690   50.3550  -53.3810 C.ar  252  PHE252     -0.0003
    155  CE2      -29.0650   51.4290  -55.2610 C.ar  252  PHE252     -0.0003
    156  CZ       -29.1310   50.3660  -54.3860 C.ar  252  PHE252     -0.0000
    157  N        -29.9960   58.6830  -54.5500 N.3   255  TYR255     -0.1241
    158  CA       -29.8100   58.6810  -55.9870 C.3   255  TYR255      0.1605
    159  C        -31.0880   59.0340  -56.7550 C.2   255  TYR255      0.2264
    160  O        -31.0150   59.4890  -57.8820 O.2   255  TYR255     -0.2867
    161  CB       -29.1430   57.3480  -56.4490 C.3   255  TYR255      0.0534
    162  CG       -27.8330   57.1380  -55.7170 C.ar  255  TYR255     -0.0201
    163  CD1      -26.7550   58.0030  -55.9200 C.ar  255  TYR255     -0.0009
    164  CD2      -27.6830   56.1240  -54.7840 C.ar  255  TYR255     -0.0009
    165  CE1      -25.5600   57.8380  -55.2340 C.ar  255  TYR255      0.0417
    166  CE2      -26.5000   55.9540  -54.0870 C.ar  255  TYR255      0.0417
    167  CZ       -25.4440   56.7950  -54.3260 C.ar  255  TYR255      0.1957
    168  OH       -24.2800   56.6300  -53.6410 O.3   255  TYR255     -0.2866
    169  N        -19.3110   53.0410  -59.5280 N.3   270  LEU270     -0.1245
    170  CA       -19.3460   52.0150  -58.4920 C.3   270  LEU270      0.1561
    171  C        -19.0580   50.6500  -59.0960 C.2   270  LEU270      0.2260
    172  O        -18.3360   49.8480  -58.4710 O.2   270  LEU270     -0.2867
    173  CB       -20.6970   51.9240  -57.7790 C.3   270  LEU270      0.0270
    174  CG       -21.0670   53.0420  -56.8140 C.3   270  LEU270      0.0019
    175  CD1      -22.6030   53.0660  -56.6530 C.3   270  LEU270      0.0001
    176  CD2      -20.3220   52.8970  -55.4770 C.3   270  LEU270      0.0001
    177  N        -15.4210   49.2340  -57.8760 N.3   274  ILE274     -0.1231
    178  CA       -15.5940   48.2940  -56.7690 C.3   274  ILE274      0.1692
    179  C        -15.8920   46.8810  -57.2970 C.2   274  ILE274      0.2592
    180  O        -15.0860   45.9780  -57.1110 O.2   274  ILE274     -0.2718
    181  CB       -16.6780   48.7330  -55.7580 C.3   274  ILE274      0.0266
    182  CG1      -16.4290   50.1780  -55.2540 C.3   274  ILE274      0.0019
    183  CG2      -16.7260   47.7690  -54.5780 C.3   274  ILE274      0.0020
    184  CD1      -17.2980   50.6190  -54.0740 C.3   274  ILE274      0.0001
    185  N        -17.0370   46.6980  -57.9380 N.am  275  ASN275     -0.1974
    186  CA       -17.4930   45.3370  -58.3100 C.3   275  ASN275      0.1688
    187  C        -16.6970   44.6680  -59.4320 C.2   275  ASN275      0.2292
    188  O        -16.4470   43.4700  -59.3510 O.2   275  ASN275     -0.2864
    189  CB       -18.9850   45.3210  -58.6290 C.3   275  ASN275      0.1181
    190  CG       -19.8090   45.8320  -57.4820 C.2   275  ASN275      0.2629
    191  OD1      -19.5460   45.5120  -56.3300 O.2   275  ASN275     -0.2716
    192  ND2      -20.7640   46.6850  -57.7790 N.am  275  ASN275     -0.0877
    193  N        -13.3830   43.6800  -57.9360 N.3   278  ASN278     -0.1240
    194  CA       -13.6280   42.5090  -57.0890 C.3   278  ASN278      0.1653
    195  C        -13.7440   41.2500  -57.9310 C.2   278  ASN278      0.2266
    196  O        -13.1410   40.2190  -57.6230 O.2   278  ASN278     -0.2867
    197  CB       -14.9050   42.6450  -56.2920 C.3   278  ASN278      0.1155
    198  CG       -14.9790   41.6420  -55.1660 C.2   278  ASN278      0.2627
    199  OD1      -13.9700   41.0060  -54.8060 O.2   278  ASN278     -0.2716
    200  ND2      -16.1360   41.5300  -54.5710 N.am  278  ASN278     -0.0877
@<TRIPOS>BOND
     1   100   101    1
     2   112   113    1
     3   102   101    1
     4   102   103    2
     5   101   104    1
     6   104   105    1
     7   113   116    1
     8   113   114    1
     9   107   105   ar
    10   107   109   ar
    11   105   106   ar
    12     4     3    2
    13   116   117    1
    14   123   114   am
    15   123   124    1
    16   114   115    2
    17   125   124    1
    18   125   126    2
    19   127   124    1
    20   127   128    1
    21   109   110   ar
    22   129   128   ar
    23   129   131   ar
    24   106   108   ar
    25     3     2    1
    26   169   170    1
    27   128   130   ar
    28   187   188    2
    29   187   186    1
    30   117   118    1
    31     8     9    1
    32   131   133   ar
    33   171   170    1
    34   171   172    2
    35   118   119    1
    36     1     2    1
    37   110   108   ar
    38   110   111    1
    39   189   186    1
    40   189   190    1
    41   119   120    2
    42     2     5    1
    43   170   173    1
    44   186   185    1
    45   130   132   ar
    46     9    10    1
    47     9    12    1
    48   133   132   ar
    49   120   121    1
    50   120   122    1
    51     5     6    1
    52     5     7    1
    53   185   179   am
    54   193   194    1
    55   195   196    2
    56   195   194    1
    57    13    12    1
    58    13    14    1
    59   160   159    2
    60   177   178    1
    61   192   190   am
    62   173   174    1
    63    10    11    2
    64   190   191    2
    65   179   180    2
    66   179   178    1
    67    16    15    1
    68   194   197    1
    69    14    15    1
    70   174   175    1
    71   174   176    1
    72   178   181    1
    73   159   158    1
    74   161   158    1
    75   161   162    1
    76   197   198    1
    77   158   157    1
    78   163   162   ar
    79   163   165   ar
    80   181   182    1
    81   181   183    1
    82   162   164   ar
    83   155   153   ar
    84   155   156   ar
    85   182   184    1
    86   165   167   ar
    87   198   199    2
    88   198   200   am
    89   153   151   ar
    90    95    94    2
    91    96    93    1
    92    96    97    1
    93   164   166   ar
    94    93    94    1
    95    93    92    1
    96   156   154   ar
    97   167   166   ar
    98   167   168    1
    99   149   148    2
   100   151   150    1
   101   151   152   ar
   102    99    97    1
   103   150   147    1
   104    97    98    1
   105   154   152   ar
   106   148   147    1
   107   147   146    1
   108    76    78   ar
   109    76    75   ar
   110    78    79   ar
   111    45    44    2
   112    36    35    2
   113    75    74    1
   114    75    77   ar
   115   146   136   am
   116    79    77   ar
   117    74    71    1
   118    44    43    1
   119    43    42    1
   120    91    90    1
   121   137   136    2
   122    24    22   ar
   123   136   135    1
   124    35    42   am
   125    35    34    1
   126    88    90   ar
   127    88    86   ar
   128    73    72    2
   129    23    22   ar
   130    90    89   ar
   131    71    72    1
   132    71    70    1
   133   140   142   ar
   134   140   139   ar
   135    57    56    1
   136    22    21    1
   137   142   144   ar
   138    86    85   ar
   139    33    34    1
   140    34    37    1
   141    37    38    1
   142    89    87   ar
   143   135   138    1
   144   135   134    1
   145   138   139    1
   146    55    56   ar
   147    55    53   ar
   148    85    87   ar
   149    85    84    1
   150    56    54   ar
   151   139   141   ar
   152    38    39    1
   153   145   144    1
   154   144   143   ar
   155    39    40    1
   156    21    18    1
   157    67    68   ar
   158    67    65   ar
   159    69    68    1
   160    84    81    1
   161    17    18    1
   162    53    51   ar
   163    68    66   ar
   164    65    63   ar
   165    54    52   ar
   166    81    80    1
   167    81    82    1
   168    18    19    1
   169   141   143   ar
   170    31    30    1
   171    40    41    1
   172    32    30    1
   173    51    52   ar
   174    51    50    1
   175    30    29    1
   176    66    64   ar
   177    63    64   ar
   178    63    62    1
   179    82    83    2
   180    61    60    2
   181    19    20    2
   182    62    59    1
   183    60    59    1
   184    50    47    1
   185    29    26    1
   186    46    47    1
   187    59    58    1
   188    47    48    1
   189    26    25    1
   190    26    27    1
   191    48    49    2
   192    27    28    2
