@<TRIPOS>MOLECULE
tmp/4f83A02.pdb
 163 153 0 0 0
SMALL
GASTEIGER

@<TRIPOS>ATOM
      1  N        -13.3330  -33.6740    8.8090 N.3     7  ILE7       -0.1245
      2  CA       -13.9090  -35.0140    8.7870 C.3     7  ILE7        0.1561
      3  C        -14.5960  -35.3760    7.4590 C.2     7  ILE7        0.2260
      4  O        -14.9900  -36.5190    7.2550 O.2     7  ILE7       -0.2867
      5  CB       -14.8030  -35.3110   10.0180 C.3     7  ILE7        0.0252
      6  CG1      -15.9900  -34.3590   10.0710 C.3     7  ILE7        0.0019
      7  CG2      -14.0030  -35.1700   11.3070 C.3     7  ILE7        0.0019
      8  CD1      -17.1220  -34.7950    9.2070 C.3     7  ILE7        0.0001
      9  N        -21.3110  -40.8640    5.4450 N.3    56  LEU56      -0.1245
     10  CA       -20.1450  -40.8360    6.3160 C.3    56  LEU56       0.1561
     11  C        -19.9580  -42.1720    6.9650 C.2    56  LEU56       0.2260
     12  O        -20.9360  -42.8770    7.2230 O.2    56  LEU56      -0.2867
     13  CB       -20.3020  -39.7810    7.4130 C.3    56  LEU56       0.0270
     14  CG       -20.4400  -38.3350    6.9630 C.3    56  LEU56       0.0019
     15  CD1      -20.6190  -37.4550    8.1950 C.3    56  LEU56       0.0001
     16  CD2      -19.2260  -37.9150    6.1740 C.3    56  LEU56       0.0001
     17  N        -19.2870  -39.9320   13.8820 N.3    61  LEU61      -0.1245
     18  CA       -20.2770  -39.2410   14.7130 C.3    61  LEU61       0.1561
     19  C        -20.1650  -39.5900   16.2140 C.2    61  LEU61       0.2260
     20  O        -20.9590  -39.1210   17.0270 O.2    61  LEU61      -0.2867
     21  CB       -21.6880  -39.5160   14.1750 C.3    61  LEU61       0.0270
     22  CG       -21.9310  -39.1370   12.6890 C.3    61  LEU61       0.0019
     23  CD1      -23.4020  -39.3160   12.3350 C.3    61  LEU61       0.0001
     24  CD2      -21.4780  -37.6950   12.3700 C.3    61  LEU61       0.0001
     25  N        -20.3880  -33.7800   17.4860 N.3    63  TYR63      -0.1227
     26  CA       -21.5750  -33.6290   18.3480 C.3    63  TYR63       0.1736
     27  C        -21.5300  -32.4230   19.3060 C.2    63  TYR63       0.2595
     28  O        -22.5810  -31.7870   19.5250 O.2    63  TYR63      -0.2718
     29  CB       -21.9390  -34.9380   19.0850 C.3    63  TYR63       0.0548
     30  CG       -22.9880  -35.7760   18.3510 C.ar   63  TYR63      -0.0200
     31  CD1      -24.3180  -35.3430   18.2680 C.ar   63  TYR63      -0.0009
     32  CD2      -22.6550  -36.9870   17.7550 C.ar   63  TYR63      -0.0009
     33  CE1      -25.2970  -36.0970   17.5830 C.ar   63  TYR63       0.0417
     34  CE2      -23.6350  -37.7730   17.0870 C.ar   63  TYR63       0.0417
     35  CZ       -24.9490  -37.3090   16.9950 C.ar   63  TYR63       0.1957
     36  OH       -25.9230  -38.0490   16.3430 O.3    63  TYR63      -0.2866
     37  N        -20.3460  -32.0830   19.8460 N.am   64  GLU64      -0.1965
     38  CA       -20.1840  -30.7770   20.5630 C.3    64  GLU64       0.1733
     39  C        -19.9530  -29.5450   19.6510 C.2    64  GLU64       0.2616
     40  O        -20.5770  -28.5170   19.8430 O.2    64  GLU64      -0.2715
     41  CB       -19.1020  -30.8250   21.6240 C.3    64  GLU64       0.0429
     42  CG       -19.0100  -29.5150   22.4140 C.3    64  GLU64       0.1163
     43  CD       -18.7340  -29.6870   23.9250 C.2    64  GLU64       0.3649
     44  OE1      -17.7530  -29.0810   24.4080 O.co2  64  GLU64      -0.2457
     45  OE2      -19.5080  -30.3900   24.6280 O.co2  64  GLU64      -0.2457
     46  N        -19.0070  -29.6430   18.7230 N.am   65  ASN65      -0.1958
     47  CA       -18.7070  -28.5030   17.8370 C.3    65  ASN65       0.1819
     48  C        -18.3890  -28.9290   16.4020 C.2    65  ASN65       0.2622
     49  O        -17.8400  -30.0290   16.1650 O.2    65  ASN65      -0.2715
     50  CB       -17.5890  -27.6380   18.4430 C.3    65  ASN65       0.1195
     51  CG       -16.5360  -28.4520   19.1250 C.2    65  ASN65       0.2630
     52  OD1      -15.9180  -29.3350   18.5100 O.2    65  ASN65      -0.2716
     53  ND2      -16.3310  -28.1960   20.4270 N.am   65  ASN65      -0.0877
     54  N        -18.7320  -28.0720   15.4420 N.am   66  SER66      -0.1950
     55  CA       -18.5050  -28.3950   14.0440 C.3    66  SER66       0.1924
     56  C        -18.4030  -27.1290   13.2560 C.2    66  SER66       0.2314
     57  O        -18.8690  -26.0630   13.6990 O.2    66  SER66      -0.2863
     58  CB       -19.6540  -29.2250   13.4550 C.3    66  SER66       0.2116
     59  OG       -20.8570  -28.4460   13.3630 O.3    66  SER66      -0.2180
     60  N        -18.8710  -26.0340    8.9000 N.3    68  VAL68      -0.1245
     61  CA       -19.1040  -26.4550    7.5190 C.3    68  VAL68       0.1561
     62  C        -18.6760  -25.2970    6.6550 C.2    68  VAL68       0.2260
     63  O        -19.0900  -24.1570    6.9170 O.2    68  VAL68      -0.2867
     64  CB       -20.6080  -26.7440    7.2900 C.3    68  VAL68       0.0252
     65  CG1      -20.8650  -27.0840    5.8210 C.3    68  VAL68       0.0019
     66  CG2      -21.0830  -27.8990    8.2710 C.3    68  VAL68       0.0019
     67  N        -29.4600  -33.0120    5.4110 N.3    90  SER90      -0.1217
     68  CA       -28.9520  -34.0190    6.3580 C.3    90  SER90       0.1889
     69  C        -29.8900  -34.1360    7.5510 C.2    90  SER90       0.2288
     70  O        -29.4690  -34.1280    8.7140 O.2    90  SER90      -0.2866
     71  CB       -27.5180  -33.6930    6.7850 C.3    90  SER90       0.2089
     72  OG       -26.8880  -34.8480    7.3550 O.3    90  SER90      -0.2183
     73  N        -29.4680  -31.3610   10.0910 N.3    97  TRP97      -0.1241
     74  CA       -29.3580  -29.9870    9.5570 C.3    97  TRP97       0.1605
     75  C        -29.6710  -29.9810    8.0780 C.2    97  TRP97       0.2264
     76  O        -29.6400  -31.0280    7.4230 O.2    97  TRP97      -0.2867
     77  CB       -27.9430  -29.4120    9.8060 C.3    97  TRP97       0.0550
     78  CG       -26.8130  -30.2600    9.2740 C.ar   97  TRP97       0.0003
     79  CD1      -26.0980  -31.2140    9.9640 C.ar   97  TRP97       0.0946
     80  CD2      -26.2550  -30.2160    7.9570 C.ar   97  TRP97       0.0152
     81  NE1      -25.1480  -31.7860    9.1290 N.ar   97  TRP97      -0.2442
     82  CE2      -25.2250  -31.1840    7.8980 C.ar   97  TRP97       0.0810
     83  CE3      -26.5530  -29.4770    6.8070 C.ar   97  TRP97       0.0012
     84  CZ2      -24.4690  -31.4030    6.7390 C.ar   97  TRP97       0.0191
     85  CZ3      -25.7940  -29.6980    5.6450 C.ar   97  TRP97       0.0001
     86  CH2      -24.7830  -30.6630    5.6180 C.ar   97  TRP97       0.0015
     87  N        -29.3610  -21.7020    6.9360 N.3   108  TRP108     -0.1241
     88  CA       -28.8600  -22.9050    7.5880 C.3   108  TRP108      0.1605
     89  C        -29.8250  -23.2320    8.7000 C.2   108  TRP108      0.2264
     90  O        -30.1590  -22.3660    9.5000 O.2   108  TRP108     -0.2867
     91  CB       -27.4880  -22.6240    8.1750 C.3   108  TRP108      0.0550
     92  CG       -26.9820  -23.6820    9.1380 C.ar  108  TRP108      0.0003
     93  CD1      -27.0510  -23.6400   10.4870 C.ar  108  TRP108      0.0946
     94  CD2      -26.2600  -24.8660    8.8030 C.ar  108  TRP108      0.0152
     95  NE1      -26.4220  -24.7420   11.0400 N.ar  108  TRP108     -0.2442
     96  CE2      -25.9480  -25.5230   10.0240 C.ar  108  TRP108      0.0810
     97  CE3      -25.8630  -25.4550    7.5920 C.ar  108  TRP108      0.0012
     98  CZ2      -25.2570  -26.7420   10.0740 C.ar  108  TRP108      0.0191
     99  CZ3      -25.1500  -26.6660    7.6480 C.ar  108  TRP108      0.0001
    100  CH2      -24.8600  -27.2880    8.8860 C.ar  108  TRP108      0.0015
    101  N        -30.8330  -25.9900   11.8360 N.3   110  LEU110     -0.1245
    102  CA       -30.4720  -27.1040   12.7310 C.3   110  LEU110      0.1561
    103  C        -31.7250  -27.4960   13.5210 C.2   110  LEU110      0.2260
    104  O        -32.3430  -26.6510   14.1540 O.2   110  LEU110     -0.2867
    105  CB       -29.3870  -26.6450   13.7120 C.3   110  LEU110      0.0270
    106  CG       -28.7940  -27.7230   14.6330 C.3   110  LEU110      0.0019
    107  CD1      -28.1030  -28.7860   13.8350 C.3   110  LEU110      0.0001
    108  CD2      -27.8040  -27.0910   15.6470 C.3   110  LEU110      0.0001
    109  N        -20.8130  -24.2280   14.6420 N.3   144  ASN144     -0.1240
    110  CA       -21.8430  -24.6320   15.6050 C.3   144  ASN144      0.1653
    111  C        -21.1540  -25.1020   16.8680 C.2   144  ASN144      0.2266
    112  O        -20.1990  -25.8780   16.8060 O.2   144  ASN144     -0.2867
    113  CB       -22.7180  -25.7940   15.0690 C.3   144  ASN144      0.1155
    114  CG       -23.3180  -25.5130   13.6750 C.2   144  ASN144      0.2627
    115  OD1      -24.4220  -24.9850   13.5710 O.2   144  ASN144     -0.2716
    116  ND2      -22.5800  -25.8800   12.6040 N.am  144  ASN144     -0.0877
    117  N        -22.7400  -26.7100   20.3340 N.3   146  ILE146     -0.1245
    118  CA       -24.0870  -27.1360   20.7020 C.3   146  ILE146      0.1561
    119  C        -24.4690  -26.5780   22.0770 C.2   146  ILE146      0.2260
    120  O        -25.6600  -26.5180   22.4230 O.2   146  ILE146     -0.2867
    121  CB       -24.2120  -28.6950   20.6460 C.3   146  ILE146      0.0252
    122  CG1      -25.6900  -29.1520   20.5070 C.3   146  ILE146      0.0019
    123  CG2      -23.5070  -29.3200   21.8400 C.3   146  ILE146      0.0019
    124  CD1      -26.3740  -28.7290   19.1980 C.3   146  ILE146      0.0001
    125  N        -30.1070  -33.1910   19.2360 N.3   170  VAL170     -0.1245
    126  CA       -29.9710  -33.3370   17.7920 C.3   170  VAL170      0.1561
    127  C        -29.2760  -34.6730   17.5140 C.2   170  VAL170      0.2260
    128  O        -28.2310  -34.9940   18.1130 O.2   170  VAL170     -0.2867
    129  CB       -29.1250  -32.1530   17.1930 C.3   170  VAL170      0.0252
    130  CG1      -28.8960  -32.3710   15.7150 C.3   170  VAL170      0.0019
    131  CG2      -29.8440  -30.8100   17.4430 C.3   170  VAL170      0.0019
    132  N        -27.4790  -36.4540   14.6650 N.3   172  LEU172     -0.1231
    133  CA       -26.9040  -36.1690   13.3350 C.3   172  LEU172      0.1693
    134  C        -27.1050  -37.3470   12.3900 C.2   172  LEU172      0.2592
    135  O        -27.1720  -38.5040   12.8240 O.2   172  LEU172     -0.2718
    136  CB       -25.4210  -35.8310   13.4540 C.3   172  LEU172      0.0284
    137  CG       -25.1170  -34.5430   14.2080 C.3   172  LEU172      0.0019
    138  CD1      -23.6240  -34.4410   14.4360 C.3   172  LEU172      0.0001
    139  CD2      -25.6430  -33.3200   13.4150 C.3   172  LEU172      0.0001
    140  N        -27.1580  -37.0360   11.0910 N.am  173  ASP173     -0.1974
    141  CA       -27.4890  -37.9910   10.0350 C.3   173  ASP173      0.1709
    142  C        -26.1640  -38.2900    9.3300 C.2   173  ASP173      0.2293
    143  O        -25.4430  -37.3720    8.9310 O.2   173  ASP173     -0.2864
    144  CB       -28.4690  -37.2500    9.0950 C.3   173  ASP173      0.1436
    145  CG       -29.0160  -38.0900    7.9480 C.2   173  ASP173      0.3671
    146  OD1      -28.5980  -39.2670    7.7470 O.co2 173  ASP173     -0.2456
    147  OD2      -29.8860  -37.5100    7.2170 O.co2 173  ASP173     -0.2456
    148  N        -25.8210  -37.3050    3.7390 N.3   176  ILE176     -0.1245
    149  CA       -25.9510  -35.9050    3.3430 C.3   176  ILE176      0.1561
    150  C        -26.2750  -35.9170    1.8610 C.2   176  ILE176      0.2260
    151  O        -25.5120  -36.4830    1.0690 O.2   176  ILE176     -0.2867
    152  CB       -24.6410  -35.1650    3.5240 C.3   176  ILE176      0.0252
    153  CG1      -24.1690  -35.3060    4.9860 C.3   176  ILE176      0.0019
    154  CG2      -24.7790  -33.6630    3.0750 C.3   176  ILE176      0.0019
    155  CD1      -22.7320  -34.8840    5.1970 C.3   176  ILE176      0.0001
    156  N        -16.3810  -30.3970    5.9780 N.3   197  ILE197     -0.1245
    157  CA       -16.8870  -30.3700    7.3520 C.3   197  ILE197      0.1561
    158  C        -15.6990  -30.6150    8.3190 C.2   197  ILE197      0.2260
    159  O        -14.8120  -31.4350    8.0510 O.2   197  ILE197     -0.2867
    160  CB       -18.0150  -31.4200    7.5620 C.3   197  ILE197      0.0252
    161  CG1      -19.1330  -31.2370    6.5120 C.3   197  ILE197      0.0019
    162  CG2      -18.6210  -31.3000    8.9580 C.3   197  ILE197      0.0019
    163  CD1      -20.3220  -32.2510    6.6490 C.3   197  ILE197      0.0001
@<TRIPOS>BOND
     1   151   150    2
     2   150   149    1
     3   154   152    1
     4   149   152    1
     5   149   148    1
     6   152   153    1
     7   153   155    1
     8    67    68    1
     9     9    10    1
    10    86    85   ar
    11    86    84   ar
    12    85    83   ar
    13    65    64    1
    14   156   157    1
    15    16    14    1
    16    10    11    1
    17    10    13    1
    18    68    71    1
    19    68    69    1
    20   161   163    1
    21   161   160    1
    22    62    63    2
    23    62    61    1
    24    84    82   ar
    25    71    72    1
    26    83    80   ar
    27    87    88    1
    28    14    13    1
    29    14    15    1
    30    11    12    2
    31   147   145   ar
    32     4     3    2
    33    64    61    1
    34    64    66    1
    35   157   160    1
    36   157   158    1
    37    76    75    2
    38     3     2    1
    39    61    60    1
    40    69    70    2
    41   160   162    1
    42    88    91    1
    43    88    89    1
    44    97    99   ar
    45    97    94   ar
    46    99   100   ar
    47   146   145   ar
    48    82    80   ar
    49    82    81   ar
    50   145   144    1
    51    80    78   ar
    52   159   158    2
    53    75    74    1
    54    91    92    1
    55    89    90    2
    56     2     1    1
    57     2     5    1
    58    94    92   ar
    59    94    96   ar
    60   100    98   ar
    61   143   142    2
    62   144   141    1
    63    81    79   ar
    64    92    93   ar
    65     8     6    1
    66    78    77    1
    67    78    79   ar
    68   142   141    1
    69    74    77    1
    70    74    73    1
    71     5     6    1
    72     5     7    1
    73    96    98   ar
    74    96    95   ar
    75   141   140    1
    76    93    95   ar
    77   140   134   am
    78   101   102    1
    79    23    22    1
    80    24    22    1
    81   134   135    2
    82   134   133    1
    83   116   114   am
    84    22    21    1
    85   102   103    1
    86   102   105    1
    87    56    57    2
    88    56    55    1
    89   133   136    1
    90   133   132    1
    91    59    58    1
    92   139   137    1
    93   136   137    1
    94    58    55    1
    95   103   104    2
    96   115   114    2
    97   114   113    1
    98   105   106    1
    99   107   106    1
   100    17    18    1
   101    55    54    1
   102    21    18    1
   103   137   138    1
   104   106   108    1
   105   109   110    1
   106    18    19    1
   107   113   110    1
   108    54    48   am
   109   110   111    1
   110   130   129    1
   111    49    48    2
   112    19    20    2
   113    36    35    1
   114    48    47    1
   115   112   111    2
   116    35    34   ar
   117    35    33   ar
   118    34    32   ar
   119   129   131    1
   120   129   126    1
   121    25    26    1
   122   127   126    1
   123   127   128    2
   124    33    31   ar
   125    32    30   ar
   126   126   125    1
   127    47    50    1
   128    47    46    1
   129    31    30   ar
   130    26    29    1
   131    26    27    1
   132    30    29    1
   133    50    51    1
   134    52    51    2
   135    46    39   am
   136    51    53   am
   137   124   122    1
   138    27    28    2
   139    27    37   am
   140    39    40    2
   141    39    38    1
   142    37    38    1
   143   117   118    1
   144   122   121    1
   145    38    41    1
   146   121   118    1
   147   121   123    1
   148   118   119    1
   149    41    42    1
   150   119   120    2
   151    42    43    1
   152    43    44   ar
   153    43    45   ar
