@<TRIPOS>MOLECULE
tmp/4f83A00.pdb
 80 73 0 0 0
SMALL
GASTEIGER

@<TRIPOS>ATOM
      1  N         -2.5000  -13.0230  -12.1270 N.3   286  ASN286     -0.1225
      2  CA        -1.9740  -11.7660  -11.6410 C.3   286  ASN286      0.1785
      3  C         -0.5880  -11.4870  -12.2320 C.2   286  ASN286      0.2597
      4  O          0.3220  -12.3250  -12.0990 O.2   286  ASN286     -0.2718
      5  CB        -1.8880  -11.8590  -10.1060 C.3   286  ASN286      0.1169
      6  CG        -1.3390  -10.6150   -9.4740 C.2   286  ASN286      0.2627
      7  OD1       -1.7300   -9.4940   -9.8170 O.2   286  ASN286     -0.2716
      8  ND2       -0.4050  -10.7950   -8.5490 N.am  286  ASN286     -0.0877
      9  N         -0.4410  -10.3280  -12.8870 N.am  287  GLY287     -0.1957
     10  CA         0.7970   -9.9130  -13.5300 C.3   287  GLY287      0.1869
     11  C          0.9670  -10.2650  -15.0060 C.2   287  GLY287      0.2309
     12  O          1.9680   -9.8420  -15.6630 O.2   287  GLY287     -0.2863
     13  N          0.9420  -10.3810  -18.9690 N.3   289  ASP289     -0.1239
     14  CA         0.9220   -9.3720  -20.0350 C.3   289  ASP289      0.1674
     15  C         -0.0920   -9.8110  -21.0700 C.2   289  ASP289      0.2266
     16  O         -0.0740  -10.9770  -21.5240 O.2   289  ASP289     -0.2867
     17  CB         2.2910   -9.2650  -20.7050 C.3   289  ASP289      0.1410
     18  CG         3.2610   -8.4150  -19.9150 C.2   289  ASP289      0.3668
     19  OD1        2.8450   -7.7120  -18.9680 O.co2 289  ASP289     -0.2456
     20  OD2        4.4630   -8.4570  -20.2370 O.co2 289  ASP289     -0.2456
     21  N         -0.5480   -4.9450  -18.5230 N.3   341  SER341     -0.1217
     22  CA        -0.4520   -5.9870  -17.4890 C.3   341  SER341      0.1889
     23  C         -1.7170   -5.9110  -16.6650 C.2   341  SER341      0.2288
     24  O         -2.2330   -4.8030  -16.3980 O.2   341  SER341     -0.2866
     25  CB         0.7820   -5.8190  -16.6090 C.3   341  SER341      0.2089
     26  OG         0.8990   -4.5000  -16.1580 O.3   341  SER341     -0.2183
     27  N         -3.5510   -6.8590  -13.0000 N.3   343  LYS343     -0.1245
     28  CA        -3.1520   -7.1990  -11.6240 C.3   343  LYS343      0.1561
     29  C         -4.3460   -7.1860  -10.6820 C.2   343  LYS343      0.2260
     30  O         -5.2790   -6.4280  -10.8830 O.2   343  LYS343     -0.2867
     31  CB        -2.1080   -6.1790  -11.1190 C.3   343  LYS343      0.0271
     32  CG        -0.7780   -6.2400  -11.8890 C.3   343  LYS343      0.0035
     33  CD         0.3410   -5.4160  -11.2060 C.3   343  LYS343      0.0206
     34  CE         1.6090   -5.4570  -12.0810 C.3   343  LYS343      0.1093
     35  NZ         2.8040   -4.8100  -11.4690 N.3   343  LYS343     -0.1314
     36  N         -2.4840   -1.9840  -16.3310 N.3   356  PHE356     -0.1241
     37  CA        -1.3770   -1.0410  -16.4570 C.3   356  PHE356      0.1605
     38  C         -0.7090   -1.1700  -17.8050 C.2   356  PHE356      0.2264
     39  O         -0.8190   -2.2180  -18.4600 O.2   356  PHE356     -0.2867
     40  CB        -0.3610   -1.2740  -15.3380 C.3   356  PHE356      0.0534
     41  CG        -0.9690   -1.2130  -13.9690 C.ar  356  PHE356     -0.0203
     42  CD1       -1.0280    0.0150  -13.2730 C.ar  356  PHE356     -0.0042
     43  CD2       -1.4940   -2.3670  -13.3760 C.ar  356  PHE356     -0.0042
     44  CE1       -1.6080    0.0870  -11.9910 C.ar  356  PHE356     -0.0003
     45  CE2       -2.0710   -2.3130  -12.0970 C.ar  356  PHE356     -0.0003
     46  CZ        -2.1440   -1.0750  -11.4060 C.ar  356  PHE356     -0.0000
     47  N          3.2840   -0.2980  -19.4760 N.3   358  SER358     -0.1217
     48  CA         4.6540    0.1270  -19.2210 C.3   358  SER358      0.1889
     49  C          5.3190    0.6250  -20.5000 C.2   358  SER358      0.2288
     50  O          6.5400    0.7210  -20.5740 O.2   358  SER358     -0.2866
     51  CB         5.4600   -1.0550  -18.6480 C.3   358  SER358      0.2089
     52  OG         4.9420   -1.4390  -17.3940 O.3   358  SER358     -0.2183
     53  N          4.9230    4.7290  -17.3730 N.3   362  ASN362     -0.1240
     54  CA         4.0320    3.9000  -16.6000 C.3   362  ASN362      0.1653
     55  C          2.6450    4.5410  -16.5500 C.2   362  ASN362      0.2266
     56  O          2.4900    5.6650  -16.0680 O.2   362  ASN362     -0.2867
     57  CB         4.5480    3.6790  -15.1900 C.3   362  ASN362      0.1155
     58  CG         5.4420    2.4140  -15.0730 C.2   362  ASN362      0.2627
     59  OD1        5.0890    1.3140  -15.5570 O.2   362  ASN362     -0.2716
     60  ND2        6.5740    2.5690  -14.4130 N.am  362  ASN362     -0.0877
     61  N         -0.0830    7.8140  -11.1160 N.3   389  TYR389     -0.1241
     62  CA        -1.3380    7.2180  -10.6530 C.3   389  TYR389      0.1605
     63  C         -1.2920    6.6740   -9.2220 C.2   389  TYR389      0.2264
     64  O         -2.2270    6.0190   -8.7620 O.2   389  TYR389     -0.2867
     65  CB        -1.7530    6.1190  -11.6270 C.3   389  TYR389      0.0534
     66  CG        -0.7190    5.0290  -11.8270 C.ar  389  TYR389     -0.0201
     67  CD1       -0.4810    4.0640  -10.8340 C.ar  389  TYR389     -0.0009
     68  CD2       -0.0260    4.9180  -13.0350 C.ar  389  TYR389     -0.0009
     69  CE1        0.4480    3.0420  -11.0380 C.ar  389  TYR389      0.0417
     70  CE2        0.8920    3.9180  -13.2420 C.ar  389  TYR389      0.0417
     71  CZ         1.1200    2.9730  -12.2490 C.ar  389  TYR389      0.1957
     72  OH         2.0480    1.9730  -12.4770 O.3   389  TYR389     -0.2866
     73  N         -4.6350    4.6080   -6.9200 N.3   393  LEU393     -0.1245
     74  CA        -4.6200    3.1280   -6.7830 C.3   393  LEU393      0.1561
     75  C         -5.7720    2.5900   -5.9520 C.2   393  LEU393      0.2260
     76  O         -6.1090    1.4010   -6.0360 O.2   393  LEU393     -0.2867
     77  CB        -3.2810    2.6360   -6.2290 C.3   393  LEU393      0.0270
     78  CG        -2.1370    2.5900   -7.2260 C.3   393  LEU393      0.0019
     79  CD1       -0.8140    2.4400   -6.4910 C.3   393  LEU393      0.0001
     80  CD2       -2.3280    1.4430   -8.2550 C.3   393  LEU393      0.0001
@<TRIPOS>BOND
     1    16    15    2
     2    15    14    1
     3    17    14    1
     4    17    18    1
     5    50    49    2
     6    49    48    1
     7    20    18   ar
     8    14    13    1
     9    18    19   ar
    10    47    48    1
    11    48    51    1
    12    51    52    1
    13    21    22    1
    14    39    38    2
    15    38    37    1
    16    22    23    1
    17    22    25    1
    18    53    54    1
    19    23    24    2
    20    25    26    1
    21    54    55    1
    22    54    57    1
    23    55    56    2
    24    37    36    1
    25    37    40    1
    26    12    11    2
    27    59    58    2
    28    40    41    1
    29    57    58    1
    30    58    60   am
    31    11    10    1
    32    41    43   ar
    33    41    42   ar
    34    10     9    1
    35    43    45   ar
    36    42    44   ar
    37    70    68   ar
    38    70    71   ar
    39    68    66   ar
    40    27    28    1
    41     9     3   am
    42    72    71    1
    43    71    69   ar
    44     3     4    2
    45     3     2    1
    46     1     2    1
    47    45    46   ar
    48    34    35    1
    49    34    33    1
    50    44    46   ar
    51    32    33    1
    52    32    31    1
    53    66    65    1
    54    66    67   ar
    55     2     5    1
    56    65    62    1
    57    28    31    1
    58    28    29    1
    59    61    62    1
    60    69    67   ar
    61    30    29    2
    62    62    63    1
    63     5     6    1
    64     7     6    2
    65     6     8   am
    66    63    64    2
    67    80    78    1
    68    78    79    1
    69    78    77    1
    70    73    74    1
    71    74    77    1
    72    74    75    1
    73    76    75    2
