@<TRIPOS>MOLECULE
tmp/4f83A01.pdb
 150 147 0 0 0
SMALL
GASTEIGER

@<TRIPOS>ATOM
      1  N        -15.9810  -28.1550  -13.4430 N.3    37  THR37      -0.1203
      2  CA       -16.2750  -27.4190  -14.6670 C.3    37  THR37       0.1994
      3  C        -15.7080  -26.0010  -14.6300 C.2    37  THR37       0.2617
      4  O        -15.2020  -25.5050  -15.6500 O.2    37  THR37      -0.2717
      5  CB       -17.7770  -27.4260  -15.0340 C.3    37  THR37       0.1784
      6  OG1      -18.5250  -26.6630  -14.0820 O.3    37  THR37      -0.2211
      7  CG2      -18.2920  -28.8440  -15.0590 C.3    37  THR37       0.0376
      8  N        -15.7660  -25.3600  -13.4670 N.am   38  ILE38      -0.1979
      9  CA       -15.2330  -23.9820  -13.3240 C.3    38  ILE38       0.1595
     10  C        -13.9870  -24.0060  -12.4150 C.2    38  ILE38       0.2287
     11  O        -12.9040  -23.4920  -12.7890 O.2    38  ILE38      -0.2864
     12  CB       -16.3120  -23.0040  -12.7980 C.3    38  ILE38       0.0276
     13  CG1      -17.5850  -23.0790  -13.6760 C.3    38  ILE38       0.0022
     14  CG2      -15.7350  -21.5640  -12.7180 C.3    38  ILE38       0.0022
     15  CD1      -18.8850  -22.5440  -13.0040 C.3    38  ILE38       0.0001
     16  N        -22.6600  -20.4910   -5.6580 N.3    73  LYS73      -0.1245
     17  CA       -22.9810  -19.5490   -6.7280 C.3    73  LYS73       0.1561
     18  C        -24.3800  -19.9030   -7.2080 C.2    73  LYS73       0.2260
     19  O        -24.6270  -21.0200   -7.6740 O.2    73  LYS73      -0.2867
     20  CB       -21.9440  -19.6830   -7.8580 C.3    73  LYS73       0.0271
     21  CG       -22.2640  -18.8680   -9.1590 C.3    73  LYS73       0.0035
     22  CD       -21.0240  -18.9370  -10.1030 C.3    73  LYS73       0.0206
     23  CE       -21.3140  -18.2790  -11.4660 C.3    73  LYS73       0.1093
     24  NZ       -22.3760  -19.0350  -12.2050 N.3    73  LYS73      -0.1314
     25  N        -24.0390  -23.7470   -8.1090 N.3   191  TRP191     -0.1241
     26  CA       -22.7820  -24.4820   -8.0390 C.3   191  TRP191      0.1605
     27  C        -22.2390  -24.3990   -6.6340 C.2   191  TRP191      0.2264
     28  O        -22.4450  -23.3950   -5.9400 O.2   191  TRP191     -0.2867
     29  CB       -21.7130  -23.8900   -8.9920 C.3   191  TRP191      0.0550
     30  CG       -22.0290  -23.9460  -10.4620 C.ar  191  TRP191      0.0003
     31  CD1      -21.4990  -24.8210  -11.3820 C.ar  191  TRP191      0.0946
     32  CD2      -22.9210  -23.0700  -11.1910 C.ar  191  TRP191      0.0152
     33  NE1      -22.0010  -24.5270  -12.6580 N.ar  191  TRP191     -0.2442
     34  CE2      -22.8750  -23.4630  -12.5560 C.ar  191  TRP191      0.0810
     35  CE3      -23.7380  -21.9880  -10.8180 C.ar  191  TRP191      0.0012
     36  CZ2      -23.6370  -22.8100  -13.5730 C.ar  191  TRP191      0.0191
     37  CZ3      -24.4860  -21.3300  -11.8140 C.ar  191  TRP191      0.0001
     38  CH2      -24.4440  -21.7610  -13.1780 C.ar  191  TRP191      0.0015
     39  N        -13.4920  -13.1310  -13.3160 N.3   222  ASP222     -0.1239
     40  CA       -14.5490  -12.4200  -14.0490 C.3   222  ASP222      0.1674
     41  C        -15.5870  -11.8650  -13.0320 C.2   222  ASP222      0.2266
     42  O        -15.4280  -12.0100  -11.7980 O.2   222  ASP222     -0.2867
     43  CB       -15.1770  -13.3040  -15.1960 C.3   222  ASP222      0.1410
     44  CG       -16.1040  -14.4360  -14.6790 C.2   222  ASP222      0.3668
     45  OD1      -16.5320  -14.4610  -13.5140 O.co2 222  ASP222     -0.2456
     46  OD2      -16.4710  -15.2990  -15.5320 O.co2 222  ASP222     -0.2456
     47  N        -15.7380  -16.3840  -11.3710 N.3   226  ASN226     -0.1226
     48  CA       -15.0670  -17.4750  -12.0870 C.3   226  ASN226      0.1770
     49  C        -13.6560  -17.0690  -12.4680 C.2   226  ASN226      0.2439
     50  O        -13.3680  -15.8980  -12.6380 O.2   226  ASN226     -0.2733
     51  CB       -15.7970  -17.8220  -13.3980 C.3   226  ASN226      0.1168
     52  CG       -17.2920  -18.0600  -13.2090 C.2   226  ASN226      0.2627
     53  OD1      -17.7120  -18.8400  -12.3660 O.2   226  ASN226     -0.2716
     54  ND2      -18.0920  -17.4770  -14.1190 N.am  226  ASN226     -0.0877
     55  N        -12.7650  -18.0370  -12.6830 N.am  227  PRO227     -0.2729
     56  CA       -11.4650  -17.6100  -13.2770 C.3   227  PRO227      0.1401
     57  C        -11.6030  -16.8930  -14.6400 C.2   227  PRO227      0.2269
     58  O        -12.3690  -17.3430  -15.5190 O.2   227  PRO227     -0.2865
     59  CB       -10.7130  -18.9420  -13.4550 C.3   227  PRO227      0.0296
     60  CG       -11.3500  -19.8580  -12.4390 C.3   227  PRO227      0.0237
     61  CD       -12.8110  -19.4790  -12.4200 C.3   227  PRO227      0.0939
     62  N        -10.3660  -15.9890  -18.2770 N.3   229  LYS229     -0.1245
     63  CA        -9.7190  -16.8580  -19.2630 C.3   229  LYS229      0.1561
     64  C         -9.3180  -16.0940  -20.5110 C.2   229  LYS229      0.2260
     65  O        -10.0160  -15.1640  -20.9390 O.2   229  LYS229     -0.2867
     66  CB       -10.6620  -18.0030  -19.6830 C.3   229  LYS229      0.0271
     67  CG       -11.0230  -19.0130  -18.5980 C.3   229  LYS229      0.0035
     68  CD       -12.0590  -20.0130  -19.1200 C.3   229  LYS229      0.0206
     69  CE       -13.4050  -19.3330  -19.3530 C.3   229  LYS229      0.1093
     70  NZ       -14.4580  -20.2320  -20.0070 N.3   229  LYS229     -0.1314
     71  N         -8.9110  -15.6840  -24.6040 N.3   231  ASP231     -0.1225
     72  CA        -9.6480  -16.0820  -25.8260 C.3   231  ASP231      0.1805
     73  C        -11.1520  -16.2640  -25.5760 C.2   231  ASP231      0.2598
     74  O        -11.8510  -17.0150  -26.3140 O.2   231  ASP231     -0.2718
     75  CB        -9.0180  -17.3580  -26.4180 C.3   231  ASP231      0.1424
     76  CG        -7.4650  -17.3110  -26.4000 C.2   231  ASP231      0.3668
     77  OD1       -6.8850  -16.2900  -26.8400 O.co2 231  ASP231     -0.2456
     78  OD2       -6.8370  -18.2650  -25.9100 O.co2 231  ASP231     -0.2456
     79  N        -11.6600  -15.5530  -24.5780 N.am  232  THR232     -0.1939
     80  CA       -13.0340  -15.7190  -24.1020 C.3   232  THR232      0.2028
     81  C        -13.7370  -14.3630  -24.1650 C.2   232  THR232      0.2642
     82  O        -13.1640  -13.3660  -23.7750 O.2   232  THR232     -0.2714
     83  CB       -13.0260  -16.2720  -22.6380 C.3   232  THR232      0.1808
     84  OG1      -12.4240  -17.5800  -22.6460 O.3   232  THR232     -0.2208
     85  CG2      -14.4180  -16.3590  -22.0630 C.3   232  THR232      0.0379
     86  N        -14.9740  -14.3270  -24.6680 N.am  233  GLU233     -0.1963
     87  CA       -15.7070  -13.0570  -24.7430 C.3   233  GLU233      0.1733
     88  C        -16.1050  -12.5020  -23.3830 C.2   233  GLU233      0.2616
     89  O        -16.6720  -13.2160  -22.5560 O.2   233  GLU233     -0.2715
     90  CB       -16.9410  -13.1860  -25.6380 C.3   233  GLU233      0.0429
     91  CG       -16.5290  -13.3550  -27.0720 C.3   233  GLU233      0.1163
     92  CD       -17.6790  -13.3770  -28.0130 C.2   233  GLU233      0.3649
     93  OE1      -18.8420  -13.3170  -27.5590 O.co2 233  GLU233     -0.2457
     94  OE2      -17.4050  -13.5100  -29.2090 O.co2 233  GLU233     -0.2457
     95  N        -15.8140  -11.2130  -23.1740 N.am  234  TYR234     -0.1974
     96  CA       -16.2690  -10.4720  -21.9680 C.3   234  TYR234      0.1639
     97  C        -16.7810   -9.1240  -22.3360 C.2   234  TYR234      0.2290
     98  O        -16.1930   -8.4320  -23.1990 O.2   234  TYR234     -0.2864
     99  CB       -15.1150  -10.2500  -20.9430 C.3   234  TYR234      0.0560
    100  CG       -14.5540  -11.5300  -20.3790 C.ar  234  TYR234     -0.0198
    101  CD1      -15.2740  -12.2460  -19.4180 C.ar  234  TYR234     -0.0009
    102  CD2      -13.3110  -12.0250  -20.8080 C.ar  234  TYR234     -0.0009
    103  CE1      -14.7880  -13.4670  -18.9220 C.ar  234  TYR234      0.0417
    104  CE2      -12.7840  -13.2660  -20.2990 C.ar  234  TYR234      0.0417
    105  CZ       -13.5220  -13.9560  -19.3760 C.ar  234  TYR234      0.1957
    106  OH       -13.0370  -15.1370  -18.8930 O.3   234  TYR234     -0.2866
    107  N         -7.1790  -20.4110  -24.0330 N.3   281  TYR281     -0.1241
    108  CA        -8.2890  -20.4900  -23.0380 C.3   281  TYR281      0.1605
    109  C         -7.8430  -20.7040  -21.6000 C.2   281  TYR281      0.2264
    110  O         -8.6680  -21.0050  -20.7240 O.2   281  TYR281     -0.2867
    111  CB        -9.3410  -21.5350  -23.4190 C.3   281  TYR281      0.0534
    112  CG        -9.8360  -21.3600  -24.8140 C.ar  281  TYR281     -0.0201
    113  CD1       -9.1910  -22.0010  -25.8720 C.ar  281  TYR281     -0.0009
    114  CD2      -10.9150  -20.5170  -25.1010 C.ar  281  TYR281     -0.0009
    115  CE1       -9.6080  -21.8250  -27.1770 C.ar  281  TYR281      0.0417
    116  CE2      -11.3540  -20.3380  -26.4170 C.ar  281  TYR281      0.0417
    117  CZ       -10.6850  -21.0060  -27.4490 C.ar  281  TYR281      0.1957
    118  OH       -11.0780  -20.8520  -28.7590 O.3   281  TYR281     -0.2866
    119  N        -18.7310  -12.2510  -18.3100 N.3   404  SER404     -0.1202
    120  CA       -18.9460  -13.3470  -19.2840 C.3   404  SER404      0.2020
    121  C        -20.4090  -13.7080  -19.3850 C.2   404  SER404      0.2619
    122  O        -21.1810  -13.5180  -18.4300 O.2   404  SER404     -0.2717
    123  CB       -18.2070  -14.6100  -18.8180 C.3   404  SER404      0.2103
    124  OG       -18.5760  -14.9130  -17.4480 O.3   404  SER404     -0.2182
    125  N        -20.7970  -14.2630  -20.5450 N.am  405  ARG405     -0.1965
    126  CA       -22.1180  -14.8910  -20.6580 C.3   405  ARG405      0.1729
    127  C        -22.0490  -16.1950  -19.8930 C.2   405  ARG405      0.2616
    128  O        -21.3090  -17.1110  -20.2690 O.2   405  ARG405     -0.2715
    129  CB       -22.4990  -15.1030  -22.1300 C.3   405  ARG405      0.0348
    130  CG       -22.7640  -13.7630  -22.8240 C.3   405  ARG405      0.0492
    131  CD       -23.3450  -13.9410  -24.2290 C.3   405  ARG405      0.2205
    132  NE       -24.7610  -14.2610  -24.1400 N.pl3 405  ARG405     -0.0865
    133  CZ       -25.7440  -13.3990  -24.3790 C.cat 405  ARG405      0.5346
    134  NH1      -25.4690  -12.1530  -24.7690 N.pl3 405  ARG405      0.1354
    135  NH2      -27.0050  -13.7920  -24.2400 N.pl3 405  ARG405      0.1354
    136  N        -22.7730  -16.2360  -18.7710 N.am  406  ASP406     -0.1958
    137  CA       -22.6660  -17.3050  -17.7840 C.3   406  ASP406      0.1825
    138  C        -24.0490  -17.9040  -17.6320 C.2   406  ASP406      0.2464
    139  O        -25.0570  -17.1790  -17.6480 O.2   406  ASP406     -0.2730
    140  CB       -22.1720  -16.7230  -16.4450 C.3   406  ASP406      0.1450
    141  CG       -22.0510  -17.7790  -15.3450 C.2   406  ASP406      0.3671
    142  OD1      -20.9110  -18.1620  -15.0140 O.co2 406  ASP406     -0.2456
    143  OD2      -23.0790  -18.2010  -14.8090 O.co2 406  ASP406     -0.2456
    144  N        -24.1260  -19.2490  -17.5450 N.am  407  PRO407     -0.2727
    145  CA       -25.4250  -19.9070  -17.6300 C.3   407  PRO407      0.1402
    146  C        -26.3200  -19.5990  -16.4300 C.2   407  PRO407      0.2269
    147  O        -27.5260  -19.8030  -16.5070 O.2   407  PRO407     -0.2865
    148  CB       -25.0790  -21.4050  -17.6370 C.3   407  PRO407      0.0296
    149  CG       -23.6320  -21.4850  -17.2780 C.3   407  PRO407      0.0237
    150  CD       -23.0030  -20.1940  -17.6470 C.3   407  PRO407      0.0939
@<TRIPOS>BOND
     1    94    92   ar
     2   118   117    1
     3    92    93   ar
     4    92    91    1
     5   117   115   ar
     6   117   116   ar
     7   115   113   ar
     8    91    90    1
     9    77    76   ar
    10    75    76    1
    11    75    72    1
    12   116   114   ar
    13    76    78   ar
    14    74    73    2
    15   113   112   ar
    16    72    73    1
    17    72    71    1
    18    90    87    1
    19    73    79   am
    20   114   112   ar
    21   112   111    1
    22   134   133    1
    23    87    86    1
    24    87    88    1
    25    86    81   am
    26    79    80    1
    27   133   135    1
    28   133   132    2
    29   131   132    1
    30   131   130    1
    31    81    80    1
    32    81    82    2
    33    80    83    1
    34   107   108    1
    35   111   108    1
    36    88    95   am
    37    88    89    2
    38    98    97    2
    39    95    96    1
    40   108   109    1
    41   130   129    1
    42    84    83    1
    43    83    85    1
    44    97    96    1
    45   129   126    1
    46    96    99    1
    47   109   110    2
    48    99   100    1
    49    65    64    2
    50   102   100   ar
    51   102   104   ar
    52   126   125    1
    53   126   127    1
    54   125   121   am
    55    64    63    1
    56   100   101   ar
    57   104   105   ar
    58   128   127    2
    59    70    69    1
    60   127   136   am
    61    66    63    1
    62    66    67    1
    63   101   103   ar
    64   121   120    1
    65   121   122    2
    66   105   103   ar
    67   105   106    1
    68    69    68    1
    69   120   123    1
    70   120   119    1
    71    63    62    1
    72    68    67    1
    73   123   124    1
    74   136   137    1
    75   137   138    1
    76   137   140    1
    77   139   138    2
    78   150   144    1
    79   150   149    1
    80   148   145    1
    81   148   149    1
    82   138   144   am
    83   145   144    1
    84   145   146    1
    85   147   146    2
    86   140   141    1
    87     4     3    2
    88    46    44   ar
    89    58    57    2
    90   141   142   ar
    91   141   143   ar
    92    43    44    1
    93    43    40    1
    94     7     5    1
    95     5     2    1
    96     5     6    1
    97    44    45   ar
    98     2     3    1
    99     2     1    1
   100    57    56    1
   101     3     8   am
   102    54    52   am
   103    40    39    1
   104    40    41    1
   105    13    15    1
   106    13    12    1
   107    36    38   ar
   108    36    34   ar
   109     8     9    1
   110    59    56    1
   111    59    60    1
   112    51    52    1
   113    51    48    1
   114     9    12    1
   115     9    10    1
   116    56    55    1
   117    52    53    2
   118    38    37   ar
   119    41    42    2
   120    12    14    1
   121    11    10    2
   122    55    49   am
   123    55    61    1
   124    33    34   ar
   125    33    31   ar
   126    50    49    2
   127    34    32   ar
   128    49    48    1
   129    60    61    1
   130    24    23    1
   131    48    47    1
   132    37    35   ar
   133    23    22    1
   134    31    30   ar
   135    32    35   ar
   136    32    30   ar
   137    30    29    1
   138    22    21    1
   139    21    20    1
   140    29    26    1
   141    25    26    1
   142    26    27    1
   143    20    17    1
   144    19    18    2
   145    18    17    1
   146    17    16    1
   147    27    28    2
