@<TRIPOS>MOLECULE
tmp/4f84A00.pdb
 119 113 0 0 0
SMALL
GASTEIGER

@<TRIPOS>ATOM
      1  N         39.8780   44.0840   32.0490 N.3     5  HIS5       -0.1241
      2  CA        40.1470   45.2690   31.2450 C.3     5  HIS5        0.1621
      3  C         40.4680   44.8590   29.8160 C.2     5  HIS5        0.2264
      4  O         40.5050   45.7000   28.9220 O.2     5  HIS5       -0.2867
      5  CB        41.3320   46.0470   31.8140 C.3     5  HIS5        0.0745
      6  CG        42.6110   45.2720   31.8040 C.ar    5  HIS5        0.0817
      7  ND1       42.8630   44.2410   32.6870 N.ar    5  HIS5       -0.2268
      8  CD2       43.6910   45.3450   30.9900 C.ar    5  HIS5        0.1154
      9  CE1       44.0450   43.7140   32.4160 C.ar    5  HIS5        0.1986
     10  NE2       44.5680   44.3650   31.3910 N.ar    5  HIS5       -0.2212
     11  N         50.9570   44.5490   34.3220 N.3    61  GLY61      -0.1225
     12  CA        49.8430   45.3850   33.8740 C.3    61  GLY61       0.1811
     13  C         48.6240   44.5270   34.1570 C.2    61  GLY61       0.2280
     14  O         47.9770   44.0240   33.2410 O.2    61  GLY61      -0.2866
     15  N         45.6380   45.3090   35.7220 N.3    63  GLY63      -0.1225
     16  CA        44.3000   45.8800   35.7780 C.3    63  GLY63       0.1811
     17  C         43.6280   45.6780   37.1270 C.2    63  GLY63       0.2280
     18  O         44.1620   46.0790   38.1590 O.2    63  GLY63      -0.2866
     19  N         51.0490   43.5800   39.0850 N.3    82  VAL82      -0.1231
     20  CA        51.7140   44.8750   39.0260 C.3    82  VAL82       0.1692
     21  C         50.9800   45.8660   38.0940 C.2    82  VAL82       0.2593
     22  O         50.5560   45.4980   36.9990 O.2    82  VAL82      -0.2718
     23  CB        53.1800   44.6780   38.5590 C.3    82  VAL82       0.0266
     24  CG1       53.5710   45.7270   37.5400 C.3    82  VAL82       0.0020
     25  CG2       54.1070   44.7200   39.7630 C.3    82  VAL82       0.0020
     26  N         50.8130   47.1080   38.5490 N.am   83  THR83      -0.1939
     27  CA        50.1700   48.1640   37.7570 C.3    83  THR83       0.2028
     28  C         50.6060   49.5300   38.2260 C.2    83  THR83       0.2642
     29  O         51.2500   49.6820   39.2640 O.2    83  THR83      -0.2714
     30  CB        48.6240   48.1730   37.8340 C.3    83  THR83       0.1808
     31  OG1       48.2020   48.2700   39.1960 O.3    83  THR83      -0.2208
     32  CG2       48.0520   46.9290   37.2050 C.3    83  THR83       0.0379
     33  N         50.2370   50.5320   37.4490 N.am   84  LEU84      -0.1963
     34  CA        50.5830   51.8950   37.7830 C.3    84  LEU84       0.1728
     35  C         49.4500   52.5430   38.5830 C.2    84  LEU84       0.2616
     36  O         49.6650   53.5180   39.2950 O.2    84  LEU84      -0.2715
     37  CB        50.8710   52.6780   36.4930 C.3    84  LEU84       0.0311
     38  CG        52.3230   52.8230   35.9990 C.3    84  LEU84       0.0022
     39  CD1       53.2080   51.7290   36.5580 C.3    84  LEU84       0.0001
     40  CD2       52.3390   52.8020   34.4780 C.3    84  LEU84       0.0001
     41  N         48.2510   51.9800   38.4870 N.am   85  SER85      -0.1950
     42  CA        47.0880   52.5340   39.1810 C.3    85  SER85       0.1924
     43  C         46.8810   52.0590   40.6280 C.2    85  SER85       0.2314
     44  O         46.6400   50.8680   40.8880 O.2    85  SER85      -0.2863
     45  CB        45.8230   52.2460   38.3630 C.3    85  SER85       0.2116
     46  OG        44.6530   52.5940   39.0740 O.3    85  SER85      -0.2180
     47  N         43.4800   50.6960   41.1840 N.3    88  GLN88      -0.1245
     48  CA        43.3370   49.3400   40.6520 C.3    88  GLN88       0.1566
     49  C         43.9570   48.2810   41.5670 C.2    88  GLN88       0.2260
     50  O         43.4370   47.1730   41.6940 O.2    88  GLN88      -0.2867
     51  CB        43.9630   49.2550   39.2600 C.3    88  GLN88       0.0367
     52  CG        43.1130   49.8610   38.1430 C.3    88  GLN88       0.0905
     53  CD        43.8100   49.8000   36.7960 C.2    88  GLN88       0.2608
     54  OE1       44.6700   50.6250   36.4830 O.2    88  GLN88      -0.2717
     55  NE2       43.4550   48.8050   35.9990 N.am   88  GLN88      -0.0878
     56  N         53.5320   49.3400   40.8490 N.3   110  CYS110     -0.1221
     57  CA        54.9240   49.1720   40.4360 C.3   110  CYS110      0.1808
     58  C         54.9860   49.1240   38.9170 C.2   110  CYS110      0.2601
     59  O         54.1260   48.5230   38.2720 O.2   110  CYS110     -0.2717
     60  CB        55.4980   47.8700   41.0050 C.3   110  CYS110      0.0970
     61  SG        57.2700   47.5780   40.6480 S.3   110  CYS110     -0.0800
     62  N         56.0010   49.7570   38.3440 N.am  111  ASN111     -0.1960
     63  CA        56.1540   49.7610   36.8990 C.3   111  ASN111      0.1819
     64  C         56.7100   48.4090   36.4430 C.2   111  ASN111      0.2621
     65  O         57.7230   47.9450   36.9710 O.2   111  ASN111     -0.2715
     66  CB        57.0990   50.8830   36.4840 C.3   111  ASN111      0.1195
     67  CG        57.2650   50.9720   34.9860 C.2   111  ASN111      0.2630
     68  OD1       57.4570   49.9540   34.3140 O.2   111  ASN111     -0.2716
     69  ND2       57.1990   52.1880   34.4490 N.am  111  ASN111     -0.0877
     70  N         56.0530   47.7900   35.4600 N.am  112  MET112     -0.1963
     71  CA        56.4710   46.4860   34.9490 C.3   112  MET112      0.1736
     72  C         57.8910   46.4460   34.3790 C.2   112  MET112      0.2616
     73  O         58.4300   45.3700   34.1120 O.2   112  MET112     -0.2715
     74  CB        55.4790   45.9840   33.8970 C.3   112  MET112      0.0427
     75  CG        55.4430   46.7760   32.6090 C.3   112  MET112      0.0599
     76  SD        53.8860   46.5090   31.7200 S.3   112  MET112     -0.1393
     77  CE        54.3120   45.1430   30.7640 C.3   112  MET112      0.0692
     78  N         58.5030   47.6080   34.2040 N.am  113  LEU113     -0.1977
     79  CA        59.8570   47.6500   33.6830 C.3   113  LEU113      0.1596
     80  C         60.8870   47.5050   34.7960 C.2   113  LEU113      0.2287
     81  O         61.9930   47.0390   34.5570 O.2   113  LEU113     -0.2864
     82  CB        60.0890   48.9500   32.9060 C.3   113  LEU113      0.0297
     83  CG        59.9730   48.9050   31.3740 C.3   113  LEU113      0.0022
     84  CD1       58.7900   48.0540   30.9330 C.3   113  LEU113      0.0001
     85  CD2       59.8470   50.3220   30.8490 C.3   113  LEU113      0.0001
     86  N         46.9540   42.5250   27.2130 N.3   129  GLU129     -0.1231
     87  CA        46.5370   43.8230   26.6900 C.3   129  GLU129      0.1699
     88  C         47.2660   44.9780   27.3260 C.2   129  GLU129      0.2592
     89  O         46.7230   46.0720   27.4000 O.2   129  GLU129     -0.2718
     90  CB        45.0470   44.0300   26.9140 C.3   129  GLU129      0.0402
     91  CG        44.2280   42.8940   26.4110 C.3   129  GLU129      0.1161
     92  CD        43.6460   43.1640   25.0540 C.2   129  GLU129      0.3649
     93  OE1       44.3340   43.8070   24.2210 O.co2 129  GLU129     -0.2457
     94  OE2       42.5010   42.7150   24.8270 O.co2 129  GLU129     -0.2457
     95  N         48.4830   44.7590   27.7980 N.am  130  SER130     -0.1952
     96  CA        49.2060   45.8610   28.4090 C.3   130  SER130      0.1924
     97  C         50.5830   46.1040   27.8280 C.2   130  SER130      0.2314
     98  O         51.2360   47.0810   28.1840 O.2   130  SER130     -0.2863
     99  CB        49.3200   45.6520   29.9160 C.3   130  SER130      0.2116
    100  OG        49.9470   44.4250   30.1990 O.3   130  SER130     -0.2180
    101  N         51.6770   49.4720   26.0320 N.3   133  TYR133     -0.1227
    102  CA        51.9810   50.6900   26.7790 C.3   133  TYR133      0.1736
    103  C         53.4620   50.8550   27.1260 C.2   133  TYR133      0.2595
    104  O         53.8390   51.8490   27.7540 O.2   133  TYR133     -0.2718
    105  CB        51.1710   50.7250   28.0810 C.3   133  TYR133      0.0548
    106  CG        49.6870   50.9480   27.9010 C.ar  133  TYR133     -0.0200
    107  CD1       49.1820   52.2160   27.6220 C.ar  133  TYR133     -0.0009
    108  CD2       48.7880   49.8900   28.0140 C.ar  133  TYR133     -0.0009
    109  CE1       47.8160   52.4280   27.4590 C.ar  133  TYR133      0.0417
    110  CE2       47.4230   50.0890   27.8520 C.ar  133  TYR133      0.0417
    111  CZ        46.9450   51.3580   27.5760 C.ar  133  TYR133      0.1957
    112  OH        45.5970   51.5550   27.4160 O.3   133  TYR133     -0.2866
    113  N         54.3060   49.9050   26.7260 N.am  134  VAL134     -0.1980
    114  CA        55.7280   49.9930   27.0670 C.3   134  VAL134      0.1595
    115  C         56.6620   49.5120   25.9820 C.2   134  VAL134      0.2287
    116  O         56.2750   48.7270   25.1200 O.2   134  VAL134     -0.2864
    117  CB        56.0670   49.1430   28.3260 C.3   134  VAL134      0.0276
    118  CG1       55.1160   49.4780   29.4540 C.3   134  VAL134      0.0022
    119  CG2       55.9980   47.6530   27.9900 C.3   134  VAL134      0.0022
@<TRIPOS>BOND
     1    93    92   ar
     2    94    92   ar
     3    92    91    1
     4   116   115    2
     5   115   114    1
     6   101   102    1
     7    91    90    1
     8    87    90    1
     9    87    86    1
    10    87    88    1
    11   113   114    1
    12   113   103   am
    13   102   103    1
    14   102   105    1
    15   114   117    1
    16   103   104    2
    17    88    89    2
    18    88    95   am
    19   112   111    1
    20   109   111   ar
    21   109   107   ar
    22   111   110   ar
    23   107   106   ar
    24    95    96    1
    25    97    98    2
    26    97    96    1
    27   110   108   ar
    28   106   108   ar
    29   106   105    1
    30   119   117    1
    31   117   118    1
    32    96    99    1
    33     4     3    2
    34     3     2    1
    35    99   100    1
    36    77    76    1
    37    85    83    1
    38    84    83    1
    39     8    10   ar
    40     8     6   ar
    41     2     5    1
    42     2     1    1
    43    83    82    1
    44    10     9   ar
    45    76    75    1
    46     6     5    1
    47     6     7   ar
    48     9     7   ar
    49    75    74    1
    50    82    79    1
    51    14    13    2
    52    79    78    1
    53    79    80    1
    54    12    13    1
    55    12    11    1
    56    74    71    1
    57    73    72    2
    58    78    72   am
    59    68    67    2
    60    72    71    1
    61    69    67   am
    62    40    38    1
    63    81    80    2
    64    71    70    1
    65    67    66    1
    66    70    64   am
    67    15    16    1
    68    16    17    1
    69    55    53   am
    70    38    37    1
    71    38    39    1
    72    64    63    1
    73    64    65    2
    74    54    53    2
    75    66    63    1
    76    37    34    1
    77    53    52    1
    78    63    62    1
    79    22    21    2
    80    17    18    2
    81    32    30    1
    82    33    34    1
    83    33    28   am
    84    24    23    1
    85    27    30    1
    86    27    28    1
    87    27    26    1
    88    34    35    1
    89    30    31    1
    90    21    26   am
    91    21    20    1
    92    52    51    1
    93    28    29    2
    94    59    58    2
    95    62    58   am
    96    45    46    1
    97    45    42    1
    98    41    35   am
    99    41    42    1
   100    23    20    1
   101    23    25    1
   102    35    36    2
   103    58    57    1
   104    20    19    1
   105    42    43    1
   106    51    48    1
   107    57    56    1
   108    57    60    1
   109    43    44    2
   110    61    60    1
   111    48    47    1
   112    48    49    1
   113    49    50    2
