@<TRIPOS>MOLECULE
tmp/4f86A00.pdb
 229 225 0 0 0
SMALL
GASTEIGER

@<TRIPOS>ATOM
      1  N         32.9000   27.3700   36.0860 N.3     4  TYR4       -0.1227
      2  CA        33.5540   26.2540   36.7660 C.3     4  TYR4        0.1736
      3  C         35.0680   26.2440   36.6270 C.2     4  TYR4        0.2595
      4  O         35.7800   26.4100   37.6150 O.2     4  TYR4       -0.2718
      5  CB        32.9990   24.9210   36.2680 C.3     4  TYR4        0.0548
      6  CG        33.6030   23.7150   36.9600 C.ar    4  TYR4       -0.0200
      7  CD1       33.3450   23.4550   38.3040 C.ar    4  TYR4       -0.0009
      8  CD2       34.4350   22.8330   36.2690 C.ar    4  TYR4       -0.0009
      9  CE1       33.8990   22.3440   38.9410 C.ar    4  TYR4        0.0417
     10  CE2       34.9950   21.7210   36.8980 C.ar    4  TYR4        0.0417
     11  CZ        34.7210   21.4830   38.2320 C.ar    4  TYR4        0.1957
     12  OH        35.2640   20.3850   38.8580 O.3     4  TYR4       -0.2866
     13  N         35.5660   26.0380   35.4100 N.am    5  GLN5       -0.1979
     14  CA        37.0100   26.0040   35.1910 C.3     5  GLN5        0.1601
     15  C         37.6540   27.2460   35.7860 C.2     5  GLN5        0.2287
     16  O         38.7590   27.1920   36.3300 O.2     5  GLN5       -0.2864
     17  CB        37.3330   25.9190   33.6990 C.3     5  GLN5        0.0394
     18  CG        36.6910   24.7320   33.0070 C.3     5  GLN5        0.0908
     19  CD        37.1350   24.5850   31.5700 C.2     5  GLN5        0.2608
     20  OE1       37.2570   25.5690   30.8390 O.2     5  GLN5       -0.2717
     21  NE2       37.3650   23.3470   31.1510 N.am    5  GLN5       -0.0878
     22  N         38.3740   26.0200   39.2040 N.3     8  ILE8       -0.1245
     23  CA        39.4060   24.9890   39.2190 C.3     8  ILE8        0.1561
     24  C         40.7940   25.5920   39.0360 C.2     8  ILE8        0.2260
     25  O         41.7480   25.1930   39.7060 O.2     8  ILE8       -0.2867
     26  CB        39.1560   23.9420   38.1120 C.3     8  ILE8        0.0252
     27  CG1       37.7790   23.3000   38.3090 C.3     8  ILE8        0.0019
     28  CG2       40.2450   22.8800   38.1410 C.3     8  ILE8        0.0019
     29  CD1       37.5830   22.6490   39.6690 C.3     8  ILE8        0.0001
     30  N         43.7880   25.5540   41.9150 N.3    12  TRP12      -0.1241
     31  CA        45.1500   25.0670   41.7430 C.3    12  TRP12       0.1605
     32  C         46.2130   26.1590   41.7170 C.2    12  TRP12       0.2264
     33  O         47.4040   25.8720   41.8470 O.2    12  TRP12      -0.2867
     34  CB        45.2450   24.2160   40.4770 C.3    12  TRP12       0.0550
     35  CG        44.4470   22.9530   40.5630 C.ar   12  TRP12       0.0003
     36  CD1       43.2750   22.6780   39.9200 C.ar   12  TRP12       0.0946
     37  CD2       44.7550   21.7930   41.3520 C.ar   12  TRP12       0.0152
     38  NE1       42.8330   21.4200   40.2560 N.ar   12  TRP12      -0.2442
     39  CE2       43.7230   20.8540   41.1330 C.ar   12  TRP12       0.0810
     40  CE3       45.8040   21.4570   42.2230 C.ar   12  TRP12       0.0012
     41  CZ2       43.7080   19.5930   41.7570 C.ar   12  TRP12       0.0191
     42  CZ3       45.7880   20.2010   42.8440 C.ar   12  TRP12       0.0001
     43  CH2       44.7460   19.2880   42.6050 C.ar   12  TRP12       0.0015
     44  N         57.4650   16.1670   40.7870 N.3    30  TYR30      -0.1227
     45  CA        56.2950   16.6950   41.4880 C.3    30  TYR30       0.1736
     46  C         54.9570   16.1620   40.9860 C.2    30  TYR30       0.2595
     47  O         54.4010   16.6630   40.0080 O.2    30  TYR30      -0.2718
     48  CB        56.3250   18.2210   41.4230 C.3    30  TYR30       0.0548
     49  CG        57.4500   18.7950   42.2490 C.ar   30  TYR30      -0.0200
     50  CD1       57.3220   18.9220   43.6340 C.ar   30  TYR30      -0.0009
     51  CD2       58.6640   19.1490   41.6640 C.ar   30  TYR30      -0.0009
     52  CE1       58.3730   19.3840   44.4160 C.ar   30  TYR30       0.0417
     53  CE2       59.7250   19.6120   42.4370 C.ar   30  TYR30       0.0417
     54  CZ        59.5700   19.7260   43.8140 C.ar   30  TYR30       0.1957
     55  OH        60.6090   20.1810   44.5930 O.3    30  TYR30      -0.2866
     56  N         54.4390   15.1570   41.6880 N.am   31  HIS31      -0.1961
     57  CA        53.1790   14.5080   41.3330 C.3    31  HIS31       0.1787
     58  C         51.9260   15.1420   41.9280 C.2    31  HIS31       0.2620
     59  O         51.9940   15.9490   42.8560 O.2    31  HIS31      -0.2715
     60  CB        53.2110   13.0390   41.7610 C.3    31  HIS31       0.0785
     61  CG        54.3580   12.2660   41.1930 C.ar   31  HIS31       0.0821
     62  ND1       54.5680   12.1370   39.8370 N.ar   31  HIS31      -0.2267
     63  CD2       55.3470   11.5670   41.7960 C.ar   31  HIS31       0.1154
     64  CE1       55.6380   11.3900   39.6300 C.ar   31  HIS31       0.1986
     65  NE2       56.1290   11.0310   40.8020 N.ar   31  HIS31      -0.2212
     66  N         50.7790   14.7470   41.3790 N.am   32  HIS32      -0.1959
     67  CA        49.4770   15.2210   41.8360 C.3    32  HIS32       0.1787
     68  C         48.4060   14.1490   41.6600 C.2    32  HIS32       0.2620
     69  O         47.3120   14.4010   41.1490 O.2    32  HIS32      -0.2715
     70  CB        49.0790   16.5030   41.1070 C.3    32  HIS32       0.0785
     71  CG        49.5370   17.7440   41.8010 C.ar   32  HIS32       0.0821
     72  ND1       49.0270   18.1410   43.0180 N.ar   32  HIS32      -0.2267
     73  CD2       50.4880   18.6520   41.4770 C.ar   32  HIS32       0.1154
     74  CE1       49.6440   19.2400   43.4140 C.ar   32  HIS32       0.1986
     75  NE2       50.5350   19.5710   42.4970 N.ar   32  HIS32      -0.2212
     76  N         48.7530   12.9400   42.0820 N.am   33  HIS33      -0.1973
     77  CA        47.8540   11.8030   42.0350 C.3    33  HIS33       0.1656
     78  C         48.1150   10.9970   43.2950 C.2    33  HIS33       0.2291
     79  O         48.6660   11.5250   44.2640 O.2    33  HIS33      -0.2864
     80  CB        48.1010   10.9460   40.7920 C.3    33  HIS33       0.0771
     81  CG        49.5460   10.6960   40.4950 C.ar   33  HIS33       0.0820
     82  ND1       50.3240   11.5840   39.7860 N.ar   33  HIS33      -0.2267
     83  CD2       50.3450    9.6420   40.7820 C.ar   33  HIS33       0.1154
     84  CE1       51.5390   11.0850   39.6420 C.ar   33  HIS33       0.1986
     85  NE2       51.5770    9.9070   40.2360 N.ar   33  HIS33      -0.2212
     86  N         49.5580   15.3490   27.8910 N.3    86  ASP86      -0.1239
     87  CA        49.1590   15.1290   29.2760 C.3    86  ASP86       0.1674
     88  C         48.0110   16.0880   29.6280 C.2    86  ASP86       0.2266
     89  O         48.2440   17.2560   29.9510 O.2    86  ASP86      -0.2867
     90  CB        50.3570   15.3800   30.2020 C.3    86  ASP86       0.1410
     91  CG        50.1110   14.9170   31.6320 C.2    86  ASP86       0.3668
     92  OD1       49.0460   15.2410   32.1970 O.co2  86  ASP86      -0.2456
     93  OD2       50.9900   14.2360   32.2000 O.co2  86  ASP86      -0.2456
     94  N         45.7520   17.9170   31.7760 N.3    88  GLY88      -0.1210
     95  CA        45.7820   18.2350   33.1930 C.3    88  GLY88       0.1956
     96  C         47.0730   17.6740   33.7580 C.2    88  GLY88       0.2612
     97  O         47.0620   16.7710   34.5950 O.2    88  GLY88      -0.2717
     98  N         48.1910   18.2230   33.2930 N.am   89  CYS89      -0.1956
     99  CA        49.5200   17.7680   33.6930 C.3    89  CYS89       0.1843
    100  C         49.9920   18.1400   35.0950 C.2    89  CYS89       0.2626
    101  O         50.9720   17.5780   35.5850 O.2    89  CYS89      -0.2714
    102  CB        50.5480   18.2590   32.6720 C.3    89  CYS89       0.0997
    103  SG        50.4940   20.0340   32.4000 S.3    89  CYS89      -0.0797
    104  N         49.3120   19.0800   35.7400 N.am   90  GLY90      -0.1940
    105  CA        49.7260   19.4810   37.0740 C.3    90  GLY90       0.2014
    106  C         51.0680   20.1900   37.0400 C.2    90  GLY90       0.2638
    107  O         51.2410   21.1540   36.2920 O.2    90  GLY90      -0.2714
    108  N         52.0240   19.7190   37.8380 N.am   91  ARG91      -0.1977
    109  CA        53.3460   20.3400   37.8750 C.3    91  ARG91       0.1597
    110  C         54.3470   19.6880   36.9190 C.2    91  ARG91       0.2287
    111  O         55.5180   20.0730   36.8730 O.2    91  ARG91      -0.2864
    112  CB        53.9030   20.3310   39.3020 C.3    91  ARG91       0.0334
    113  CG        53.1260   21.2120   40.2700 C.3    91  ARG91       0.0492
    114  CD        53.7950   21.2530   41.6370 C.3    91  ARG91       0.2205
    115  NE        52.9710   21.9100   42.6500 N.pl3  91  ARG91      -0.0865
    116  CZ        52.6340   23.1960   42.6320 C.cat  91  ARG91       0.5346
    117  NH1       53.0500   23.9830   41.6470 N.pl3  91  ARG91       0.1354
    118  NH2       51.8790   23.6930   43.6020 N.pl3  91  ARG91       0.1354
    119  N         55.1150   16.2760   36.8220 N.3    93  GLY93      -0.1210
    120  CA        55.7820   15.0930   37.3310 C.3    93  GLY93       0.1956
    121  C         55.8030   13.9490   36.3340 C.2    93  GLY93       0.2612
    122  O         56.8660   13.4210   36.0070 O.2    93  GLY93      -0.2717
    123  N         54.6260   13.5690   35.8480 N.am   94  SER94      -0.1952
    124  CA        54.5030   12.4790   34.8860 C.3    94  SER94       0.1924
    125  C         55.1720   12.8080   33.5520 C.2    94  SER94       0.2314
    126  O         55.7240   11.9260   32.8950 O.2    94  SER94      -0.2863
    127  CB        53.0260   12.1560   34.6510 C.3    94  SER94       0.2116
    128  OG        52.3810   11.8310   35.8700 O.3    94  SER94      -0.2180
    129  N         49.2380   20.1850   29.3850 N.3   109  VAL109     -0.1231
    130  CA        48.2330   21.2380   29.3580 C.3   109  VAL109      0.1692
    131  C         47.5130   21.3170   30.7020 C.2   109  VAL109      0.2593
    132  O         47.0520   20.3100   31.2360 O.2   109  VAL109     -0.2718
    133  CB        47.2110   20.9910   28.2260 C.3   109  VAL109      0.0266
    134  CG1       46.4710   19.6840   28.4620 C.3   109  VAL109      0.0020
    135  CG2       46.2490   22.1500   28.1370 C.3   109  VAL109      0.0020
    136  N         47.4370   22.5210   31.2550 N.am  110  THR110     -0.1939
    137  CA        46.7820   22.7200   32.5390 C.3   110  THR110      0.2028
    138  C         46.0650   24.0660   32.6010 C.2   110  THR110      0.2642
    139  O         46.3260   24.9630   31.7960 O.2   110  THR110     -0.2714
    140  CB        47.7960   22.6430   33.6990 C.3   110  THR110      0.1808
    141  OG1       47.1240   22.8880   34.9420 O.3   110  THR110     -0.2208
    142  CG2       48.8960   23.6730   33.5090 C.3   110  THR110      0.0379
    143  N         45.1600   24.1940   33.5650 N.am  111  LEU111     -0.1963
    144  CA        44.3870   25.4150   33.7500 C.3   111  LEU111      0.1728
    145  C         45.1020   26.3800   34.6850 C.2   111  LEU111      0.2616
    146  O         44.7920   27.5720   34.7200 O.2   111  LEU111     -0.2715
    147  CB        43.0090   25.0710   34.3220 C.3   111  LEU111      0.0311
    148  CG        41.7710   25.2180   33.4340 C.3   111  LEU111      0.0022
    149  CD1       42.0190   24.6140   32.0680 C.3   111  LEU111      0.0001
    150  CD2       40.5890   24.5470   34.1180 C.3   111  LEU111      0.0001
    151  N         46.0630   25.8580   35.4390 N.am  112  SER112     -0.1950
    152  CA        46.8150   26.6690   36.3890 C.3   112  SER112      0.1924
    153  C         48.0970   27.2480   35.8040 C.2   112  SER112      0.2314
    154  O         49.0390   26.5120   35.5010 O.2   112  SER112     -0.2863
    155  CB        47.1560   25.8360   37.6270 C.3   112  SER112      0.2116
    156  OG        47.9360   26.5840   38.5420 O.3   112  SER112     -0.2180
    157  N         51.0630   26.1650   37.8980 N.3   115  GLN115     -0.1245
    158  CA        51.5440   24.8120   37.6360 C.3   115  GLN115      0.1566
    159  C         52.3010   24.7320   36.3190 C.2   115  GLN115      0.2260
    160  O         53.2540   23.9610   36.1790 O.2   115  GLN115     -0.2867
    161  CB        50.3800   23.8270   37.5770 C.3   115  GLN115      0.0367
    162  CG        49.5280   23.7510   38.8200 C.3   115  GLN115      0.0905
    163  CD        48.5070   22.6360   38.7200 C.2   115  GLN115      0.2608
    164  OE1       47.8710   22.4560   37.6790 O.2   115  GLN115     -0.2717
    165  NE2       48.3460   21.8790   39.7990 N.am  115  GLN115     -0.0878
    166  N         46.0240   25.8910   29.1730 N.3   137  CYS137     -0.1221
    167  CA        45.0210   25.6540   28.1470 C.3   137  CYS137      0.1808
    168  C         44.0010   24.6270   28.6190 C.2   137  CYS137      0.2601
    169  O         44.3090   23.7650   29.4410 O.2   137  CYS137     -0.2717
    170  CB        45.6960   25.1630   26.8690 C.3   137  CYS137      0.0970
    171  SG        44.5560   24.7470   25.5490 S.3   137  CYS137     -0.0800
    172  N         42.7850   24.7270   28.0980 N.am  138  ASN138     -0.1960
    173  CA        41.7200   23.8070   28.4680 C.3   138  ASN138      0.1819
    174  C         41.8470   22.5080   27.6800 C.2   138  ASN138      0.2621
    175  O         41.7960   22.5160   26.4510 O.2   138  ASN138     -0.2715
    176  CB        40.3620   24.4530   28.2020 C.3   138  ASN138      0.1195
    177  CG        39.2120   23.5290   28.5150 C.2   138  ASN138      0.2630
    178  OD1       39.1870   22.8900   29.5650 O.2   138  ASN138     -0.2716
    179  ND2       38.2470   23.4570   27.6100 N.am  138  ASN138     -0.0877
    180  N         42.0090   21.3950   28.3900 N.am  139  MET139     -0.1977
    181  CA        42.1590   20.0930   27.7480 C.3   139  MET139      0.1605
    182  C         41.0080   19.7350   26.8130 C.2   139  MET139      0.2287
    183  O         41.1200   18.7940   26.0290 O.2   139  MET139     -0.2864
    184  CB        42.3250   18.9920   28.8000 C.3   139  MET139      0.0413
    185  CG        41.1550   18.8450   29.7580 C.3   139  MET139      0.0598
    186  SD        41.2680   17.3470   30.7760 S.3   139  MET139     -0.1393
    187  CE        41.9810   17.9720   32.2720 C.3   139  MET139      0.0692
    188  N         45.7230   11.5070   34.0300 N.3   155  ASN155     -0.1225
    189  CA        46.0830   10.9290   35.3210 C.3   155  ASN155      0.1785
    190  C         45.3590   11.6940   36.4190 C.2   155  ASN155      0.2597
    191  O         45.8730   12.6790   36.9410 O.2   155  ASN155     -0.2718
    192  CB        47.5930   11.0090   35.5500 C.3   155  ASN155      0.1169
    193  CG        48.0630   10.0860   36.6590 C.2   155  ASN155      0.2627
    194  OD1       47.4580   10.0200   37.7260 O.2   155  ASN155     -0.2716
    195  ND2       49.1530    9.3720   36.4110 N.am  155  ASN155     -0.0877
    196  N         44.1610   11.2330   36.7600 N.am  156  GLU156     -0.1965
    197  CA        43.3520   11.8690   37.7890 C.3   156  GLU156      0.1733
    198  C         43.0990   13.3300   37.4420 C.2   156  GLU156      0.2617
    199  O         43.5970   14.2340   38.1150 O.2   156  GLU156     -0.2715
    200  CB        44.0470   11.7780   39.1480 C.3   156  GLU156      0.0429
    201  CG        44.3080   10.3610   39.6200 C.3   156  GLU156      0.1163
    202  CD        44.8480   10.3170   41.0340 C.2   156  GLU156      0.3649
    203  OE1       45.1720    9.2100   41.5140 O.co2 156  GLU156     -0.2457
    204  OE2       44.9430   11.3930   41.6660 O.co2 156  GLU156     -0.2457
    205  N         42.3270   13.5550   36.3860 N.am  157  SER157     -0.1950
    206  CA        42.0040   14.9080   35.9540 C.3   157  SER157      0.1924
    207  C         40.7270   14.8950   35.1240 C.2   157  SER157      0.2314
    208  O         40.2680   15.9360   34.6530 O.2   157  SER157     -0.2863
    209  CB        43.1430   15.4830   35.1170 C.3   157  SER157      0.2116
    210  OG        43.2600   14.7880   33.8870 O.3   157  SER157     -0.2180
    211  N         37.1810   16.6030   36.3040 N.3   160  TYR160     -0.1227
    212  CA        36.9840   18.0370   36.1540 C.3   160  TYR160      0.1736
    213  C         36.3480   18.4340   34.8260 C.2   160  TYR160      0.2595
    214  O         36.1660   19.6230   34.5540 O.2   160  TYR160     -0.2718
    215  CB        38.3230   18.7610   36.3100 C.3   160  TYR160      0.0548
    216  CG        38.9230   18.6690   37.6970 C.ar  160  TYR160     -0.0200
    217  CD1       38.3080   19.2850   38.7870 C.ar  160  TYR160     -0.0009
    218  CD2       40.1130   17.9770   37.9170 C.ar  160  TYR160     -0.0009
    219  CE1       38.8680   19.2150   40.0630 C.ar  160  TYR160      0.0417
    220  CE2       40.6810   17.9010   39.1900 C.ar  160  TYR160      0.0417
    221  CZ        40.0550   18.5220   40.2550 C.ar  160  TYR160      0.1957
    222  OH        40.6190   18.4580   41.5090 O.3   160  TYR160     -0.2866
    223  N         36.0070   17.4480   34.0030 N.am  161  VAL161     -0.1980
    224  CA        35.4090   17.7340   32.7040 C.3   161  VAL161      0.1595
    225  C         34.3710   16.7080   32.2570 C.2   161  VAL161      0.2287
    226  O         34.1970   15.6610   32.8850 O.2   161  VAL161     -0.2864
    227  CB        36.4940   17.8250   31.6070 C.3   161  VAL161      0.0276
    228  CG1       37.4570   18.9640   31.9150 C.3   161  VAL161      0.0022
    229  CG2       37.2470   16.5080   31.5120 C.3   161  VAL161      0.0022
@<TRIPOS>BOND
     1   171   170    1
     2   183   182    2
     3   175   174    2
     4   182   181    1
     5   170   167    1
     6   179   177   am
     7   174   180   am
     8   174   173    1
     9   181   180    1
    10   181   184    1
    11    86    87    1
    12   172   173    1
    13   172   168   am
    14   135   133    1
    15   167   168    1
    16   167   166    1
    17   176   173    1
    18   176   177    1
    19   133   134    1
    20   133   130    1
    21   177   178    2
    22   168   169    2
    23   184   185    1
    24    87    88    1
    25    87    90    1
    26   130   129    1
    27   130   131    1
    28    88    89    2
    29   185   186    1
    30    90    91    1
    31   131   132    2
    32   131   136   am
    33   186   187    1
    34    20    19    2
    35    21    19   am
    36   136   137    1
    37   229   227    1
    38    19    18    1
    39   227   228    1
    40   227   224    1
    41    91    92   ar
    42    91    93   ar
    43    94    95    1
    44   139   138    2
    45   149   148    1
    46   225   224    1
    47   225   226    2
    48   103   102    1
    49   137   138    1
    50   137   140    1
    51   138   143   am
    52   102    99    1
    53   224   223    1
    54   126   125    2
    55    18    17    1
    56    95    96    1
    57    98    99    1
    58    98    96   am
    59   148   150    1
    60   148   147    1
    61   142   140    1
    62   125   124    1
    63   143   144    1
    64    99   100    1
    65   140   141    1
    66    17    14    1
    67   144   147    1
    68   144   145    1
    69    96    97    2
    70   210   209    1
    71   223   213   am
    72   188   189    1
    73   214   213    2
    74   127   124    1
    75   127   128    1
    76   208   207    2
    77   145   146    2
    78   145   151   am
    79   213   212    1
    80   124   123    1
    81   100   101    2
    82   100   104   am
    83   209   206    1
    84   207   206    1
    85    14    13    1
    86    14    15    1
    87   189   192    1
    88   189   190    1
    89    13     3   am
    90   151   152    1
    91   154   153    2
    92   192   193    1
    93   104   105    1
    94    15    16    2
    95   153   152    1
    96   123   121   am
    97   206   205    1
    98   122   121    2
    99     1     2    1
   100   212   211    1
   101   212   215    1
   102   160   159    2
   103     5     2    1
   104     5     6    1
   105     8    10   ar
   106     8     6   ar
   107   107   106    2
   108   215   216    1
   109   159   158    1
   110   121   120    1
   111   205   198   am
   112   152   155    1
   113   195   193   am
   114   190   196   am
   115   190   191    2
   116     3     2    1
   117     3     4    2
   118   193   194    2
   119   196   197    1
   120   119   120    1
   121   111   110    2
   122    10    11   ar
   123   110   109    1
   124     6     7   ar
   125   106   105    1
   126   106   108   am
   127   198   197    1
   128   198   199    2
   129   161   158    1
   130   161   162    1
   131   155   156    1
   132   158   157    1
   133   164   163    2
   134   216   218   ar
   135   216   217   ar
   136   197   200    1
   137   108   109    1
   138   109   112    1
   139   218   220   ar
   140    26    28    1
   141    26    27    1
   142    26    23    1
   143    11    12    1
   144    11     9   ar
   145     7     9   ar
   146    27    29    1
   147   163   162    1
   148   163   165   am
   149   217   219   ar
   150    24    23    1
   151    24    25    2
   152   200   201    1
   153   220   221   ar
   154    22    23    1
   155   112   113    1
   156   201   202    1
   157    64    62   ar
   158    64    65   ar
   159    84    82   ar
   160    84    85   ar
   161    82    81   ar
   162    62    61   ar
   163    36    38   ar
   164    36    35   ar
   165    47    46    2
   166   219   221   ar
   167    85    83   ar
   168   221   222    1
   169    38    39   ar
   170   113   114    1
   171    34    35    1
   172    34    31    1
   173    81    83   ar
   174    81    80    1
   175    35    37   ar
   176    44    45    1
   177    80    77    1
   178    65    63   ar
   179    46    45    1
   180    46    56   am
   181   202   203   ar
   182   202   204   ar
   183    70    71    1
   184    70    67    1
   185    39    37   ar
   186    39    41   ar
   187    69    68    2
   188    61    60    1
   189    61    63   ar
   190    57    56    1
   191    57    60    1
   192    57    58    1
   193    37    40   ar
   194    66    67    1
   195    66    58   am
   196    48    45    1
   197    48    49    1
   198    73    71   ar
   199    73    75   ar
   200   114   115    1
   201   117   116    1
   202    68    67    1
   203    68    76   am
   204    51    49   ar
   205    51    53   ar
   206    32    31    1
   207    32    33    2
   208    31    30    1
   209    41    43   ar
   210    71    72   ar
   211    58    59    2
   212    77    76    1
   213    77    78    1
   214    40    42   ar
   215    49    50   ar
   216    53    54   ar
   217    75    74   ar
   218    43    42   ar
   219   116   115    2
   220   116   118    1
   221    72    74   ar
   222    78    79    2
   223    50    52   ar
   224    54    52   ar
   225    54    55    1
