@<TRIPOS>MOLECULE
tmp/4f8nA00.pdb
 88 89 0 0 0
SMALL
GASTEIGER

@<TRIPOS>ATOM
      1  N         12.4790    3.7800    1.0650 N.3    49  GLY49      -0.1210
      2  CA        11.3260    2.9250    1.2550 C.3    49  GLY49       0.1956
      3  C         10.9950    2.5650    2.6930 C.2    49  GLY49       0.2612
      4  O         10.4160    1.5030    2.9410 O.2    49  GLY49      -0.2717
      5  N         11.3570    3.4420    3.6320 N.am   50  GLY50      -0.1942
      6  CA        11.0170    3.2700    5.0390 C.3    50  GLY50       0.2014
      7  C         11.9030    2.3590    5.8760 C.2    50  GLY50       0.2638
      8  O         11.4230    1.7070    6.8080 O.2    50  GLY50      -0.2714
      9  N         13.1930    2.3130    5.5610 N.am   51  TYR51      -0.1973
     10  CA        14.0860    1.3210    6.1660 C.3    51  TYR51       0.1639
     11  C         15.2170    1.8460    7.0600 C.2    51  TYR51       0.2290
     12  O         15.8760    2.8340    6.7340 O.2    51  TYR51      -0.2864
     13  CB        14.6860    0.4430    5.0650 C.3    51  TYR51       0.0560
     14  CG        13.6950   -0.5340    4.4890 C.ar   51  TYR51      -0.0198
     15  CD1       13.4620   -1.7550    5.1030 C.ar   51  TYR51      -0.0009
     16  CD2       12.9800   -0.2290    3.3390 C.ar   51  TYR51      -0.0009
     17  CE1       12.5460   -2.6480    4.5860 C.ar   51  TYR51       0.0417
     18  CE2       12.0620   -1.1150    2.8110 C.ar   51  TYR51       0.0417
     19  CZ        11.8470   -2.3240    3.4380 C.ar   51  TYR51       0.1957
     20  OH        10.9320   -3.2130    2.9170 O.3    51  TYR51      -0.2866
     21  N         15.6350   -3.0610    7.9840 N.3    60  VAL60      -0.1231
     22  CA        14.5350   -3.3740    8.8830 C.3    60  VAL60       0.1692
     23  C         13.4640   -2.3150    8.6860 C.2    60  VAL60       0.2593
     24  O         13.7430   -1.1250    8.7320 O.2    60  VAL60      -0.2718
     25  CB        14.9850   -3.4030   10.3590 C.3    60  VAL60       0.0266
     26  CG1       13.8290   -3.8230   11.2610 C.3    60  VAL60       0.0020
     27  CG2       16.1700   -4.3490   10.5310 C.3    60  VAL60       0.0020
     28  N         12.2370   -2.7540    8.4450 N.am   61  GLY61      -0.1942
     29  CA        11.1510   -1.8410    8.1550 C.3    61  GLY61       0.2014
     30  C         10.7320   -1.0000    9.3430 C.2    61  GLY61       0.2639
     31  O         10.5100   -1.5100   10.4340 O.2    61  GLY61      -0.2714
     32  N         10.6170    0.3050    9.1230 N.am   62  LEU62      -0.1963
     33  CA        10.0710    1.2060   10.1340 C.3    62  LEU62       0.1728
     34  C          8.5870    1.4730    9.8900 C.2    62  LEU62       0.2616
     35  O          8.1480    1.5840    8.7410 O.2    62  LEU62      -0.2715
     36  CB        10.8390    2.5290   10.1610 C.3    62  LEU62       0.0311
     37  CG        12.2470    2.4480   10.7580 C.3    62  LEU62       0.0022
     38  CD1       12.9070    3.8180   10.7770 C.3    62  LEU62       0.0001
     39  CD2       12.1970    1.8330   12.1600 C.3    62  LEU62       0.0001
     40  N          7.8210    1.5750   10.9740 N.am   63  TYR63      -0.1974
     41  CA         6.3940    1.8860   10.8900 C.3    63  TYR63       0.1639
     42  C          6.0710    3.2010   11.5970 C.2    63  TYR63       0.2290
     43  O          6.8440    3.6760   12.4220 O.2    63  TYR63      -0.2864
     44  CB         5.5530    0.7410   11.4610 C.3    63  TYR63       0.0560
     45  CG         5.4340   -0.4260   10.5140 C.ar   63  TYR63      -0.0198
     46  CD1        6.3710   -1.4490   10.5180 C.ar   63  TYR63      -0.0009
     47  CD2        4.3920   -0.4970    9.6010 C.ar   63  TYR63      -0.0009
     48  CE1        6.2670   -2.5140    9.6410 C.ar   63  TYR63       0.0417
     49  CE2        4.2820   -1.5540    8.7260 C.ar   63  TYR63       0.0417
     50  CZ         5.2180   -2.5580    8.7500 C.ar   63  TYR63       0.1957
     51  OH         5.0990   -3.6080    7.8750 O.3    63  TYR63      -0.2866
     52  N          1.9200    5.5830    5.1570 N.3    69  TRP69      -0.1241
     53  CA         2.9520    5.3120    4.1640 C.3    69  TRP69       0.1605
     54  C          2.4260    5.3730    2.7330 C.2    69  TRP69       0.2264
     55  O          1.4280    4.7310    2.3940 O.2    69  TRP69      -0.2867
     56  CB         3.6160    3.9610    4.4260 C.3    69  TRP69       0.0550
     57  CG         4.7960    3.7150    3.5490 C.ar   69  TRP69       0.0003
     58  CD1        4.9770    2.6640    2.6990 C.ar   69  TRP69       0.0946
     59  CD2        5.9570    4.5480    3.4130 C.ar   69  TRP69       0.0152
     60  NE1        6.1800    2.7870    2.0500 N.ar   69  TRP69      -0.2442
     61  CE2        6.8020    3.9340    2.4720 C.ar   69  TRP69       0.0810
     62  CE3        6.3630    5.7520    4.0000 C.ar   69  TRP69       0.0012
     63  CZ2        8.0340    4.4780    2.1010 C.ar   69  TRP69       0.0191
     64  CZ3        7.5890    6.2890    3.6340 C.ar   69  TRP69       0.0001
     65  CH2        8.4070    5.6530    2.6890 C.ar   69  TRP69       0.0015
     66  N          6.1890    8.9990    4.2490 N.3    76  TRP76      -0.1241
     67  CA         5.1360    8.9700    5.2450 C.3    76  TRP76       0.1605
     68  C          4.4980   10.3460    5.2040 C.2    76  TRP76       0.2264
     69  O          5.1920   11.3440    5.1120 O.2    76  TRP76      -0.2867
     70  CB         5.7190    8.7300    6.6300 C.3    76  TRP76       0.0550
     71  CG         5.9270    7.3050    6.9650 C.ar   76  TRP76       0.0003
     72  CD1        4.9580    6.3750    7.1990 C.ar   76  TRP76       0.0946
     73  CD2        7.1830    6.6320    7.1550 C.ar   76  TRP76       0.0152
     74  NE1        5.5290    5.1640    7.5070 N.ar   76  TRP76      -0.2442
     75  CE2        6.8920    5.2960    7.4840 C.ar   76  TRP76       0.0810
     76  CE3        8.5230    7.0330    7.0670 C.ar   76  TRP76       0.0012
     77  CZ2        7.8890    4.3490    7.7290 C.ar   76  TRP76       0.0191
     78  CZ3        9.5150    6.0870    7.3090 C.ar   76  TRP76       0.0001
     79  CH2        9.1900    4.7620    7.6360 C.ar   76  TRP76       0.0015
     80  N          7.7280   -3.3690   14.2170 N.3    93  LYS93      -0.1245
     81  CA         6.6610   -4.3240   14.4610 C.3    93  LYS93       0.1561
     82  C          7.1340   -5.4410   15.3880 C.2    93  LYS93       0.2260
     83  O          8.2860   -5.8640   15.3210 O.2    93  LYS93      -0.2867
     84  CB         6.2610   -4.9400   13.1250 C.3    93  LYS93       0.0271
     85  CG         4.8700   -4.6020   12.6350 C.3    93  LYS93       0.0035
     86  CD         4.7330   -5.0700   11.1960 C.3    93  LYS93       0.0206
     87  CE         3.3000   -5.4030   10.8260 C.3    93  LYS93       0.1093
     88  NZ         3.1740   -5.9490    9.4430 N.3    93  LYS93      -0.1314
@<TRIPOS>BOND
     1     1     2    1
     2     2     3    1
     3    60    61   ar
     4    60    58   ar
     5    63    61   ar
     6    63    65   ar
     7    55    54    2
     8    61    59   ar
     9    65    64   ar
    10     3     4    2
    11     3     5   am
    12    58    57   ar
    13    54    53    1
    14    18    16   ar
    15    18    19   ar
    16    20    19    1
    17    16    14   ar
    18    59    57   ar
    19    59    62   ar
    20    19    17   ar
    21    57    56    1
    22     5     6    1
    23    64    62   ar
    24    53    56    1
    25    53    52    1
    26    66    67    1
    27    14    13    1
    28    14    15   ar
    29    17    15   ar
    30     6     7    1
    31    13    10    1
    32    69    68    2
    33    68    67    1
    34    67    70    1
    35     9     7   am
    36     9    10    1
    37     7     8    2
    38    10    11    1
    39    70    71    1
    40    12    11    2
    41    71    73   ar
    42    71    72   ar
    43    76    73   ar
    44    76    78   ar
    45    73    75   ar
    46    72    74   ar
    47    78    79   ar
    48    75    74   ar
    49    75    77   ar
    50    79    77   ar
    51    51    50    1
    52    21    22    1
    53    29    28    1
    54    29    30    1
    55    28    23   am
    56    23    24    2
    57    23    22    1
    58    49    50   ar
    59    49    47   ar
    60    35    34    2
    61    50    48   ar
    62    22    25    1
    63    32    30   am
    64    32    33    1
    65    30    31    2
    66    88    87    1
    67    47    45   ar
    68    48    46   ar
    69    34    33    1
    70    34    40   am
    71    33    36    1
    72    36    37    1
    73    25    27    1
    74    25    26    1
    75    45    46   ar
    76    45    44    1
    77    37    38    1
    78    37    39    1
    79    87    86    1
    80    41    40    1
    81    41    44    1
    82    41    42    1
    83    86    85    1
    84    42    43    2
    85    85    84    1
    86    84    81    1
    87    80    81    1
    88    81    82    1
    89    83    82    2
