@<TRIPOS>MOLECULE
tmp/4f8xA00.pdb
 100 100 0 0 0
SMALL
GASTEIGER

@<TRIPOS>ATOM
      1  N          6.9170  -23.1010   27.4510 N.3   254  PRO254     -0.2102
      2  CA         5.7290  -22.6650   28.1910 C.3   254  PRO254      0.1504
      3  C          5.4830  -21.1650   28.1400 C.2   254  PRO254      0.2576
      4  O          6.4290  -20.3490   28.0500 O.2   254  PRO254     -0.2718
      5  CB         6.0710  -23.0710   29.6270 C.3   254  PRO254      0.0282
      6  CG         7.5120  -22.9130   29.7360 C.3   254  PRO254      0.0208
      7  CD         8.0660  -23.2850   28.3740 C.3   254  PRO254      0.0893
      8  N          4.1950  -20.7950   28.2400 N.am  255  TYR255     -0.1963
      9  CA         3.8270  -19.3960   28.2150 C.3   255  TYR255      0.1771
     10  C          3.5500  -18.7950   29.5830 C.2   255  TYR255      0.2620
     11  O          3.4170  -17.5830   29.7240 O.2   255  TYR255     -0.2715
     12  CB         2.5600  -19.1410   27.4010 C.3   255  TYR255      0.0574
     13  CG         2.4940  -19.8020   26.0540 C.ar  255  TYR255     -0.0198
     14  CD1        1.2710  -20.2280   25.5010 C.ar  255  TYR255     -0.0009
     15  CD2        3.6580  -19.9750   25.2640 C.ar  255  TYR255     -0.0009
     16  CE1        1.2090  -20.8190   24.2540 C.ar  255  TYR255      0.0417
     17  CE2        3.5570  -20.5840   23.9850 C.ar  255  TYR255      0.0417
     18  CZ         2.3400  -20.9860   23.4980 C.ar  255  TYR255      0.1957
     19  OH         2.1900  -21.5680   22.2920 O.3   255  TYR255     -0.2866
     20  N          3.3780  -19.6160   30.6130 N.am  256  TYR256     -0.1960
     21  CA         2.7410  -19.1680   31.8540 C.3   256  TYR256      0.1771
     22  C          3.5250  -19.4540   33.1570 C.2   256  TYR256      0.2620
     23  O          3.0030  -19.2100   34.2720 O.2   256  TYR256     -0.2715
     24  CB         1.3470  -19.7600   31.9590 C.3   256  TYR256      0.0574
     25  CG         0.4850  -19.4990   30.7380 C.ar  256  TYR256     -0.0198
     26  CD1        0.0070  -18.2140   30.4480 C.ar  256  TYR256     -0.0009
     27  CD2        0.1150  -20.5090   29.8970 C.ar  256  TYR256     -0.0009
     28  CE1       -0.7700  -17.9640   29.3780 C.ar  256  TYR256      0.0417
     29  CE2       -0.7080  -20.2360   28.7850 C.ar  256  TYR256      0.0417
     30  CZ        -1.1530  -18.9620   28.5450 C.ar  256  TYR256      0.1957
     31  OH        -1.9770  -18.7090   27.4340 O.3   256  TYR256     -0.2866
     32  N          4.7820  -19.8600   33.0170 N.am  257  THR257     -0.1951
     33  CA         5.7070  -20.0280   34.1220 C.3   257  THR257      0.1897
     34  C          6.1540  -18.6660   34.6420 C.2   257  THR257      0.2313
     35  O          6.0530  -17.6440   33.9480 O.2   257  THR257     -0.2863
     36  CB         7.0720  -20.7470   33.6700 C.3   257  THR257      0.1794
     37  OG1        7.8610  -19.8770   32.7840 O.3   257  THR257     -0.2208
     38  CG2        6.8290  -21.9240   32.9930 C.3   257  THR257      0.0378
     39  N          6.7180  -15.3690   32.2990 N.3   261  GLN261     -0.1245
     40  CA         5.8850  -14.2130   32.4860 C.3   261  GLN261      0.1566
     41  C          6.6190  -12.9510   32.9180 C.2   261  GLN261      0.2260
     42  O          6.2080  -11.8420   32.6140 O.2   261  GLN261     -0.2867
     43  CB         4.6730  -14.5060   33.3810 C.3   261  GLN261      0.0367
     44  CG         3.7390  -15.4250   32.7420 C.3   261  GLN261      0.0905
     45  CD         2.4050  -15.5580   33.3990 C.2   261  GLN261      0.2608
     46  OE1        2.3010  -15.5920   34.6250 O.2   261  GLN261     -0.2717
     47  NE2        1.3750  -15.6290   32.5700 N.am  261  GLN261     -0.0878
     48  N         -4.9140  -13.9660   30.1940 N.3   311  ASN311     -0.1225
     49  CA        -4.9300  -15.3330   29.6890 C.3   311  ASN311      0.1785
     50  C         -6.3810  -15.7700   29.2530 C.2   311  ASN311      0.2597
     51  O         -7.3290  -14.9130   29.1940 O.2   311  ASN311     -0.2718
     52  CB        -4.3140  -16.2690   30.7160 C.3   311  ASN311      0.1169
     53  CG        -5.2930  -16.6270   31.8740 C.2   311  ASN311      0.2627
     54  OD1       -6.3530  -16.0230   31.9990 O.2   311  ASN311     -0.2716
     55  ND2       -4.9240  -17.5690   32.7490 N.am  311  ASN311     -0.0877
     56  N         -6.5670  -17.0740   28.9660 N.am  312  ASN312     -0.1960
     57  CA        -7.8190  -17.5410   28.3620 C.3   312  ASN312      0.1819
     58  C         -9.0510  -17.3620   29.2750 C.2   312  ASN312      0.2621
     59  O        -10.1810  -17.3170   28.7690 O.2   312  ASN312     -0.2715
     60  CB        -7.7260  -19.0240   27.9850 C.3   312  ASN312      0.1195
     61  CG        -6.7090  -19.3450   26.9310 C.2   312  ASN312      0.2630
     62  OD1       -6.2930  -18.4790   26.1570 O.2   312  ASN312     -0.2716
     63  ND2       -6.2930  -20.6330   26.8670 N.am  312  ASN312     -0.0877
     64  N         -8.8250  -17.3390   30.5900 N.am  313  THR313     -0.1951
     65  CA        -9.9100  -17.1860   31.5700 C.3   313  THR313      0.1897
     66  C         -9.9290  -15.7380   32.1030 C.2   313  THR313      0.2313
     67  O        -10.5950  -15.4010   33.1060 O.2   313  THR313     -0.2863
     68  CB        -9.8360  -18.3190   32.6700 C.3   313  THR313      0.1794
     69  OG1       -9.5800  -19.6000   32.0340 O.3   313  THR313     -0.2208
     70  CG2      -11.1540  -18.4850   33.4250 C.3   313  THR313      0.0378
     71  N         -7.6550  -13.8470   33.4020 N.3   315  GLU315     -0.1231
     72  CA        -6.7720  -13.4460   34.5170 C.3   315  GLU315      0.1699
     73  C         -5.6420  -12.5250   34.0400 C.2   315  GLU315      0.2592
     74  O         -4.9440  -12.8720   33.0810 O.2   315  GLU315     -0.2718
     75  CB        -6.1560  -14.6470   35.2370 C.3   315  GLU315      0.0402
     76  CG        -5.3560  -14.2540   36.4350 C.3   315  GLU315      0.1161
     77  CD        -4.8040  -15.4310   37.2460 C.2   315  GLU315      0.3649
     78  OE1       -4.3740  -15.1380   38.3840 O.co2 315  GLU315     -0.2457
     79  OE2       -4.7660  -16.5950   36.7760 O.co2 315  GLU315     -0.2457
     80  N         -5.4910  -11.4010   34.6780 N.am  316  ALA316     -0.1966
     81  CA        -4.4310  -10.4610   34.3440 C.3   316  ALA316      0.1728
     82  C         -3.1000  -11.0470   34.7150 C.2   316  ALA316      0.2616
     83  O         -2.8940  -11.4810   35.8470 O.2   316  ALA316     -0.2715
     84  CB        -4.6400   -9.1400   35.0830 C.3   316  ALA316      0.0334
     85  N         -2.1700  -10.9590   33.7620 N.am  317  LYS317     -0.1964
     86  CA        -0.8250  -11.4880   33.9080 C.3   317  LYS317      0.1713
     87  C          0.1200  -10.4650   34.5020 C.2   317  LYS317      0.2458
     88  O         -0.2190   -9.3000   34.5770 O.2   317  LYS317     -0.2730
     89  CB        -0.2900  -11.8630   32.5200 C.3   317  LYS317      0.0311
     90  CG        -1.1010  -12.9040   31.7710 C.3   317  LYS317      0.0038
     91  CD        -0.4720  -13.0830   30.3720 C.3   317  LYS317      0.0206
     92  CE        -1.2410  -14.1490   29.5640 C.3   317  LYS317      0.1093
     93  NZ        -0.6080  -14.3120   28.2080 N.3   317  LYS317     -0.1314
     94  N          1.3190  -10.9150   34.9050 N.am  318  PRO318     -0.2727
     95  CA         2.3170   -9.9170   35.3020 C.3   318  PRO318      0.1402
     96  C          2.4730   -8.7790   34.2530 C.2   318  PRO318      0.2269
     97  O          2.6180   -7.6150   34.6240 O.2   318  PRO318     -0.2865
     98  CB         3.5790  -10.7520   35.4770 C.3   318  PRO318      0.0296
     99  CG         3.0030  -12.1210   35.9350 C.3   318  PRO318      0.0237
    100  CD         1.8150  -12.3030   35.0520 C.3   318  PRO318      0.0939
@<TRIPOS>BOND
     1    19    18    1
     2    18    17   ar
     3    18    16   ar
     4    17    15   ar
     5    16    14   ar
     6    15    13   ar
     7    14    13   ar
     8    13    12    1
     9    62    61    2
    10    63    61   am
    11    61    60    1
    12    12     9    1
    13    31    30    1
    14     1     2    1
    15     1     7    1
    16    60    57    1
    17     4     3    2
    18     3     2    1
    19     3     8   am
    20     2     5    1
    21    93    92    1
    22     9     8    1
    23     9    10    1
    24    57    56    1
    25    57    58    1
    26     7     6    1
    27    30    29   ar
    28    30    28   ar
    29    59    58    2
    30    29    27   ar
    31    56    50   am
    32    51    50    2
    33    50    49    1
    34    58    64   am
    35    28    26   ar
    36    92    91    1
    37    10    11    2
    38    10    20   am
    39     5     6    1
    40    49    48    1
    41    49    52    1
    42    27    25   ar
    43    91    90    1
    44    26    25   ar
    45    64    65    1
    46    20    21    1
    47    52    53    1
    48    25    24    1
    49    65    66    1
    50    65    68    1
    51    90    89    1
    52    21    24    1
    53    21    22    1
    54    53    54    2
    55    53    55   am
    56    69    68    1
    57    66    67    2
    58    39    40    1
    59    40    41    1
    60    40    43    1
    61    89    86    1
    62    47    45   am
    63    42    41    2
    64    68    70    1
    65    44    43    1
    66    44    45    1
    67    37    36    1
    68    38    36    1
    69    32    22   am
    70    32    33    1
    71    74    73    2
    72    22    23    2
    73    45    46    2
    74    71    72    1
    75    36    33    1
    76    85    86    1
    77    85    82   am
    78    86    87    1
    79    35    34    2
    80    73    72    1
    81    73    80   am
    82    33    34    1
    83    96    97    2
    84    96    95    1
    85    81    80    1
    86    81    82    1
    87    81    84    1
    88    87    88    2
    89    87    94   am
    90    72    75    1
    91    82    83    2
    92    94   100    1
    93    94    95    1
    94   100    99    1
    95    75    76    1
    96    95    98    1
    97    98    99    1
    98    76    77    1
    99    79    77   ar
   100    77    78   ar
