@<TRIPOS>MOLECULE
tmp/4f94A00.pdb
 162 154 0 0 0
SMALL
GASTEIGER

@<TRIPOS>ATOM
      1  N         27.0470    1.7170    7.0830 N.3    51  SER51      -0.1217
      2  CA        26.4570    1.2700    8.3660 C.3    51  SER51       0.1889
      3  C         25.6110    2.2790    9.0340 C.2    51  SER51       0.2288
      4  O         25.0570    1.9320   10.1130 O.2    51  SER51      -0.2866
      5  CB        27.5220    0.9160    9.4050 C.3    51  SER51       0.2089
      6  OG        28.3180   -0.1040    8.8740 O.3    51  SER51      -0.2183
      7  N         36.3710   -9.1300   11.6670 N.3    82  TYR82      -0.1241
      8  CA        37.0180   -8.6510   12.8960 C.3    82  TYR82       0.1605
      9  C         36.6690   -9.5350   14.1120 C.2    82  TYR82       0.2264
     10  O         35.5050   -9.9170   14.2950 O.2    82  TYR82      -0.2867
     11  CB        36.6160   -7.1960   13.1690 C.3    82  TYR82       0.0534
     12  CG        36.8110   -6.2850   11.9820 C.ar   82  TYR82      -0.0201
     13  CD1       38.0970   -5.9090   11.5810 C.ar   82  TYR82      -0.0009
     14  CD2       35.7190   -5.7560   11.2730 C.ar   82  TYR82      -0.0009
     15  CE1       38.3000   -5.0370   10.5190 C.ar   82  TYR82       0.0417
     16  CE2       35.9050   -4.8900   10.1910 C.ar   82  TYR82       0.0417
     17  CZ        37.2090   -4.5350    9.8290 C.ar   82  TYR82       0.1957
     18  OH        37.4740   -3.7150    8.7440 O.3    82  TYR82      -0.2866
     19  N         36.2300   -8.8600   17.0460 N.3    84  MET84      -0.1230
     20  CA        35.2270   -8.2470   17.9280 C.3    84  MET84       0.1702
     21  C         33.7910   -8.6900   17.5270 C.2    84  MET84       0.2592
     22  O         32.8630   -8.5810   18.3140 O.2    84  MET84      -0.2718
     23  CB        35.3970   -6.7320   17.8840 C.3    84  MET84       0.0401
     24  CG        35.2040   -6.0970   16.4680 C.3    84  MET84       0.0596
     25  SD        34.9870   -4.2780   16.4980 S.3    84  MET84      -0.1393
     26  CE        35.1970   -3.7480   14.7970 C.3    84  MET84       0.0692
     27  N         33.6150   -9.1720   16.2890 N.am   85  TRP85      -0.1976
     28  CA        32.3080   -9.6190   15.8070 C.3    85  TRP85       0.1640
     29  C         32.0730  -11.0960   16.0930 C.2    85  TRP85       0.2290
     30  O         30.9590  -11.5640   15.9020 O.2    85  TRP85      -0.2864
     31  CB        32.1450   -9.3780   14.3190 C.3    85  TRP85       0.0576
     32  CG        32.1890   -7.9180   13.8890 C.ar   85  TRP85       0.0006
     33  CD1       32.0520   -6.8100   14.6720 C.ar   85  TRP85       0.0946
     34  CD2       32.2190   -7.4390   12.5320 C.ar   85  TRP85       0.0152
     35  NE1       32.0390   -5.6740   13.8870 N.ar   85  TRP85      -0.2442
     36  CE2       32.1320   -6.0360   12.5790 C.ar   85  TRP85       0.0810
     37  CE3       32.3080   -8.0740   11.2780 C.ar   85  TRP85       0.0012
     38  CZ2       32.2110   -5.2530   11.4420 C.ar   85  TRP85       0.0191
     39  CZ3       32.3800   -7.2850   10.1340 C.ar   85  TRP85       0.0001
     40  CH2       32.3410   -5.9000   10.2190 C.ar   85  TRP85       0.0015
     41  N         29.3730   -1.9350   17.9650 N.3    97  LEU97      -0.1231
     42  CA        30.4710   -2.6080   17.2940 C.3    97  LEU97       0.1693
     43  C         30.3590   -2.4890   15.7830 C.2    97  LEU97       0.2592
     44  O         31.3140   -2.8660   15.0500 O.2    97  LEU97      -0.2718
     45  CB        30.4840   -4.0720   17.7040 C.3    97  LEU97       0.0284
     46  CG        30.8560   -4.3580   19.1480 C.3    97  LEU97       0.0019
     47  CD1       30.7440   -5.8490   19.4330 C.3    97  LEU97       0.0001
     48  CD2       32.2720   -3.8980   19.4930 C.3    97  LEU97       0.0001
     49  N         29.2070   -1.9880   15.3120 N.am   98  SER98      -0.1952
     50  CA        28.8380   -2.0060   13.8900 C.3    98  SER98       0.1924
     51  C         28.9720   -3.3910   13.2800 C.2    98  SER98       0.2314
     52  O         29.6450   -3.5710   12.2670 O.2    98  SER98      -0.2863
     53  CB        29.7060   -1.0200   13.0730 C.3    98  SER98       0.2116
     54  OG        29.0600   -0.6120   11.8120 O.3    98  SER98      -0.2180
     55  N         28.2200   -5.9770   11.1680 N.3   100  VAL100     -0.1245
     56  CA        27.5250   -6.1770    9.9280 C.3   100  VAL100      0.1561
     57  C         26.7240   -7.4910    9.9010 C.2   100  VAL100      0.2260
     58  O         25.5750   -7.5180    9.4890 O.2   100  VAL100     -0.2867
     59  CB        28.5120   -6.0980    8.7340 C.3   100  VAL100      0.0252
     60  CG1       27.8500   -6.5440    7.4590 C.3   100  VAL100      0.0019
     61  CG2       28.9860   -4.6750    8.5480 C.3   100  VAL100      0.0019
     62  N         22.8540   -7.7760    8.9310 N.3   104  GLN104     -0.1245
     63  CA        22.4710   -8.6400    7.7950 C.3   104  GLN104      0.1566
     64  C         21.4080   -9.7220    8.1470 C.2   104  GLN104      0.2260
     65  O         20.4340   -9.9150    7.4230 O.2   104  GLN104     -0.2867
     66  CB        23.7150   -9.2880    7.1730 C.3   104  GLN104      0.0367
     67  CG        24.5870   -8.2930    6.4610 C.3   104  GLN104      0.0905
     68  CD        25.7500   -8.9310    5.7340 C.2   104  GLN104      0.2608
     69  OE1       26.5840   -9.5620    6.3430 O.2   104  GLN104     -0.2717
     70  NE2       25.8260   -8.7350    4.4280 N.am  104  GLN104     -0.0878
     71  N         22.7340   -6.4530    1.5100 N.3   135  ASN135     -0.1240
     72  CA        23.8850   -5.5810    1.2970 C.3   135  ASN135      0.1653
     73  C         23.6580   -4.2550    0.5640 C.2   135  ASN135      0.2266
     74  O         24.6280   -3.6070    0.2170 O.2   135  ASN135     -0.2867
     75  CB        24.9090   -6.3510    0.5160 C.3   135  ASN135      0.1155
     76  CG        24.5040   -6.5150   -0.9450 C.2   135  ASN135      0.2627
     77  OD1       23.4690   -6.0040   -1.4400 O.2   135  ASN135     -0.2716
     78  ND2       25.3300   -7.2000   -1.6440 N.am  135  ASN135     -0.0877
     79  N         25.3530   -1.2340    1.7890 N.3   138  LEU138     -0.1231
     80  CA        26.8150   -1.2650    1.7150 C.3   138  LEU138      0.1693
     81  C         27.3340   -1.1340    0.3120 C.2   138  LEU138      0.2591
     82  O         28.3470   -0.5580    0.1440 O.2   138  LEU138     -0.2718
     83  CB        27.3700   -2.5640    2.2890 C.3   138  LEU138      0.0284
     84  CG        26.9370   -2.7900    3.7480 C.3   138  LEU138      0.0019
     85  CD1       26.8530   -4.2480    4.1160 C.3   138  LEU138      0.0001
     86  CD2       27.8390   -2.0150    4.6890 C.3   138  LEU138      0.0001
     87  N         26.6520   -1.6800   -0.6850 N.am  139  VAL139     -0.1980
     88  CA        27.1380   -1.6090   -2.0580 C.3   139  VAL139      0.1595
     89  C         26.1980   -0.8940   -3.0250 C.2   139  VAL139      0.2287
     90  O         26.4530   -0.8860   -4.1880 O.2   139  VAL139     -0.2864
     91  CB        27.4160   -3.0220   -2.6440 C.3   139  VAL139      0.0276
     92  CG1       28.4380   -3.7730   -1.8120 C.3   139  VAL139      0.0022
     93  CG2       26.1500   -3.8750   -2.7590 C.3   139  VAL139      0.0022
     94  N         25.8790    7.1220   14.7180 N.3   188  LYS188     -0.1231
     95  CA        26.3540    5.9270   14.0730 C.3   188  LYS188      0.1693
     96  C         27.3200    6.2590   12.9220 C.2   188  LYS188      0.2592
     97  O         27.0680    7.1530   12.0940 O.2   188  LYS188     -0.2718
     98  CB        25.1760    5.1180   13.5500 C.3   188  LYS188      0.0285
     99  CG        25.5410    3.8440   12.8240 C.3   188  LYS188      0.0035
    100  CD        25.9810    2.7510   13.7790 C.3   188  LYS188      0.0206
    101  CE        26.6900    1.5820   13.0810 C.3   188  LYS188      0.1093
    102  NZ        28.1620    1.8500   12.8850 N.3   188  LYS188     -0.1314
    103  N         28.3950    5.4750   12.8560 N.am  189  SER189     -0.1952
    104  CA        29.4490    5.6220   11.8890 C.3   189  SER189      0.1924
    105  C         29.1100    4.7600   10.6970 C.2   189  SER189      0.2314
    106  O         28.3110    3.8320   10.8110 O.2   189  SER189     -0.2863
    107  CB        30.7930    5.1880   12.4740 C.3   189  SER189      0.2116
    108  OG        30.7000    3.8020   12.8150 O.3   189  SER189     -0.2180
    109  N         31.3350    3.3690    6.9120 N.3   191  TRP191     -0.1227
    110  CA        32.5410    3.3290    6.0950 C.3   191  TRP191      0.1737
    111  C         32.2310    2.4740    4.8360 C.2   191  TRP191      0.2596
    112  O         31.9100    1.2990    4.9420 O.2   191  TRP191     -0.2718
    113  CB        33.6120    2.7010    6.9340 C.3   191  TRP191      0.0564
    114  CG        34.9810    2.8250    6.4340 C.ar  191  TRP191      0.0003
    115  CD1       35.3660    2.9070    5.1460 C.ar  191  TRP191      0.0946
    116  CD2       36.1760    2.8500    7.2220 C.ar  191  TRP191      0.0152
    117  NE1       36.7320    2.9600    5.0800 N.ar  191  TRP191     -0.2442
    118  CE2       37.2530    2.9290    6.3330 C.ar  191  TRP191      0.0810
    119  CE3       36.4370    2.7770    8.5930 C.ar  191  TRP191      0.0012
    120  CZ2       38.5610    2.9750    6.7400 C.ar  191  TRP191      0.0191
    121  CZ3       37.7650    2.8120    9.0290 C.ar  191  TRP191      0.0001
    122  CH2       38.8160    2.9300    8.1010 C.ar  191  TRP191      0.0015
    123  N         32.2340    3.1080    3.6620 N.am  192  GLY192     -0.1942
    124  CA        31.8640    2.4360    2.4240 C.3   192  GLY192      0.2014
    125  C         32.8520    1.4110    1.8670 C.2   192  GLY192      0.2639
    126  O         33.9760    1.1980    2.3950 O.2   192  GLY192     -0.2714
    127  N         32.3980    0.7160    0.8290 N.am  193  MET193     -0.1963
    128  CA        33.1830   -0.3650    0.1640 C.3   193  MET193      0.1736
    129  C         34.2500    0.2180   -0.7720 C.2   193  MET193      0.2617
    130  O         34.2820    1.4280   -1.0470 O.2   193  MET193     -0.2715
    131  CB        32.2390   -1.2320   -0.6820 C.3   193  MET193      0.0427
    132  CG        31.4930   -0.3920   -1.7330 C.3   193  MET193      0.0599
    133  SD        30.7890   -1.1710   -3.2050 S.3   193  MET193     -0.1393
    134  CE        31.9940   -2.4630   -3.6000 C.3   193  MET193      0.0692
    135  N         35.0890   -0.6620   -1.3060 N.am  194  GLY194     -0.1955
    136  CA        35.8730   -0.3760   -2.5150 C.3   194  GLY194      0.1869
    137  C         37.2960   -0.0920   -2.1200 C.2   194  GLY194      0.2309
    138  O         37.6700   -0.1980   -0.9230 O.2   194  GLY194     -0.2863
    139  N         37.4310    5.5340    0.2310 N.3   198  GLN198     -0.1245
    140  CA        36.0120    5.1820    0.4140 C.3   198  GLN198      0.1566
    141  C         35.2610    6.3290    1.1270 C.2   198  GLN198      0.2260
    142  O         35.8690    7.1680    1.7440 O.2   198  GLN198     -0.2867
    143  CB        35.8920    3.9140    1.2780 C.3   198  GLN198      0.0367
    144  CG        36.5860    2.6470    0.7630 C.3   198  GLN198      0.0905
    145  CD        37.8810    2.3640    1.5190 C.2   198  GLN198      0.2608
    146  OE1       38.1720    2.9920    2.5320 O.2   198  GLN198     -0.2717
    147  NE2       38.6610    1.4280    1.0210 N.am  198  GLN198     -0.0878
    148  N         39.5400    4.8040   11.7470 N.3   228  GLY228     -0.1225
    149  CA        38.1410    5.1250   11.8210 C.3   228  GLY228      0.1811
    150  C         37.8400    6.2810   12.7500 C.2   228  GLY228      0.2280
    151  O         36.9240    7.0520   12.4910 O.2   228  GLY228     -0.2866
    152  N         36.8460   10.1630   12.1830 N.3   231  ARG231     -0.1245
    153  CA        35.5270   10.7160   11.9250 C.3   231  ARG231      0.1563
    154  C         35.0030   11.3690   13.2000 C.2   231  ARG231      0.2260
    155  O         34.4620   12.4650   13.1770 O.2   231  ARG231     -0.2867
    156  CB        34.5920    9.6360   11.4720 C.3   231  ARG231      0.0307
    157  CG        35.0320    8.9770   10.2030 C.3   231  ARG231      0.0489
    158  CD        34.3010    7.6710    9.8710 C.3   231  ARG231      0.2205
    159  NE        34.5870    6.6260   10.8520 N.pl3 231  ARG231     -0.0865
    160  CZ        34.1340    5.3760   10.7680 C.cat 231  ARG231      0.5346
    161  NH1       34.4310    4.5010   11.7040 N.pl3 231  ARG231      0.1354
    162  NH2       33.3560    5.0110    9.7690 N.pl3 231  ARG231      0.1354
@<TRIPOS>BOND
     1    90    89    2
     2   134   133    1
     3   133   132    1
     4    89    88    1
     5    93    91    1
     6    91    88    1
     7    91    92    1
     8   136   137    1
     9   136   135    1
    10   137   138    2
    11    88    87    1
    12   132   131    1
    13    78    76   am
    14    77    76    2
    15   135   129   am
    16   130   129    2
    17    76    75    1
    18   129   128    1
    19    87    81   am
    20   131   128    1
    21    82    81    2
    22   128   127    1
    23    74    73    2
    24   139   140    1
    25    81    80    1
    26   140   141    1
    27   140   143    1
    28    75    72    1
    29    73    72    1
    30   144   143    1
    31   144   145    1
    32   127   125   am
    33   147   145   am
    34   141   142    2
    35    72    71    1
    36   145   146    2
    37    80    79    1
    38    80    83    1
    39   125   126    2
    40   125   124    1
    41    83    84    1
    42   124   123    1
    43   123   111   am
    44    84    85    1
    45    84    86    1
    46    70    68   am
    47   111   112    2
    48   111   110    1
    49   117   115   ar
    50   117   118   ar
    51   115   114   ar
    52    68    69    2
    53    68    67    1
    54   110   109    1
    55   110   113    1
    56   118   120   ar
    57   118   116   ar
    58   114   113    1
    59   114   116   ar
    60    67    66    1
    61   120   122   ar
    62     1     2    1
    63    66    63    1
    64   116   119   ar
    65    65    64    2
    66    60    59    1
    67    63    64    1
    68    63    62    1
    69   122   121   ar
    70     2     3    1
    71     2     5    1
    72    61    59    1
    73   119   121   ar
    74    59    56    1
    75    18    17    1
    76     6     5    1
    77     3     4    2
    78    58    57    2
    79   162   160    1
    80    17    16   ar
    81    17    15   ar
    82   158   157    1
    83   158   159    1
    84    57    56    1
    85    56    55    1
    86    39    40   ar
    87    39    37   ar
    88    16    14   ar
    89   157   156    1
    90    40    38   ar
    91    15    13   ar
    92   105   106    2
    93   105   104    1
    94   160   159    2
    95   160   161    1
    96    14    12   ar
    97    37    34   ar
    98    38    36   ar
    99   156   153    1
   100    13    12   ar
   101     7     8    1
   102   148   149    1
   103    54    53    1
   104   149   150    1
   105   104   107    1
   106   104   103    1
   107   153   152    1
   108   153   154    1
   109    12    11    1
   110    97    96    2
   111    52    51    2
   112   107   108    1
   113   151   150    2
   114    34    36   ar
   115    34    32   ar
   116    36    35   ar
   117    99    98    1
   118    99   100    1
   119   103    96   am
   120   102   101    1
   121     8    11    1
   122     8     9    1
   123    96    95    1
   124    53    50    1
   125   101   100    1
   126   155   154    2
   127    51    50    1
   128    98    95    1
   129    35    33   ar
   130    32    31    1
   131    32    33   ar
   132    50    49    1
   133    95    94    1
   134     9    10    2
   135    31    28    1
   136    26    25    1
   137    44    43    2
   138    49    43   am
   139    43    42    1
   140    28    29    1
   141    28    27    1
   142    30    29    2
   143    27    21   am
   144    24    25    1
   145    24    23    1
   146    19    20    1
   147    42    45    1
   148    42    41    1
   149    21    20    1
   150    21    22    2
   151    45    46    1
   152    23    20    1
   153    46    47    1
   154    46    48    1
