@<TRIPOS>MOLECULE
tmp/4f97A01.pdb
 181 175 0 0 0
SMALL
GASTEIGER

@<TRIPOS>ATOM
      1  N         15.0200  -17.1310    0.1150 N.3     9  LYS9       -0.1245
      2  CA        13.6740  -17.6470    0.3230 C.3     9  LYS9        0.1561
      3  C         12.9340  -17.8250   -0.9970 C.2     9  LYS9        0.2260
      4  O         12.3820  -18.8850   -1.2720 O.2     9  LYS9       -0.2867
      5  CB        12.8770  -16.7280    1.2460 C.3     9  LYS9        0.0271
      6  CG        11.3960  -17.0520    1.3020 C.3     9  LYS9        0.0035
      7  CD        10.8100  -16.7560    2.6720 C.3     9  LYS9        0.0206
      8  CE         9.3610  -17.2090    2.7630 C.3     9  LYS9        0.1093
      9  NZ         8.4330  -16.2340    2.1280 N.3     9  LYS9       -0.1314
     10  N          9.6450   -9.7380   11.7510 N.3   103  TRP103     -0.1241
     11  CA         9.6060   -8.4070   11.0990 C.3   103  TRP103      0.1605
     12  C          9.5290   -7.2870   12.1510 C.2   103  TRP103      0.2264
     13  O         10.2520   -6.3180   12.0640 O.2   103  TRP103     -0.2867
     14  CB         8.4210   -8.2810   10.1510 C.3   103  TRP103      0.0550
     15  CG         8.5020   -7.0630    9.2590 C.ar  103  TRP103      0.0003
     16  CD1        7.7770   -5.9260    9.3740 C.ar  103  TRP103      0.0946
     17  CD2        9.3780   -6.8740    8.1640 C.ar  103  TRP103      0.0152
     18  NE1        8.1090   -5.0360    8.3850 N.ar  103  TRP103     -0.2442
     19  CE2        9.1020   -5.6080    7.6140 C.ar  103  TRP103      0.0810
     20  CE3       10.3640   -7.6660    7.5460 C.ar  103  TRP103      0.0012
     21  CZ2        9.7770   -5.1100    6.4990 C.ar  103  TRP103      0.0191
     22  CZ3       11.0110   -7.1830    6.4210 C.ar  103  TRP103      0.0001
     23  CH2       10.7430   -5.9100    5.9350 C.ar  103  TRP103      0.0015
     24  N         12.5370   -4.5830   12.5190 N.3   107  ASN107     -0.1240
     25  CA        12.0740   -3.3350   11.9270 C.3   107  ASN107      0.1653
     26  C         11.3270   -2.4550   12.9300 C.2   107  ASN107      0.2266
     27  O         10.5160   -1.5850   12.5430 O.2   107  ASN107     -0.2867
     28  CB        11.1800   -3.5540   10.6860 C.3   107  ASN107      0.1155
     29  CG        11.9060   -4.1850    9.5030 C.2   107  ASN107      0.2627
     30  OD1       11.9100   -5.3350    9.3050 O.2   107  ASN107     -0.2716
     31  ND2       12.4350   -3.4440    8.7160 N.am  107  ASN107     -0.0877
     32  N         19.3460  -12.9750    2.9580 N.3   156  ASP156     -0.1225
     33  CA        18.2010  -12.4670    3.7210 C.3   156  ASP156      0.1805
     34  C         17.9150  -13.1590    5.0550 C.2   156  ASP156      0.2598
     35  O         18.4600  -14.2190    5.3530 O.2   156  ASP156     -0.2718
     36  CB        16.9350  -12.3390    2.8670 C.3   156  ASP156      0.1424
     37  CG        16.2620  -10.9810    3.0350 C.2   156  ASP156      0.3668
     38  OD1       16.4920  -10.3300    4.0760 O.co2 156  ASP156     -0.2456
     39  OD2       15.5120  -10.5610    2.1320 O.co2 156  ASP156     -0.2456
     40  N         17.0420  -12.5350    5.8410 N.am  157  TYR157     -0.1962
     41  CA        16.8060  -12.9240    7.2300 C.3   157  TYR157      0.1771
     42  C         16.2330  -14.3240    7.4410 C.2   157  TYR157      0.2619
     43  O         16.5750  -14.9910    8.4110 O.2   157  TYR157     -0.2715
     44  CB        16.0230  -11.8520    8.0080 C.3   157  TYR157      0.0574
     45  CG        14.6160  -11.5780    7.5290 C.ar  157  TYR157     -0.0198
     46  CD1       14.3710  -11.1250    6.2400 C.ar  157  TYR157     -0.0009
     47  CD2       13.5340  -11.7460    8.3790 C.ar  157  TYR157     -0.0009
     48  CE1       13.0840  -10.8640    5.8080 C.ar  157  TYR157      0.0417
     49  CE2       12.2440  -11.4880    7.9560 C.ar  157  TYR157      0.0417
     50  CZ        12.0260  -11.0470    6.6700 C.ar  157  TYR157      0.1957
     51  OH        10.7440  -10.7910    6.2500 O.3   157  TYR157     -0.2866
     52  N         15.3440  -14.7510    6.5540 N.am  158  GLN158     -0.1977
     53  CA        14.7190  -16.0570    6.6840 C.3   158  GLN158      0.1601
     54  C         15.7660  -17.1700    6.7560 C.2   158  GLN158      0.2287
     55  O         15.5030  -18.2490    7.3260 O.2   158  GLN158     -0.2864
     56  CB        13.7670  -16.3330    5.5070 C.3   158  GLN158      0.0394
     57  CG        12.5870  -15.3620    5.3670 C.3   158  GLN158      0.0908
     58  CD        12.9030  -14.1280    4.5150 C.2   158  GLN158      0.2608
     59  OE1       14.0580  -13.8230    4.2490 O.2   158  GLN158     -0.2717
     60  NE2       11.8630  -13.4100    4.0960 N.am  158  GLN158     -0.0878
     61  N         19.0080   -8.1940    4.4700 N.3   180  HIS180     -0.1226
     62  CA        18.4730   -7.1030    3.6550 C.3   180  HIS180      0.1752
     63  C         17.7030   -6.0820    4.4700 C.2   180  HIS180      0.2595
     64  O         17.2350   -5.0830    3.9340 O.2   180  HIS180     -0.2718
     65  CB        17.5710   -7.6460    2.5450 C.3   180  HIS180      0.0759
     66  CG        18.3190   -8.3320    1.4180 C.ar  180  HIS180      0.0818
     67  ND1       18.1630   -7.9410    0.1000 N.ar  180  HIS180     -0.2268
     68  CD2       19.1480   -9.3720    1.4330 C.ar  180  HIS180      0.1154
     69  CE1       18.8980   -8.7490   -0.6650 C.ar  180  HIS180      0.1986
     70  NE2       19.5040   -9.6280    0.1080 N.ar  180  HIS180     -0.2212
     71  N         17.5590   -6.3650    5.7580 N.am  181  ILE181     -0.1980
     72  CA        16.7270   -5.5650    6.6440 C.3   181  ILE181      0.1595
     73  C         17.5870   -5.0320    7.7850 C.2   181  ILE181      0.2287
     74  O         18.7350   -5.3840    7.8780 O.2   181  ILE181     -0.2864
     75  CB        15.5710   -6.4110    7.2450 C.3   181  ILE181      0.0276
     76  CG1       16.1080   -7.5990    8.0580 C.3   181  ILE181      0.0022
     77  CG2       14.6310   -6.9550    6.1340 C.3   181  ILE181      0.0022
     78  CD1       15.0250   -8.3720    8.8400 C.3   181  ILE181      0.0001
     79  N         23.1210   -3.5880    4.6020 N.3   213  PHE213     -0.1241
     80  CA        23.1510   -2.4640    3.6770 C.3   213  PHE213      0.1605
     81  C         23.7570   -1.1820    4.2880 C.2   213  PHE213      0.2264
     82  O         24.0940   -0.2780    3.5540 O.2   213  PHE213     -0.2867
     83  CB        21.7410   -2.1540    3.1870 C.3   213  PHE213      0.0534
     84  CG        21.2080   -3.1400    2.1860 C.ar  213  PHE213     -0.0203
     85  CD1       21.8860   -3.3710    0.9870 C.ar  213  PHE213     -0.0042
     86  CD2       20.0170   -3.8160    2.4180 C.ar  213  PHE213     -0.0042
     87  CE1       21.3700   -4.2530    0.0490 C.ar  213  PHE213     -0.0003
     88  CE2       19.4890   -4.6750    1.4610 C.ar  213  PHE213     -0.0003
     89  CZ        20.1800   -4.8970    0.2760 C.ar  213  PHE213     -0.0000
     90  N         23.3120   -1.1240   -1.6610 N.3   255  LEU255     -0.1245
     91  CA        22.7010   -1.4040   -2.9600 C.3   255  LEU255      0.1561
     92  C         21.7480   -0.2310   -3.2300 C.2   255  LEU255      0.2260
     93  O         21.1490    0.3400   -2.2750 O.2   255  LEU255     -0.2867
     94  CB        21.9510   -2.7500   -2.9460 C.3   255  LEU255      0.0270
     95  CG        21.0530   -3.0390   -4.1620 C.3   255  LEU255      0.0019
     96  CD1       21.8350   -3.0850   -5.4830 C.3   255  LEU255      0.0001
     97  CD2       20.3250   -4.3750   -3.9640 C.3   255  LEU255      0.0001
     98  N          5.2850   -0.5530   -0.1740 N.3   283  ARG283     -0.1245
     99  CA         4.3990   -1.6490    0.1930 C.3   283  ARG283      0.1563
    100  C          3.4830   -1.2680    1.3660 C.2   283  ARG283      0.2260
    101  O          3.7600   -0.3130    2.1030 O.2   283  ARG283     -0.2867
    102  CB         5.2210   -2.8650    0.6430 C.3   283  ARG283      0.0307
    103  CG         5.9230   -3.6650   -0.4260 C.3   283  ARG283      0.0489
    104  CD         6.6740   -4.8740    0.1920 C.3   283  ARG283      0.2205
    105  NE         7.7570   -4.4460    1.0780 N.pl3 283  ARG283     -0.0865
    106  CZ         7.7470   -4.5160    2.4160 C.cat 283  ARG283      0.5346
    107  NH1        6.7280   -5.0410    3.0810 N.pl3 283  ARG283      0.1354
    108  NH2        8.7900   -4.0750    3.1060 N.pl3 283  ARG283      0.1354
    109  N          6.2650    0.1210    8.2830 N.3   287  ILE287     -0.1231
    110  CA         7.5170    0.8910    8.2260 C.3   287  ILE287      0.1692
    111  C          7.5230    1.9680    7.1370 C.2   287  ILE287      0.2591
    112  O          8.3640    2.8460    7.1700 O.2   287  ILE287     -0.2718
    113  CB         8.7630    0.0000    7.9780 C.3   287  ILE287      0.0266
    114  CG1        8.7470   -0.5680    6.5600 C.3   287  ILE287      0.0019
    115  CG2        8.8990   -1.0680    9.0230 C.3   287  ILE287      0.0020
    116  CD1        9.9950   -1.3570    6.2200 C.3   287  ILE287      0.0001
    117  N          6.6350    1.8800    6.1400 N.am  288  LYS288     -0.1980
    118  CA         6.7300    2.7990    5.0120 C.3   288  LYS288      0.1596
    119  C          6.2000    4.1580    5.3990 C.2   288  LYS288      0.2287
    120  O          6.4930    5.1260    4.6990 O.2   288  LYS288     -0.2864
    121  CB         5.9540    2.2760    3.8060 C.3   288  LYS288      0.0298
    122  CG         6.4520    0.9740    3.2430 C.3   288  LYS288      0.0038
    123  CD         7.9230    1.0830    2.8140 C.3   288  LYS288      0.0206
    124  CE         8.5850   -0.2770    2.7760 C.3   288  LYS288      0.1093
    125  NZ        10.0150   -0.2470    2.4430 N.3   288  LYS288     -0.1314
    126  N          0.6950   -6.1300    0.1390 N.3   318  ASN318     -0.1225
    127  CA         1.6400   -7.1450    0.5660 C.3   318  ASN318      0.1785
    128  C          1.3780   -7.5580    2.0210 C.2   318  ASN318      0.2597
    129  O          1.2020   -6.6940    2.8960 O.2   318  ASN318     -0.2718
    130  CB         3.0530   -6.5630    0.3950 C.3   318  ASN318      0.1169
    131  CG         4.1340   -7.3900    1.0890 C.2   318  ASN318      0.2627
    132  OD1        3.8870   -8.0000    2.0640 O.2   318  ASN318     -0.2716
    133  ND2        5.2970   -7.3840    0.5860 N.am  318  ASN318     -0.0877
    134  N          1.2660   -8.8580    2.2580 N.am  319  ARG319     -0.1979
    135  CA         1.0990   -9.3730    3.6080 C.3   319  ARG319      0.1597
    136  C         -0.0990   -8.7550    4.3150 C.2   319  ARG319      0.2287
    137  O         -0.0480   -8.4980    5.5150 O.2   319  ARG319     -0.2864
    138  CB         2.3570   -9.1100    4.4270 C.3   319  ARG319      0.0334
    139  CG         3.4210  -10.1740    4.2720 C.3   319  ARG319      0.0492
    140  CD         4.6250   -9.8420    5.1290 C.3   319  ARG319      0.2205
    141  NE         5.8570   -9.8880    4.3580 N.pl3 319  ARG319     -0.0865
    142  CZ         7.0030   -9.3610    4.7630 C.cat 319  ARG319      0.5346
    143  NH1        7.0770   -8.7460    5.9330 N.pl3 319  ARG319      0.1354
    144  NH2        8.0810   -9.4520    4.0000 N.pl3 319  ARG319      0.1354
    145  N         14.1460    1.4690    7.4140 N.3   376  ASP376     -0.1225
    146  CA        14.2510    0.6080    6.2390 C.3   376  ASP376      0.1805
    147  C         15.6240   -0.0530    6.1530 C.2   376  ASP376      0.2598
    148  O         16.6260    0.5580    6.5160 O.2   376  ASP376     -0.2718
    149  CB        13.9510    1.3950    4.9620 C.3   376  ASP376      0.1424
    150  CG        12.8250    0.7830    4.1520 C.2   376  ASP376      0.3668
    151  OD1       12.7770   -0.4560    4.0380 O.co2 376  ASP376     -0.2456
    152  OD2       11.9880    1.5410    3.6300 O.co2 376  ASP376     -0.2456
    153  N         15.6800   -1.2800    5.6410 N.am  377  GLY377     -0.1942
    154  CA        16.9520   -1.9590    5.5050 C.3   377  GLY377      0.2014
    155  C         17.8420   -1.1780    4.5630 C.2   377  GLY377      0.2639
    156  O         19.0170   -0.9540    4.8430 O.2   377  GLY377     -0.2714
    157  N         17.2620   -0.7190    3.4600 N.am  378  GLN378     -0.1963
    158  CA        17.9520    0.2100    2.5770 C.3   378  GLN378      0.1733
    159  C         16.9490    1.1980    1.9920 C.2   378  GLN378      0.2616
    160  O         17.0100    2.3770    2.2520 O.2   378  GLN378     -0.2715
    161  CB        18.6650   -0.5530    1.4690 C.3   378  GLN378      0.0408
    162  CG        19.4610    0.3520    0.4940 C.3   378  GLN378      0.0908
    163  CD        20.7040    0.9660    1.1390 C.2   378  GLN378      0.2608
    164  OE1       20.8630    1.0140    2.3840 O.2   378  GLN378     -0.2717
    165  NE2       21.5920    1.4360    0.2970 N.am  378  GLN378     -0.0878
    166  N         16.0500    0.6490    1.1920 N.am  379  ASN379     -0.1958
    167  CA        15.0840    1.3990    0.4280 C.3   379  ASN379      0.1819
    168  C         15.7130    1.7090   -0.9120 C.2   379  ASN379      0.2621
    169  O         16.4650    2.6690   -1.0570 O.2   379  ASN379     -0.2715
    170  CB        14.6510    2.6780    1.1360 C.3   379  ASN379      0.1195
    171  CG        13.4100    3.2870    0.5140 C.2   379  ASN379      0.2630
    172  OD1       13.4100    3.6580   -0.6570 O.2   379  ASN379     -0.2716
    173  ND2       12.3400    3.3770    1.2920 N.am  379  ASN379     -0.0877
    174  N         15.3930    0.8810   -1.8920 N.am  380  LEU380     -0.1977
    175  CA        15.8730    1.0850   -3.2730 C.3   380  LEU380      0.1596
    176  C         15.0470    2.1420   -4.0070 C.2   380  LEU380      0.2287
    177  O         15.4990    2.7250   -4.9760 O.2   380  LEU380     -0.2864
    178  CB        15.8080   -0.2130   -4.0640 C.3   380  LEU380      0.0297
    179  CG        16.4270   -1.4740   -3.4430 C.3   380  LEU380      0.0022
    180  CD1       16.5330   -2.6520   -4.4610 C.3   380  LEU380      0.0001
    181  CD2       17.7810   -1.1400   -2.8100 C.3   380  LEU380      0.0001
@<TRIPOS>BOND
     1    96    95    1
     2   177   176    2
     3   180   179    1
     4    95    97    1
     5    95    94    1
     6   178   179    1
     7   178   175    1
     8   176   175    1
     9   179   181    1
    10   175   174    1
    11    92    91    1
    12    92    93    2
    13    91    94    1
    14    91    90    1
    15   174   168   am
    16     4     3    2
    17   169   168    2
    18     3     2    1
    19   168   167    1
    20    69    67   ar
    21    69    70   ar
    22   172   171    2
    23   103   104    1
    24   103   102    1
    25    98    99    1
    26    87    89   ar
    27    87    85   ar
    28    67    66   ar
    29    70    68   ar
    30     1     2    1
    31   126   127    1
    32   104   105    1
    33    99   102    1
    34    99   100    1
    35    89    88   ar
    36   165   163   am
    37     2     5    1
    38   130   127    1
    39   130   131    1
    40   167   170    1
    41   167   166    1
    42   162   163    1
    43   162   161    1
    44   171   170    1
    45   171   173   am
    46   127   128    1
    47   133   131   am
    48    85    84   ar
    49   105   106    2
    50   131   132    2
    51   163   164    2
    52   166   159   am
    53     5     6    1
    54     6     7    1
    55   100   101    2
    56    66    68   ar
    57    66    65    1
    58    88    86   ar
    59   161   158    1
    60   159   160    2
    61   159   158    1
    62   128   134   am
    63   128   129    2
    64     9     8    1
    65    39    37   ar
    66    84    86   ar
    67    84    83    1
    68   134   135    1
    69   106   107    1
    70   106   108    1
    71   125   124    1
    72    65    62    1
    73   158   157    1
    74     7     8    1
    75   124   123    1
    76   123   122    1
    77    36    37    1
    78    36    33    1
    79    32    33    1
    80    37    38   ar
    81    83    80    1
    82   122   121    1
    83   157   155   am
    84    82    81    2
    85   135   136    1
    86   135   138    1
    87   152   150   ar
    88    62    61    1
    89    62    63    1
    90    80    81    1
    91    80    79    1
    92    33    34    1
    93   121   118    1
    94    64    63    2
    95   144   142    1
    96   151   150   ar
    97    60    58   am
    98   150   149    1
    99    59    58    2
   100   139   138    1
   101   139   140    1
   102   136   137    2
   103   141   142    2
   104   141   140    1
   105    63    71   am
   106    58    57    1
   107   155   156    2
   108   155   154    1
   109   120   119    2
   110   142   143    1
   111   149   146    1
   112   118   119    1
   113   118   117    1
   114    34    35    2
   115    34    40   am
   116    57    56    1
   117   154   153    1
   118    56    53    1
   119   153   147   am
   120    71    72    1
   121    48    46   ar
   122    48    50   ar
   123    40    41    1
   124    23    22   ar
   125    23    21   ar
   126    77    75    1
   127   117   111   am
   128   147   146    1
   129   147   148    2
   130   116   114    1
   131   146   145    1
   132    46    45   ar
   133    51    50    1
   134    22    20   ar
   135    21    19   ar
   136    52    53    1
   137    52    42   am
   138   114   113    1
   139    72    75    1
   140    72    73    1
   141    50    49   ar
   142    53    54    1
   143    54    55    2
   144   111   112    2
   145   111   110    1
   146    41    42    1
   147    41    44    1
   148    75    76    1
   149    42    43    2
   150    45    44    1
   151    45    47   ar
   152    20    17   ar
   153    19    17   ar
   154    19    18   ar
   155    73    74    2
   156    49    47   ar
   157   113   110    1
   158   113   115    1
   159    76    78    1
   160    17    15   ar
   161   110   109    1
   162    18    16   ar
   163    31    29   am
   164    15    16   ar
   165    15    14    1
   166    30    29    2
   167    29    28    1
   168    14    11    1
   169    28    25    1
   170    11    10    1
   171    11    12    1
   172    25    24    1
   173    25    26    1
   174    13    12    2
   175    27    26    2
