@<TRIPOS>MOLECULE
tmp/4f9aA00.pdb
 161 153 0 0 0
SMALL
GASTEIGER

@<TRIPOS>ATOM
      1  N         16.1640   11.1020   35.0880 N.3    26  ILE26      -0.1231
      2  CA        16.1250   10.6020   33.7140 C.3    26  ILE26       0.1692
      3  C         15.8390   11.7040   32.7080 C.2    26  ILE26       0.2593
      4  O         15.8500   11.4430   31.5070 O.2    26  ILE26      -0.2718
      5  CB        15.1020    9.4540   33.5040 C.3    26  ILE26       0.0266
      6  CG1       13.7380    9.8150   34.1070 C.3    26  ILE26       0.0019
      7  CG2       15.6290    8.1530   34.0850 C.3    26  ILE26       0.0020
      8  CD1       12.6320    8.8420   33.7640 C.3    26  ILE26       0.0001
      9  N         15.5900   12.9270   33.1820 N.am   27  GLY27      -0.1942
     10  CA        15.3000   14.0240   32.2740 C.3    27  GLY27       0.2014
     11  C         15.4740   15.3770   32.9030 C.2    27  GLY27       0.2639
     12  O         15.2090   15.5600   34.0840 O.2    27  GLY27      -0.2714
     13  N         15.9340   16.3320   32.1090 N.am   28  GLU28      -0.1963
     14  CA        16.0730   17.7000   32.5710 C.3    28  GLU28       0.1733
     15  C         15.8850   18.6240   31.4020 C.2    28  GLU28       0.2616
     16  O         16.5210   18.4550   30.3570 O.2    28  GLU28      -0.2715
     17  CB        17.4330   17.9560   33.2050 C.3    28  GLU28       0.0429
     18  CG        17.3810   19.1000   34.2100 C.3    28  GLU28       0.1163
     19  CD        18.7470   19.5970   34.6470 C.2    28  GLU28       0.3649
     20  OE1       19.7140   18.8010   34.6290 O.co2  28  GLU28      -0.2457
     21  OE2       18.8510   20.7900   35.0170 O.co2  28  GLU28      -0.2457
     22  N         15.0080   19.6010   31.5840 N.am   29  GLY29      -0.1955
     23  CA        14.7240   20.5800   30.5590 C.3    29  GLY29       0.1869
     24  C         14.6610   21.9270   31.2130 C.2    29  GLY29       0.2309
     25  O         14.7760   22.0390   32.4340 O.2    29  GLY29      -0.2863
     26  N         12.0980   23.6500   31.6750 N.3    31  PHE31      -0.1227
     27  CA        10.8740   23.8160   32.4630 C.3    31  PHE31       0.1736
     28  C         10.5030   22.6790   33.3980 C.2    31  PHE31       0.2596
     29  O          9.4900   22.7720   34.0920 O.2    31  PHE31      -0.2718
     30  CB         9.6950   24.1900   31.5530 C.3    31  PHE31       0.0547
     31  CG         9.9290   25.4490   30.7870 C.ar   31  PHE31      -0.0202
     32  CD1        9.9840   25.4320   29.3990 C.ar   31  PHE31      -0.0042
     33  CD2       10.1480   26.6510   31.4600 C.ar   31  PHE31      -0.0042
     34  CE1       10.2250   26.5980   28.6890 C.ar   31  PHE31      -0.0003
     35  CE2       10.3930   27.8180   30.7590 C.ar   31  PHE31      -0.0003
     36  CZ        10.4300   27.7940   29.3670 C.ar   31  PHE31      -0.0000
     37  N         11.3100   21.6210   33.4380 N.am   32  SER32      -0.1952
     38  CA        11.0330   20.5190   34.3470 C.3    32  SER32       0.1924
     39  C         12.1820   19.5240   34.4560 C.2    32  SER32       0.2314
     40  O         13.0150   19.4440   33.5590 O.2    32  SER32      -0.2863
     41  CB         9.7980   19.7660   33.8680 C.3    32  SER32       0.2116
     42  OG        10.1680   18.7870   32.9050 O.3    32  SER32      -0.2180
     43  N         12.7990   15.1800   35.4780 N.3    34  VAL34      -0.1245
     44  CA        12.0640   13.9380   35.5360 C.3    34  VAL34       0.1561
     45  C         12.9240   12.8710   36.1700 C.2    34  VAL34       0.2260
     46  O         14.1060   12.7620   35.8530 O.2    34  VAL34      -0.2867
     47  CB        11.6120   13.4620   34.1310 C.3    34  VAL34       0.0252
     48  CG1       10.8600   12.1410   34.2500 C.3    34  VAL34       0.0019
     49  CG2       10.7570   14.5360   33.4500 C.3    34  VAL34       0.0019
     50  N          7.5860    7.4370   36.3530 N.3    50  ALA50      -0.1245
     51  CA         8.3000    8.6460   35.9700 C.3    50  ALA50       0.1562
     52  C          7.6880    9.8170   36.7060 C.2    50  ALA50       0.2260
     53  O          6.4930   10.0650   36.5850 O.2    50  ALA50      -0.2867
     54  CB         8.2090    8.8650   34.4520 C.3    50  ALA50       0.0290
     55  N          7.5370   13.7430   37.0180 N.3    52  LYS52      -0.1245
     56  CA         7.8930   15.0020   36.4030 C.3    52  LYS52       0.1561
     57  C          7.6870   16.1690   37.3510 C.2    52  LYS52       0.2260
     58  O          6.5610   16.5350   37.7140 O.2    52  LYS52      -0.2867
     59  CB         7.1820   15.2070   35.0560 C.3    52  LYS52       0.0271
     60  CG         7.4500   16.5540   34.3980 C.3    52  LYS52       0.0035
     61  CD         6.9420   16.5480   32.9560 C.3    52  LYS52       0.0206
     62  CE         7.1510   17.8830   32.2480 C.3    52  LYS52       0.1093
     63  NZ         6.7990   17.7530   30.8090 N.3    52  LYS52      -0.1314
     64  N          0.6160    9.2960   26.4680 N.3    80  MET80      -0.1245
     65  CA         0.9270    9.0390   27.8970 C.3    80  MET80       0.1570
     66  C         -0.2130    9.4810   28.8120 C.2    80  MET80       0.2261
     67  O         -0.7590   10.5760   28.6600 O.2    80  MET80      -0.2867
     68  CB         2.2490    9.7350   28.3260 C.3    80  MET80       0.0387
     69  CG         2.6000    9.6230   29.8410 C.3    80  MET80       0.0595
     70  SD         2.8960    7.9140   30.3280 S.3    80  MET80      -0.1393
     71  CE         4.2400    7.4050   29.2510 C.3    80  MET80       0.0692
     72  N          3.5730    9.4050   36.3350 N.3    96  MET96      -0.1231
     73  CA         3.1650    8.6790   35.1230 C.3    96  MET96       0.1687
     74  C          3.7420    7.2970   35.1410 C.2    96  MET96       0.2434
     75  O          4.7700    7.0820   35.7930 O.2    96  MET96      -0.2733
     76  CB         3.7670    9.3410   33.8640 C.3    96  MET96       0.0400
     77  CG         3.1740   10.6710   33.4480 C.3    96  MET96       0.0596
     78  SD         4.2930   11.6680   32.4310 S.3    96  MET96      -0.1393
     79  CE         5.4170   12.3320   33.6610 C.3    96  MET96       0.0692
     80  N          3.1400    6.3510   34.3790 N.am   97  PRO97      -0.2718
     81  CA         3.8630    5.1010   34.1900 C.3    97  PRO97       0.1535
     82  C          5.1620    5.3580   33.4110 C.2    97  PRO97       0.2599
     83  O          5.1900    6.1950   32.4920 O.2    97  PRO97      -0.2715
     84  CB         2.8920    4.2410   33.3590 C.3    97  PRO97       0.0310
     85  CG         1.9540    5.2150   32.7300 C.3    97  PRO97       0.0237
     86  CD         1.8280    6.3440   33.7020 C.3    97  PRO97       0.0939
     87  N          6.2270    4.6740   33.8040 N.am   98  TYR98      -0.1960
     88  CA         7.5230    4.8520   33.1580 C.3    98  TYR98       0.1771
     89  C          7.6570    3.9170   31.9650 C.2    98  TYR98       0.2619
     90  O          7.4670    2.7060   32.0970 O.2    98  TYR98      -0.2715
     91  CB         8.6620    4.6160   34.1560 C.3    98  TYR98       0.0574
     92  CG        10.0390    4.4310   33.5340 C.ar   98  TYR98      -0.0198
     93  CD1       10.8120    5.5270   33.1710 C.ar   98  TYR98      -0.0009
     94  CD2       10.5910    3.1530   33.3640 C.ar   98  TYR98      -0.0009
     95  CE1       12.0790    5.3700   32.6240 C.ar   98  TYR98       0.0417
     96  CE2       11.8580    2.9880   32.8200 C.ar   98  TYR98       0.0417
     97  CZ        12.5950    4.1020   32.4580 C.ar   98  TYR98       0.1957
     98  OH        13.8470    3.9540   31.8990 O.3    98  TYR98      -0.2866
     99  N          7.9800    4.4850   30.8050 N.am   99  LEU99      -0.1977
    100  CA         8.2490    3.6720   29.6160 C.3    99  LEU99       0.1596
    101  C          9.7410    3.7190   29.3080 C.2    99  LEU99       0.2287
    102  O         10.2710    4.7680   28.9670 O.2    99  LEU99      -0.2864
    103  CB         7.4510    4.1960   28.4060 C.3    99  LEU99       0.0297
    104  CG         7.5610    3.4040   27.1020 C.3    99  LEU99       0.0022
    105  CD1        7.1110    1.9370   27.2670 C.3    99  LEU99       0.0001
    106  CD2        6.7730    4.1120   26.0050 C.3    99  LEU99       0.0001
    107  N         12.7790    3.6340   27.0770 N.3   101  HIS101     -0.1241
    108  CA        12.8590    4.0090   25.6630 C.3   101  HIS101      0.1621
    109  C         14.2650    4.1460   25.1620 C.2   101  HIS101      0.2264
    110  O         15.1890    4.3340   25.9540 O.2   101  HIS101     -0.2867
    111  CB        12.1160    5.3080   25.4120 C.3   101  HIS101      0.0745
    112  CG        12.5550    6.4480   26.2980 C.ar  101  HIS101      0.0817
    113  ND1       12.1530    6.5630   27.5780 N.ar  101  HIS101     -0.2268
    114  CD2       13.3590    7.5590   26.0370 C.ar  101  HIS101      0.1154
    115  CE1       12.6800    7.6930   28.1150 C.ar  101  HIS101      0.1986
    116  NE2       13.4160    8.2980   27.1730 N.ar  101  HIS101     -0.2212
    117  N          5.2650   20.6940   20.1690 N.3   139  ASP139     -0.1239
    118  CA         6.6320   20.2880   20.4890 C.3   139  ASP139      0.1674
    119  C          6.8250   18.8420   20.1070 C.2   139  ASP139      0.2266
    120  O          7.4370   18.0540   20.8490 O.2   139  ASP139     -0.2867
    121  CB         6.8880   20.4520   21.9990 C.3   139  ASP139      0.1410
    122  CG         8.3830   20.7500   22.3450 C.2   139  ASP139      0.3668
    123  OD1        9.1370   21.3420   21.5130 O.co2 139  ASP139     -0.2456
    124  OD2        8.7860   20.3880   23.4830 O.co2 139  ASP139     -0.2456
    125  N         12.3840   13.5020   21.1700 N.3   143  SER143     -0.1202
    126  CA        12.5230   13.4310   22.6470 C.3   143  SER143      0.2020
    127  C         11.1670   13.4000   23.3740 C.2   143  SER143      0.2618
    128  O         11.0620   12.9170   24.5080 O.2   143  SER143     -0.2717
    129  CB        13.4080   14.5420   23.2120 C.3   143  SER143      0.2103
    130  OG        12.7880   15.8140   23.0490 O.3   143  SER143     -0.2182
    131  N         10.1300   13.8980   22.7130 N.am  144  ASN144     -0.1974
    132  CA         8.7780   13.8470   23.2620 C.3   144  ASN144      0.1688
    133  C          7.9230   12.7360   22.7580 C.2   144  ASN144      0.2292
    134  O          6.7210   12.7710   22.9720 O.2   144  ASN144     -0.2864
    135  CB         8.0640   15.1590   23.0010 C.3   144  ASN144      0.1181
    136  CG         8.6880   16.2840   23.7680 C.2   144  ASN144      0.2629
    137  OD1        9.2450   16.0450   24.8320 O.2   144  ASN144     -0.2716
    138  ND2        8.6120   17.5120   23.2450 N.am  144  ASN144     -0.0877
    139  N          8.1440    8.6990   22.9080 N.3   146  LEU146     -0.1245
    140  CA         8.9910    7.7350   23.5720 C.3   146  LEU146      0.1561
    141  C          8.7980    6.4220   22.8880 C.2   146  LEU146      0.2260
    142  O          7.6640    6.0160   22.6260 O.2   146  LEU146     -0.2867
    143  CB         8.6280    7.6170   25.0750 C.3   146  LEU146      0.0270
    144  CG         8.7390    8.8920   25.9130 C.3   146  LEU146      0.0019
    145  CD1        8.5880    8.5320   27.3780 C.3   146  LEU146      0.0001
    146  CD2       10.0400    9.6670   25.6750 C.3   146  LEU146      0.0001
    147  N          4.5160   12.4310   24.9460 N.3   157  VAL157     -0.1231
    148  CA         4.5800   13.0240   26.2720 C.3   157  VAL157      0.1692
    149  C          4.7970   14.5180   26.1520 C.2   157  VAL157      0.2592
    150  O          4.9380   15.0470   25.0410 O.2   157  VAL157     -0.2718
    151  CB         5.6860   12.3970   27.1550 C.3   157  VAL157      0.0266
    152  CG1        5.5220   10.8860   27.2290 C.3   157  VAL157      0.0020
    153  CG2        7.0820   12.7540   26.6470 C.3   157  VAL157      0.0020
    154  N          4.7820   15.1930   27.2920 N.am  158  ASP158     -0.1974
    155  CA         5.1810   16.6050   27.4000 C.3   158  ASP158      0.1709
    156  C          4.1830   17.5440   26.7460 C.2   158  ASP158      0.2293
    157  O          4.3350   17.9230   25.5660 O.2   158  ASP158     -0.2864
    158  CB         6.5970   16.8120   26.8120 C.3   158  ASP158      0.1436
    159  CG         7.1900   18.1900   27.1350 C.2   158  ASP158      0.3671
    160  OD1        6.4640   19.0660   27.6670 O.co2 158  ASP158     -0.2456
    161  OD2        8.4040   18.4030   26.8420 O.co2 158  ASP158     -0.2456
@<TRIPOS>BOND
     1   119   118    1
     2   119   120    2
     3   117   118    1
     4   118   121    1
     5   125   126    1
     6   123   122   ar
     7   121   122    1
     8   122   124   ar
     9   142   141    2
    10   126   129    1
    11   126   127    1
    12   131   132    1
    13   131   127   am
    14   133   134    2
    15   133   132    1
    16   141   140    1
    17   139   140    1
    18   135   132    1
    19   135   136    1
    20   130   129    1
    21   138   136   am
    22   127   128    2
    23   140   143    1
    24   136   137    2
    25   147   148    1
    26   150   149    2
    27   143   144    1
    28   109   108    1
    29   109   110    2
    30   111   108    1
    31   111   112    1
    32   157   156    2
    33   108   107    1
    34   146   144    1
    35   144   145    1
    36   106   104    1
    37   114   112   ar
    38   114   116   ar
    39   149   148    1
    40   149   154   am
    41   148   151    1
    42   112   113   ar
    43    64    65    1
    44   153   151    1
    45   156   155    1
    46   158   159    1
    47   158   155    1
    48   161   159   ar
    49   104   105    1
    50   104   103    1
    51   159   160   ar
    52   151   152    1
    53   116   115   ar
    54   154   155    1
    55   113   115   ar
    56    65    68    1
    57    65    66    1
    58    68    69    1
    59   103   100    1
    60    67    66    2
    61    34    36   ar
    62    34    32   ar
    63   102   101    2
    64    71    70    1
    65   101   100    1
    66    36    35   ar
    67    32    31   ar
    68   100    99    1
    69    69    70    1
    70    16    15    2
    71    23    24    1
    72    23    22    1
    73    35    33   ar
    74    31    33   ar
    75    31    30    1
    76    99    89   am
    77    63    62    1
    78    24    25    2
    79    15    22   am
    80    15    14    1
    81     4     3    2
    82    30    27    1
    83    26    27    1
    84    98    97    1
    85    89    90    2
    86    89    88    1
    87    13    14    1
    88    13    11   am
    89    62    61    1
    90    10    11    1
    91    10     9    1
    92    78    77    1
    93    78    79    1
    94    97    95   ar
    95    97    96   ar
    96    27    28    1
    97    83    82    2
    98    14    17    1
    99    95    93   ar
   100     3     9   am
   101     3     2    1
   102    85    84    1
   103    85    86    1
   104    96    94   ar
   105    11    12    2
   106    42    41    1
   107    61    60    1
   108    88    87    1
   109    88    91    1
   110    93    92   ar
   111    17    18    1
   112    84    81    1
   113    94    92   ar
   114    28    37   am
   115    28    29    2
   116    82    87   am
   117    82    81    1
   118    37    38    1
   119    77    76    1
   120    49    47    1
   121     5     2    1
   122     5     7    1
   123     5     6    1
   124    92    91    1
   125    40    39    2
   126    86    80    1
   127     2     1    1
   128     8     6    1
   129    76    73    1
   130    41    38    1
   131    47    48    1
   132    47    44    1
   133    81    80    1
   134    18    19    1
   135    38    39    1
   136    80    74   am
   137    60    59    1
   138    54    51    1
   139    20    19   ar
   140    19    21   ar
   141    59    56    1
   142    73    74    1
   143    73    72    1
   144    74    75    2
   145    43    44    1
   146    44    45    1
   147    46    45    2
   148    51    50    1
   149    51    52    1
   150    56    55    1
   151    56    57    1
   152    53    52    2
   153    57    58    2
