@<TRIPOS>MOLECULE
tmp/4f9bA00.pdb
 129 121 0 0 0
SMALL
GASTEIGER

@<TRIPOS>ATOM
      1  N         16.1130   10.8480   35.0140 N.3    26  ILE26      -0.1231
      2  CA        16.2470   10.3530   33.6450 C.3    26  ILE26       0.1692
      3  C         16.1920   11.4650   32.6080 C.2    26  ILE26       0.2592
      4  O         16.5780   11.2550   31.4570 O.2    26  ILE26      -0.2718
      5  CB        15.2610    9.2100   33.3150 C.3    26  ILE26       0.0266
      6  CG1       13.8250    9.5920   33.7100 C.3    26  ILE26       0.0019
      7  CG2       15.7070    7.9240   34.0090 C.3    26  ILE26       0.0020
      8  CD1       12.8090    8.4690   33.5800 C.3    26  ILE26       0.0001
      9  N         15.7630   12.6550   33.0160 N.am   27  GLY27      -0.1957
     10  CA        15.6860   13.7690   32.0850 C.3    27  GLY27       0.1869
     11  C         15.5930   15.1100   32.7630 C.2    27  GLY27       0.2309
     12  O         15.0870   15.2200   33.8750 O.2    27  GLY27      -0.2863
     13  N         10.7850   21.2750   33.1770 N.3    32  SER32      -0.1217
     14  CA        10.6060   20.1760   34.1290 C.3    32  SER32       0.1889
     15  C         11.7700   19.2110   34.1470 C.2    32  SER32       0.2288
     16  O         12.6550   19.2850   33.2930 O.2    32  SER32      -0.2866
     17  CB         9.3700   19.3910   33.7370 C.3    32  SER32       0.2089
     18  OG         9.5900   18.8100   32.4730 O.3    32  SER32      -0.2183
     19  N         12.5140   14.7750   35.0760 N.3    34  VAL34      -0.1245
     20  CA        11.7990   13.4990   35.1340 C.3    34  VAL34       0.1561
     21  C         12.6200   12.5010   35.8980 C.2    34  VAL34       0.2260
     22  O         13.7770   12.2480   35.5610 O.2    34  VAL34      -0.2867
     23  CB        11.4840   12.9540   33.7150 C.3    34  VAL34       0.0252
     24  CG1       10.6750   11.6640   33.7730 C.3    34  VAL34       0.0019
     25  CG2       10.7170   13.9940   32.9210 C.3    34  VAL34       0.0019
     26  N          7.3590    7.0320   36.3230 N.3    50  ALA50      -0.1245
     27  CA         8.0420    8.2690   35.9960 C.3    50  ALA50       0.1562
     28  C          7.4020    9.4070   36.7390 C.2    50  ALA50       0.2260
     29  O          6.1740    9.5590   36.7300 O.2    50  ALA50      -0.2867
     30  CB         8.0120    8.5430   34.4940 C.3    50  ALA50       0.0290
     31  N          7.4270   13.4120   37.0210 N.3    52  LYS52      -0.1245
     32  CA         7.7860   14.5960   36.3210 C.3    52  LYS52       0.1561
     33  C          7.5780   15.7320   37.2800 C.2    52  LYS52       0.2260
     34  O          6.4540   16.0170   37.6830 O.2    52  LYS52      -0.2867
     35  CB         6.8990   14.7600   35.0870 C.3    52  LYS52       0.0271
     36  CG         6.8880   16.1540   34.4810 C.3    52  LYS52       0.0035
     37  CD         6.1930   16.1170   33.1340 C.3    52  LYS52       0.0206
     38  CE         6.4480   17.3850   32.3290 C.3    52  LYS52       0.1093
     39  NZ         5.9990   17.1450   30.9270 N.3    52  LYS52      -0.1314
     40  N          0.2410    9.2350   26.4950 N.3    80  MET80      -0.1245
     41  CA         0.5950    8.9940   27.8960 C.3    80  MET80       0.1570
     42  C         -0.5540    9.4210   28.8020 C.2    80  MET80       0.2261
     43  O         -1.1320   10.5010   28.6240 O.2    80  MET80      -0.2867
     44  CB         1.8550    9.8030   28.2570 C.3    80  MET80       0.0387
     45  CG         2.3520    9.6610   29.6960 C.3    80  MET80       0.0595
     46  SD         2.4830    7.9560   30.2910 S.3    80  MET80      -0.1393
     47  CE         3.5800    7.0820   29.1820 C.3    80  MET80       0.0692
     48  N          3.3320    8.8740   36.2500 N.3    96  MET96      -0.1231
     49  CA         2.9550    8.2190   34.9980 C.3    96  MET96       0.1687
     50  C          3.5140    6.8240   35.0000 C.2    96  MET96       0.2434
     51  O          4.5860    6.5830   35.5790 O.2    96  MET96      -0.2733
     52  CB         3.6000    8.9310   33.7970 C.3    96  MET96       0.0400
     53  CG         2.9850   10.2600   33.4070 C.3    96  MET96       0.0596
     54  SD         4.0770   11.3230   32.4190 S.3    96  MET96      -0.1393
     55  CE         5.0990   11.9840   33.7290 C.3    96  MET96       0.0692
     56  N          2.8370    5.8960   34.3130 N.am   97  PRO97      -0.2718
     57  CA         3.5040    4.5900   34.2060 C.3    97  PRO97       0.1535
     58  C          4.8050    4.7970   33.4150 C.2    97  PRO97       0.2599
     59  O          4.8660    5.7190   32.5890 O.2    97  PRO97      -0.2715
     60  CB         2.5020    3.7200   33.4190 C.3    97  PRO97       0.0310
     61  CG         1.5430    4.6750   32.7820 C.3    97  PRO97       0.0237
     62  CD         1.6520    6.0260   33.4400 C.3    97  PRO97       0.0939
     63  N          5.8260    3.9820   33.6650 N.am   98  TYR98      -0.1960
     64  CA         7.1400    4.2130   33.0660 C.3    98  TYR98       0.1771
     65  C          7.3640    3.3450   31.8640 C.2    98  TYR98       0.2619
     66  O          7.1950    2.1230   31.9220 O.2    98  TYR98      -0.2715
     67  CB         8.2660    4.0000   34.0750 C.3    98  TYR98       0.0574
     68  CG         9.6660    3.9380   33.4700 C.ar   98  TYR98      -0.0198
     69  CD1       10.4090    5.1080   33.2470 C.ar   98  TYR98      -0.0009
     70  CD2       10.2570    2.7120   33.1480 C.ar   98  TYR98      -0.0009
     71  CE1       11.6840    5.0580   32.7060 C.ar   98  TYR98       0.0417
     72  CE2       11.5380    2.6460   32.6120 C.ar   98  TYR98       0.0417
     73  CZ        12.2440    3.8180   32.3910 C.ar   98  TYR98       0.1957
     74  OH        13.5150    3.7570   31.8720 O.3    98  TYR98      -0.2866
     75  N          7.7640    3.9710   30.7670 N.am   99  LEU99      -0.1977
     76  CA         8.0310    3.2140   29.5450 C.3    99  LEU99       0.1596
     77  C          9.5150    3.2940   29.2460 C.2    99  LEU99       0.2287
     78  O         10.0300    4.3820   28.9560 O.2    99  LEU99      -0.2864
     79  CB         7.2170    3.7810   28.3700 C.3    99  LEU99       0.0297
     80  CG         7.2570    3.0010   27.0490 C.3    99  LEU99       0.0022
     81  CD1        6.8600    1.5460   27.2570 C.3    99  LEU99       0.0001
     82  CD2        6.3700    3.6680   26.0120 C.3    99  LEU99       0.0001
     83  N         12.5380    3.3140   27.1040 N.3   101  HIS101     -0.1241
     84  CA        12.5560    3.7480   25.7090 C.3   101  HIS101      0.1621
     85  C         13.9440    3.9210   25.1460 C.2   101  HIS101      0.2264
     86  O         14.9360    3.9990   25.8950 O.2   101  HIS101     -0.2867
     87  CB        11.7410    5.0170   25.5410 C.3   101  HIS101      0.0745
     88  CG        12.1920    6.1480   26.4290 C.ar  101  HIS101      0.0817
     89  ND1       11.8630    6.2200   27.7470 N.ar  101  HIS101     -0.2268
     90  CD2       12.9640    7.2800   26.1500 C.ar  101  HIS101      0.1154
     91  CE1       12.3900    7.3470   28.2810 C.ar  101  HIS101      0.1986
     92  NE2       13.0660    7.9950   27.3040 N.ar  101  HIS101     -0.2212
     93  N         11.9980   13.1250   20.9850 N.3   143  SER143     -0.1202
     94  CA        12.1940   12.9580   22.4200 C.3   143  SER143      0.2020
     95  C         10.8760   13.0480   23.2010 C.2   143  SER143      0.2618
     96  O         10.8140   12.6360   24.3600 O.2   143  SER143     -0.2717
     97  CB        13.2680   13.9070   22.9850 C.3   143  SER143      0.2103
     98  OG        12.8200   15.2500   22.9950 O.3   143  SER143     -0.2182
     99  N          9.8240   13.5500   22.5560 N.am  144  ASN144     -0.1974
    100  CA         8.4790   13.5610   23.1570 C.3   144  ASN144      0.1688
    101  C          7.6110   12.4240   22.6510 C.2   144  ASN144      0.2292
    102  O          6.4100   12.4050   22.8860 O.2   144  ASN144     -0.2864
    103  CB         7.7820   14.9210   22.9960 C.3   144  ASN144      0.1181
    104  CG         8.2820   15.9310   24.0000 C.2   144  ASN144      0.2629
    105  OD1        8.7820   15.5310   25.0400 O.2   144  ASN144     -0.2716
    106  ND2        8.1400   17.2340   23.7180 N.am  144  ASN144     -0.0877
    107  N          7.9290    8.4460   22.9780 N.3   146  LEU146     -0.1245
    108  CA         8.6820    7.3860   23.5440 C.3   146  LEU146      0.1561
    109  C          8.4320    6.1590   22.7360 C.2   146  LEU146      0.2260
    110  O          7.2720    5.8010   22.4840 O.2   146  LEU146     -0.2867
    111  CB         8.2680    7.1210   24.9870 C.3   146  LEU146      0.0270
    112  CG         8.2610    8.2900   25.9630 C.3   146  LEU146      0.0019
    113  CD1        7.9310    7.7710   27.3560 C.3   146  LEU146      0.0001
    114  CD2        9.5580    9.0900   25.9400 C.3   146  LEU146      0.0001
    115  N          4.2590   12.1690   24.8910 N.3   157  VAL157     -0.1231
    116  CA         4.3300   12.7720   26.2310 C.3   157  VAL157      0.1692
    117  C          4.4980   14.2490   26.1410 C.2   157  VAL157      0.2592
    118  O          4.8030   14.7780   25.0780 O.2   157  VAL157     -0.2718
    119  CB         5.4970   12.2190   27.1120 C.3   157  VAL157      0.0266
    120  CG1        5.3980   10.7050   27.3040 C.3   157  VAL157      0.0020
    121  CG2        6.8700   12.5910   26.5630 C.3   157  VAL157      0.0020
    122  N          4.3140   14.9010   27.2800 N.am  158  ASP158     -0.1974
    123  CA         4.5250   16.3350   27.4850 C.3   158  ASP158      0.1709
    124  C          3.4750   17.2470   26.8590 C.2   158  ASP158      0.2293
    125  O          3.5670   17.5790   25.6770 O.2   158  ASP158     -0.2864
    126  CB         5.9410   16.7950   27.1000 C.3   158  ASP158      0.1436
    127  CG         6.4100   17.9950   27.9410 C.2   158  ASP158      0.3671
    128  OD1        5.5600   18.8740   28.2640 O.co2 158  ASP158     -0.2456
    129  OD2        7.6210   18.0500   28.3060 O.co2 158  ASP158     -0.2456
@<TRIPOS>BOND
     1    93    94    1
     2    94    97    1
     3    94    95    1
     4   110   109    2
     5    99   100    1
     6    99    95   am
     7   101   102    2
     8   101   100    1
     9   109   108    1
    10   107   108    1
    11    97    98    1
    12   103   100    1
    13   103   104    1
    14    95    96    2
    15   108   111    1
    16   106   104   am
    17   104   105    2
    18   115   116    1
    19   111   112    1
    20   118   117    2
    21    85    84    1
    22    85    86    2
    23    87    84    1
    24    87    88    1
    25   125   124    2
    26    84    83    1
    27   114   112    1
    28   112   113    1
    29    82    80    1
    30   117   116    1
    31   117   122   am
    32    90    88   ar
    33    90    92   ar
    34   116   119    1
    35    88    89   ar
    36    40    41    1
    37   121   119    1
    38   124   123    1
    39    80    81    1
    40    80    79    1
    41   126   123    1
    42   126   127    1
    43   119   120    1
    44   122   123    1
    45    92    91   ar
    46    89    91   ar
    47    41    44    1
    48    41    42    1
    49   127   128   ar
    50   127   129   ar
    51    44    45    1
    52    79    76    1
    53    43    42    2
    54    78    77    2
    55    47    46    1
    56    77    76    1
    57    76    75    1
    58    45    46    1
    59    75    65   am
    60    39    38    1
    61     4     3    2
    62    65    66    2
    63    65    64    1
    64    74    73    1
    65    10    11    1
    66    10     9    1
    67    38    37    1
    68    73    72   ar
    69    73    71   ar
    70    54    53    1
    71    54    55    1
    72    18    17    1
    73    59    58    2
    74     3     9   am
    75     3     2    1
    76    72    70   ar
    77    71    69   ar
    78    11    12    2
    79    61    60    1
    80    61    62    1
    81    25    23    1
    82    64    63    1
    83    64    67    1
    84    37    36    1
    85    70    68   ar
    86    13    14    1
    87    69    68   ar
    88    16    15    2
    89     5     2    1
    90     5     6    1
    91     5     7    1
    92    53    52    1
    93    58    63   am
    94    58    57    1
    95    60    57    1
    96    62    56    1
    97    68    67    1
    98     8     6    1
    99     2     1    1
   100    23    24    1
   101    23    20    1
   102    17    14    1
   103    52    49    1
   104    14    15    1
   105    57    56    1
   106    56    50   am
   107    36    35    1
   108    30    27    1
   109    49    50    1
   110    49    48    1
   111    50    51    2
   112    19    20    1
   113    35    32    1
   114    20    21    1
   115    22    21    2
   116    27    26    1
   117    27    28    1
   118    32    31    1
   119    32    33    1
   120    29    28    2
   121    33    34    2
