@<TRIPOS>MOLECULE
tmp/4f9cA00.pdb
 160 150 0 0 0
SMALL
GASTEIGER

@<TRIPOS>ATOM
      1  N         21.6320   25.8470   63.5030 N.3    24  ILE24      -0.1231
      2  CA        22.2160   25.7990   62.1510 C.3    24  ILE24       0.1692
      3  C         21.2210   25.4800   61.0400 C.2    24  ILE24       0.2593
      4  O         21.5570   25.5510   59.8620 O.2    24  ILE24      -0.2718
      5  CB        23.4360   24.8540   62.0610 C.3    24  ILE24       0.0266
      6  CG1       23.0120   23.3930   62.2990 C.3    24  ILE24       0.0019
      7  CG2       24.5290   25.3320   63.0180 C.3    24  ILE24       0.0020
      8  CD1       24.1570   22.4120   62.4500 C.3    24  ILE24       0.0001
      9  N         20.0040   25.1140   61.4170 N.am   25  GLY25      -0.1942
     10  CA        18.9920   24.7450   60.4360 C.3    25  GLY25       0.2014
     11  C         17.6260   24.8220   61.0600 C.2    25  GLY25       0.2639
     12  O         17.4790   24.7510   62.2900 O.2    25  GLY25      -0.2714
     13  N         16.6190   24.9860   60.2120 N.am   26  GLU26      -0.1963
     14  CA        15.2390   25.0200   60.6650 C.3    26  GLU26       0.1733
     15  C         14.3080   24.7130   59.5050 C.2    26  GLU26       0.2616
     16  O         14.5010   25.2180   58.4050 O.2    26  GLU26      -0.2715
     17  CB        14.9170   26.3770   61.2900 C.3    26  GLU26       0.0429
     18  CG        13.4390   26.6010   61.5470 C.3    26  GLU26       0.1163
     19  CD        13.1360   26.9180   62.9920 C.2    26  GLU26       0.3649
     20  OE1       13.9580   27.5990   63.6380 O.co2  26  GLU26      -0.2457
     21  OE2       12.0690   26.4770   63.4760 O.co2  26  GLU26      -0.2457
     22  N         13.3100   23.8750   59.7570 N.am   27  GLY27      -0.1955
     23  CA        12.3160   23.5350   58.7500 C.3    27  GLY27       0.1869
     24  C         10.9660   23.5330   59.4240 C.2    27  GLY27       0.2309
     25  O         10.8560   23.9460   60.5740 O.2    27  GLY27      -0.2863
     26  N         11.2840   20.5610   62.3240 N.3    30  SER30      -0.1217
     27  CA        12.4720   20.4140   63.1650 C.3    30  SER30       0.1889
     28  C         13.3670   21.6420   63.1870 C.2    30  SER30       0.2288
     29  O         13.3050   22.4820   62.2880 O.2    30  SER30      -0.2866
     30  CB        13.3040   19.2080   62.7120 C.3    30  SER30       0.2089
     31  OG        13.8730   19.4240   61.4340 O.3    30  SER30      -0.2183
     32  N         17.6620   22.2620   63.8660 N.3    32  VAL32      -0.1245
     33  CA        18.9440   21.5820   64.0510 C.3    32  VAL32       0.1561
     34  C         19.9140   22.5770   64.6950 C.2    32  VAL32       0.2260
     35  O         19.9870   23.7450   64.2720 O.2    32  VAL32      -0.2867
     36  CB        19.4780   20.9900   62.7220 C.3    32  VAL32       0.0252
     37  CG1       20.8460   20.3480   62.9070 C.3    32  VAL32       0.0019
     38  CG2       18.5010   19.9570   62.1720 C.3    32  VAL32       0.0019
     39  N         25.4650   17.6310   65.6810 N.3    48  ALA48      -0.1245
     40  CA        24.1890   18.2430   65.2760 C.3    48  ALA48       0.1562
     41  C         23.0490   17.6510   66.1020 C.2    48  ALA48       0.2260
     42  O         22.8760   16.4380   66.1530 O.2    48  ALA48      -0.2867
     43  CB        23.9450   18.0310   63.7800 C.3    48  ALA48       0.0290
     44  N         19.0290   17.5180   66.4830 N.3    50  LYS50      -0.1245
     45  CA        17.7730   17.7790   65.7700 C.3    50  LYS50       0.1561
     46  C         16.5910   17.5890   66.7030 C.2    50  LYS50       0.2260
     47  O         16.2850   16.4620   67.1270 O.2    50  LYS50      -0.2867
     48  CB        17.6450   16.8710   64.5350 C.3    50  LYS50       0.0271
     49  CG        16.3190   17.0060   63.7800 C.3    50  LYS50       0.0035
     50  CD        16.2050   15.9990   62.6510 C.3    50  LYS50       0.0206
     51  CE        15.0900   16.3870   61.6990 C.3    50  LYS50       0.1093
     52  NZ        15.1940   15.5750   60.4530 N.3    50  LYS50      -0.1314
     53  N         11.5510    7.8980   61.3490 N.3    64  GLU64      -0.1245
     54  CA        12.7530    8.6880   61.0290 C.3    64  GLU64       0.1567
     55  C         14.0130    8.0790   61.6500 C.2    64  GLU64       0.2260
     56  O         15.0210    7.8850   60.9640 O.2    64  GLU64      -0.2867
     57  CB        12.5940   10.1640   61.4500 C.3    64  GLU64       0.0388
     58  CG        13.9180   10.9280   61.4320 C.3    64  GLU64       0.1160
     59  CD        13.7680   12.4410   61.4600 C.2    64  GLU64       0.3649
     60  OE1       12.6450   12.9600   61.4480 O.co2  64  GLU64      -0.2457
     61  OE2       14.8010   13.1260   61.5120 O.co2  64  GLU64      -0.2457
     62  N         23.3280   10.1280   56.1150 N.3    78  MET78      -0.1245
     63  CA        23.5230   10.4740   57.5160 C.3    78  MET78       0.1570
     64  C         23.0320    9.3600   58.4420 C.2    78  MET78       0.2261
     65  O         21.9560    8.8000   58.2210 O.2    78  MET78      -0.2867
     66  CB        22.7650   11.7710   57.8350 C.3    78  MET78       0.0387
     67  CG        22.8330   12.2690   59.2910 C.3    78  MET78       0.0595
     68  SD        24.5300   12.5470   59.8560 S.3    78  MET78      -0.1393
     69  CE        25.0190   13.9770   58.8770 C.3    78  MET78       0.0692
     70  N         23.3920   13.6390   65.9370 N.3    94  MET94      -0.1231
     71  CA        24.0560   13.1390   64.7440 C.3    94  MET94       0.1687
     72  C         25.4240   13.7730   64.6140 C.2    94  MET94       0.2434
     73  O         25.6560   14.8410   65.1800 O.2    94  MET94      -0.2733
     74  CB        23.2230   13.4710   63.5110 C.3    94  MET94       0.0400
     75  CG        21.9430   12.6510   63.4040 C.3    94  MET94       0.0596
     76  SD        20.7910   13.3740   62.2200 S.3    94  MET94      -0.1393
     77  CE        20.3990   14.9090   63.0820 C.3    94  MET94       0.0692
     78  N         26.3390   13.1250   63.8660 N.am   95  PRO95      -0.2718
     79  CA        27.6240   13.7800   63.6190 C.3    95  PRO95       0.1535
     80  C         27.4360   15.1060   62.8610 C.2    95  PRO95       0.2599
     81  O         26.5940   15.1990   61.9540 O.2    95  PRO95      -0.2715
     82  CB        28.3940   12.7670   62.7540 C.3    95  PRO95       0.0310
     83  CG        27.3890   11.7710   62.2720 C.3    95  PRO95       0.0237
     84  CD        26.2740   11.7660   63.2820 C.3    95  PRO95       0.0939
     85  N         28.1980   16.1230   63.2550 N.am   96  TYR96      -0.1960
     86  CA        28.2100   17.4000   62.5450 C.3    96  TYR96       0.1771
     87  C         29.1130   17.3170   61.3230 C.2    96  TYR96       0.2619
     88  O         30.2380   16.8440   61.3950 O.2    96  TYR96      -0.2715
     89  CB        28.6820   18.5260   63.4680 C.3    96  TYR96       0.0574
     90  CG        28.7940   19.8970   62.8200 C.ar   96  TYR96      -0.0198
     91  CD1       27.6510   20.6330   62.4850 C.ar   96  TYR96      -0.0009
     92  CD2       30.0490   20.4690   62.5640 C.ar   96  TYR96      -0.0009
     93  CE1       27.7540   21.8910   61.9020 C.ar   96  TYR96       0.0417
     94  CE2       30.1650   21.7330   61.9900 C.ar   96  TYR96       0.0417
     95  CZ        29.0170   22.4400   61.6650 C.ar   96  TYR96       0.1957
     96  OH        29.1190   23.6910   61.1010 O.3    96  TYR96      -0.2866
     97  N         28.6090   17.7640   60.1880 N.am   97  LEU97      -0.1977
     98  CA        29.4590   17.9040   59.0240 C.3    97  LEU97       0.1596
     99  C         29.4110   19.3620   58.6450 C.2    97  LEU97       0.2287
    100  O         28.3410   19.8970   58.3530 O.2    97  LEU97      -0.2864
    101  CB        28.9810   17.0180   57.8670 C.3    97  LEU97       0.0297
    102  CG        29.8210   17.0440   56.5740 C.3    97  LEU97       0.0022
    103  CD1       31.1590   16.3280   56.7390 C.3    97  LEU97       0.0001
    104  CD2       29.0430   16.4380   55.4100 C.3    97  LEU97       0.0001
    105  N         29.5790   22.3890   56.2730 N.3    99  HIS99      -0.1241
    106  CA        29.0680   22.3360   54.9140 C.3    99  HIS99       0.1621
    107  C         28.7550   23.6780   54.3300 C.2    99  HIS99       0.2264
    108  O         28.4610   24.6290   55.0580 O.2    99  HIS99      -0.2867
    109  CB        27.8290   21.4380   54.8740 C.3    99  HIS99       0.0745
    110  CG        26.6700   21.9750   55.6800 C.ar   99  HIS99       0.0817
    111  ND1       26.5500   21.7650   57.0070 N.ar   99  HIS99      -0.2268
    112  CD2       25.5650   22.7350   55.2960 C.ar   99  HIS99       0.1154
    113  CE1       25.4260   22.3650   57.4570 C.ar   99  HIS99       0.1986
    114  NE2       24.8200   22.9570   56.4030 N.ar   99  HIS99      -0.2212
    115  N         16.4950   18.0320   48.3620 N.3   139  LYS139     -0.1245
    116  CA        16.7760   19.3920   47.9330 C.3   139  LYS139      0.1561
    117  C         18.1460   19.7440   48.5250 C.2   139  LYS139      0.2260
    118  O         18.6510   18.9970   49.3940 O.2   139  LYS139     -0.2867
    119  CB        15.6810   20.3580   48.4150 C.3   139  LYS139      0.0271
    120  CG        15.4750   20.3650   49.9180 C.3   139  LYS139      0.0035
    121  CD        14.2450   21.1450   50.2950 C.3   139  LYS139      0.0206
    122  CE        14.0400   21.1640   51.8000 C.3   139  LYS139      0.1093
    123  NZ        12.9070   22.0830   52.0690 N.3   139  LYS139     -0.1314
    124  N         19.3020   21.9490   50.6900 N.3   141  SER141     -0.1202
    125  CA        19.3750   22.1140   52.1580 C.3   141  SER141      0.2020
    126  C         19.3220   20.7850   52.9340 C.2   141  SER141      0.2618
    127  O         19.6890   20.7430   54.1120 O.2   141  SER141     -0.2717
    128  CB        18.3090   23.0950   52.6800 C.3   141  SER141      0.2103
    129  OG        17.0160   22.5430   52.5590 O.3   141  SER141     -0.2182
    130  N         18.8830   19.7090   52.2680 N.am  142  ASN142     -0.1974
    131  CA        18.9330   18.3540   52.8590 C.3   142  ASN142      0.1688
    132  C         20.0470   17.4610   52.3290 C.2   142  ASN142      0.2292
    133  O         20.0520   16.2480   52.5870 O.2   142  ASN142     -0.2864
    134  CB        17.5800   17.6330   52.7420 C.3   142  ASN142      0.1181
    135  CG        16.5360   18.2060   53.6740 C.2   142  ASN142      0.2629
    136  OD1       16.8540   18.7230   54.7520 O.2   142  ASN142     -0.2716
    137  ND2       15.2760   18.1230   53.2630 N.am  142  ASN142     -0.0877
    138  N         24.0680   17.7300   52.5660 N.3   144  LEU144     -0.1245
    139  CA        25.2140   18.4730   53.0970 C.3   144  LEU144      0.1561
    140  C         26.4270   18.2560   52.2330 C.2   144  LEU144      0.2260
    141  O         26.7470   17.1290   51.8810 O.2   144  LEU144     -0.2867
    142  CB        25.5190   18.0640   54.5480 C.3   144  LEU144      0.0270
    143  CG        24.3250   17.9710   55.5110 C.3   144  LEU144      0.0019
    144  CD1       24.8040   17.4890   56.8780 C.3   144  LEU144      0.0001
    145  CD2       23.5630   19.2880   55.6340 C.3   144  LEU144      0.0001
    146  N         20.3080   14.0640   54.4270 N.3   155  VAL155     -0.1231
    147  CA        19.7270   14.1560   55.7620 C.3   155  VAL155      0.1692
    148  C         18.2200   14.3030   55.6790 C.2   155  VAL155      0.2592
    149  O         17.6710   14.6270   54.6090 O.2   155  VAL155     -0.2718
    150  CB        20.3060   15.3450   56.6000 C.3   155  VAL155      0.0266
    151  CG1       21.7940   15.1530   56.8650 C.3   155  VAL155      0.0020
    152  CG2       20.0460   16.6960   55.9090 C.3   155  VAL155      0.0020
    153  N         17.5860   14.0510   56.8270 N.am  156  ASP156     -0.1974
    154  CA        16.1910   14.3690   57.1130 C.3   156  ASP156      0.1709
    155  C         15.1750   13.3850   56.5290 C.2   156  ASP156      0.2293
    156  O         14.6420   13.5760   55.4350 O.2   156  ASP156     -0.2864
    157  CB        15.8450   15.8230   56.7850 C.3   156  ASP156      0.1436
    158  CG        14.5770   16.2840   57.4860 C.2   156  ASP156      0.3671
    159  OD1       13.8730   15.4330   58.0740 O.co2 156  ASP156     -0.2456
    160  OD2       14.2940   17.4990   57.4800 O.co2 156  ASP156     -0.2456
@<TRIPOS>BOND
     1   116   115    1
     2   116   119    1
     3   116   117    1
     4   119   120    1
     5   117   118    2
     6   120   121    1
     7   121   122    1
     8   124   125    1
     9   122   123    1
    10   141   140    2
    11   125   128    1
    12   125   126    1
    13   140   139    1
    14   130   131    1
    15   130   126   am
    16   132   133    2
    17   132   131    1
    18   129   128    1
    19   138   139    1
    20   134   131    1
    21   134   135    1
    22   126   127    2
    23   139   142    1
    24   137   135   am
    25   135   136    2
    26   107   106    1
    27   107   108    2
    28   146   147    1
    29   142   143    1
    30   149   148    2
    31   109   106    1
    32   109   110    1
    33   106   105    1
    34   112   110   ar
    35   112   114   ar
    36   104   102    1
    37   156   155    2
    38   143   145    1
    39   143   144    1
    40   148   147    1
    41   148   153   am
    42   110   111   ar
    43   147   150    1
    44   152   150    1
    45    62    63    1
    46   114   113   ar
    47   155   154    1
    48   102   103    1
    49   102   101    1
    50   150   151    1
    51   157   154    1
    52   157   158    1
    53   153   154    1
    54   111   113   ar
    55   160   158   ar
    56   158   159   ar
    57    63    66    1
    58    63    64    1
    59    66    67    1
    60   101    98    1
    61    65    64    2
    62   100    99    2
    63    16    15    2
    64    99    98    1
    65    23    24    1
    66    23    22    1
    67    69    68    1
    68    98    97    1
    69    67    68    1
    70    24    25    2
    71    15    22   am
    72    15    14    1
    73     4     3    2
    74    97    87   am
    75    13    14    1
    76    13    11   am
    77    10    11    1
    78    10     9    1
    79    52    51    1
    80    14    17    1
    81    56    55    2
    82    54    53    1
    83    54    57    1
    84    54    55    1
    85     3     9   am
    86     3     2    1
    87    11    12    2
    88    96    95    1
    89    17    18    1
    90    87    88    2
    91    87    86    1
    92    58    57    1
    93    58    59    1
    94    31    30    1
    95    60    59   ar
    96    59    61   ar
    97    18    19    1
    98    95    93   ar
    99    95    94   ar
   100    51    50    1
   101    93    91   ar
   102    81    80    2
   103    94    92   ar
   104     5     2    1
   105     5     6    1
   106     5     7    1
   107     2     1    1
   108    38    36    1
   109    76    77    1
   110    76    75    1
   111    83    82    1
   112    83    84    1
   113    29    28    2
   114     6     8    1
   115    26    27    1
   116    91    90   ar
   117    86    85    1
   118    86    89    1
   119    92    90   ar
   120    50    49    1
   121    30    27    1
   122    36    37    1
   123    36    33    1
   124    82    79    1
   125    90    89    1
   126    80    85   am
   127    80    79    1
   128    19    21   ar
   129    19    20   ar
   130    27    28    1
   131    84    78    1
   132    75    74    1
   133    74    71    1
   134    79    78    1
   135    43    40    1
   136    49    48    1
   137    78    72   am
   138    32    33    1
   139    33    34    1
   140    35    34    2
   141    48    45    1
   142    72    71    1
   143    72    73    2
   144    71    70    1
   145    40    39    1
   146    40    41    1
   147    45    44    1
   148    45    46    1
   149    41    42    2
   150    46    47    2
