@<TRIPOS>MOLECULE
tmp/4f9mA00.pdb
 165 157 0 0 0
SMALL
GASTEIGER

@<TRIPOS>ATOM
      1  N         14.0590   56.3190   52.0760 N.3    77  VAL77      -0.1231
      2  CA        13.6820   57.4990   51.3110 C.3    77  VAL77       0.1692
      3  C         14.9360   58.1080   50.6850 C.2    77  VAL77       0.2591
      4  O         14.9370   58.4950   49.5140 O.2    77  VAL77      -0.2718
      5  CB        12.9860   58.5600   52.2030 C.3    77  VAL77       0.0266
      6  CG1       12.8040   59.8670   51.4290 C.3    77  VAL77       0.0020
      7  CG2       11.6210   58.0390   52.6610 C.3    77  VAL77       0.0020
      8  N         16.0090   58.1820   51.4660 N.am   78  GLN78      -0.1979
      9  CA        17.2480   58.7530   50.9620 C.3    78  GLN78       0.1601
     10  C         17.8760   57.9070   49.8580 C.2    78  GLN78       0.2287
     11  O         18.3980   58.4510   48.8870 O.2    78  GLN78      -0.2864
     12  CB        18.2150   58.9770   52.1250 C.3    78  GLN78       0.0394
     13  CG        17.6550   59.9950   53.1180 C.3    78  GLN78       0.0908
     14  CD        18.5130   60.1880   54.3450 C.2    78  GLN78       0.2608
     15  OE1       19.6010   60.7690   54.2780 O.2    78  GLN78      -0.2717
     16  NE2       18.0270   59.7060   55.4810 N.am   78  GLN78      -0.0878
     17  N         15.7810   58.4070   46.7810 N.3    81  THR81      -0.1218
     18  CA        16.0340   59.7350   46.2530 C.3    81  THR81       0.1862
     19  C         17.3010   59.7220   45.4000 C.2    81  THR81       0.2287
     20  O         17.3230   60.2950   44.3120 O.2    81  THR81      -0.2866
     21  CB        16.1790   60.7610   47.3830 C.3    81  THR81       0.1770
     22  OG1       14.9230   60.8820   48.0590 O.3    81  THR81      -0.2211
     23  CG2       16.5780   62.1240   46.8260 C.3    81  THR81       0.0375
     24  N         17.4660   60.4330   41.1880 N.3    85  LYS85      -0.1245
     25  CA        18.3540   61.4100   40.5700 C.3    85  LYS85       0.1561
     26  C         19.2270   60.8190   39.4640 C.2    85  LYS85       0.2260
     27  O         19.8420   61.5630   38.6970 O.2    85  LYS85      -0.2867
     28  CB        19.2100   62.0770   41.6510 C.3    85  LYS85       0.0271
     29  CG        18.3600   62.9430   42.5840 C.3    85  LYS85       0.0035
     30  CD        19.0090   63.2150   43.9370 C.3    85  LYS85       0.0206
     31  CE        20.2770   64.0520   43.8230 C.3    85  LYS85       0.1093
     32  NZ        20.7860   64.3640   45.1900 N.3    85  LYS85      -0.1314
     33  N         15.3990   63.1850   35.0880 N.3    90  PHE90      -0.1227
     34  CA        14.8340   63.5420   36.3910 C.3    90  PHE90       0.1736
     35  C         15.3520   64.8360   37.0150 C.2    90  PHE90       0.2595
     36  O         14.5560   65.6970   37.4010 O.2    90  PHE90      -0.2718
     37  CB        15.0460   62.4130   37.4010 C.3    90  PHE90       0.0547
     38  CG        14.2860   62.6030   38.6920 C.ar   90  PHE90      -0.0202
     39  CD1       12.9350   62.2670   38.7750 C.ar   90  PHE90      -0.0042
     40  CD2       14.9150   63.1250   39.8180 C.ar   90  PHE90      -0.0042
     41  CE1       12.2250   62.4480   39.9670 C.ar   90  PHE90      -0.0003
     42  CE2       14.2200   63.3140   41.0170 C.ar   90  PHE90      -0.0003
     43  CZ        12.8670   62.9730   41.0920 C.ar   90  PHE90      -0.0000
     44  N         16.6740   64.9820   37.1250 N.am   91  VAL91      -0.1980
     45  CA        17.2210   66.1840   37.7540 C.3    91  VAL91       0.1595
     46  C         16.9790   67.4560   36.9490 C.2    91  VAL91       0.2287
     47  O         17.1220   68.5580   37.4800 O.2    91  VAL91      -0.2864
     48  CB        18.7520   66.0520   38.0430 C.3    91  VAL91       0.0276
     49  CG1       19.0050   64.9270   39.0450 C.3    91  VAL91       0.0022
     50  CG2       19.5110   65.8070   36.7510 C.3    91  VAL91       0.0022
     51  N         12.2180   71.5600   39.9740 N.3    95  LEU95      -0.1231
     52  CA        12.5320   71.0270   41.3060 C.3    95  LEU95       0.1693
     53  C         11.3080   70.6900   42.1580 C.2    95  LEU95       0.2592
     54  O         11.2910   69.6840   42.8600 O.2    95  LEU95      -0.2718
     55  CB        13.4440   72.0070   42.0620 C.3    95  LEU95       0.0284
     56  CG        14.0490   71.5570   43.3990 C.3    95  LEU95       0.0019
     57  CD1       14.7580   70.2170   43.2530 C.3    95  LEU95       0.0001
     58  CD2       15.0300   72.6160   43.8720 C.3    95  LEU95       0.0001
     59  N         10.2810   71.5280   42.1120 N.am   96  ASN96      -0.1974
     60  CA         9.0890   71.2370   42.8950 C.3    96  ASN96       0.1688
     61  C          8.3900   69.9830   42.3750 C.2    96  ASN96       0.2292
     62  O          7.7580   69.2620   43.1430 O.2    96  ASN96      -0.2864
     63  CB         8.1420   72.4320   42.8800 C.3    96  ASN96       0.1181
     64  CG         8.7070   73.6160   43.6340 C.2    96  ASN96       0.2629
     65  OD1        9.0440   73.5080   44.8110 O.2    96  ASN96      -0.2716
     66  ND2        8.8150   74.7530   42.9590 N.am   96  ASN96      -0.0877
     67  N          9.9760   67.4340   41.1230 N.3    98  GLN98      -0.1231
     68  CA        10.8220   66.3370   41.5990 C.3    98  GLN98       0.1698
     69  C         10.3630   65.9790   43.0130 C.2    98  GLN98       0.2592
     70  O         10.2400   64.8050   43.3630 O.2    98  GLN98      -0.2718
     71  CB        12.2980   66.7600   41.6540 C.3    98  GLN98       0.0381
     72  CG        12.9560   67.0050   40.3140 C.3    98  GLN98       0.0905
     73  CD        14.4190   67.3850   40.4750 C.2    98  GLN98       0.2608
     74  OE1       15.1830   66.6680   41.1140 O.2    98  GLN98      -0.2717
     75  NE2       14.8090   68.5180   39.9060 N.am   98  GLN98      -0.0878
     76  N         10.1270   67.0080   43.8230 N.am   99  VAL99      -0.1980
     77  CA         9.6740   66.8150   45.1960 C.3    99  VAL99       0.1595
     78  C          8.3280   66.0960   45.1960 C.2    99  VAL99       0.2287
     79  O          8.1000   65.1880   45.9920 O.2    99  VAL99      -0.2864
     80  CB         9.5230   68.1710   45.9280 C.3    99  VAL99       0.0276
     81  CG1        8.8570   67.9680   47.2780 C.3    99  VAL99       0.0022
     82  CG2       10.9000   68.8120   46.1220 C.3    99  VAL99       0.0022
     83  N          8.6300   62.3790   44.3130 N.3   102  LEU102     -0.1231
     84  CA         9.1570   61.6160   45.4440 C.3   102  LEU102      0.1693
     85  C          8.1110   61.4790   46.5410 C.2   102  LEU102      0.2591
     86  O          7.9170   60.3950   47.0960 O.2   102  LEU102     -0.2718
     87  CB        10.4040   62.2890   46.0200 C.3   102  LEU102      0.0284
     88  CG        11.6750   62.1340   45.1860 C.3   102  LEU102      0.0019
     89  CD1       12.8500   62.7690   45.9230 C.3   102  LEU102      0.0001
     90  CD2       11.9440   60.6540   44.9540 C.3   102  LEU102      0.0001
     91  N          7.4360   62.5820   46.8370 N.am  103  LYS103     -0.1980
     92  CA         6.4090   62.6070   47.8740 C.3   103  LYS103      0.1596
     93  C          5.3650   61.5140   47.6830 C.2   103  LYS103      0.2287
     94  O          5.0390   60.7900   48.6210 O.2   103  LYS103     -0.2864
     95  CB         5.7230   63.9710   47.8870 C.3   103  LYS103      0.0298
     96  CG         4.6320   64.1210   48.9400 C.3   103  LYS103      0.0038
     97  CD         3.9160   65.4610   48.7850 C.3   103  LYS103      0.0206
     98  CE         2.7960   65.6240   49.8030 C.3   103  LYS103      0.1093
     99  NZ         3.3070   65.4940   51.1960 N.3   103  LYS103     -0.1314
    100  N          7.7030   57.5310   46.8920 N.3   106  VAL106     -0.1245
    101  CA         8.5380   56.7980   47.8370 C.3   106  VAL106      0.1561
    102  C          7.8950   55.6100   48.5260 C.2   106  VAL106      0.2260
    103  O          8.4630   54.5200   48.5270 O.2   106  VAL106     -0.2867
    104  CB         9.1430   57.7160   48.9300 C.3   106  VAL106      0.0252
    105  CG1       10.2850   58.5200   48.3470 C.3   106  VAL106      0.0019
    106  CG2        8.0780   58.6320   49.5110 C.3   106  VAL106      0.0019
    107  N          9.2210   60.9300   62.6750 N.3   250  HIS250     -0.1227
    108  CA        10.3980   61.5430   62.0810 C.3   250  HIS250      0.1737
    109  C          9.9820   62.6760   61.1440 C.2   250  HIS250      0.2438
    110  O          9.0530   62.5270   60.3510 O.2   250  HIS250     -0.2733
    111  CB        11.2040   60.4820   61.3230 C.3   250  HIS250      0.0758
    112  CG        12.5440   60.9540   60.8590 C.ar  250  HIS250      0.0818
    113  ND1       12.7020   61.8490   59.8230 N.ar  250  HIS250     -0.2268
    114  CD2       13.7930   60.6480   61.2850 C.ar  250  HIS250      0.1154
    115  CE1       13.9900   62.0710   59.6290 C.ar  250  HIS250      0.1986
    116  NE2       14.6730   61.3540   60.5030 N.ar  250  HIS250     -0.2212
    117  N         10.6720   63.8250   61.2260 N.am  251  PRO251     -0.2718
    118  CA        10.4000   65.0110   60.4050 C.3   251  PRO251      0.1535
    119  C         10.2090   64.7170   58.9180 C.2   251  PRO251      0.2598
    120  O          9.2520   65.1890   58.3030 O.2   251  PRO251     -0.2715
    121  CB        11.6220   65.8970   60.6620 C.3   251  PRO251      0.0310
    122  CG        11.9860   65.5490   62.0700 C.3   251  PRO251      0.0237
    123  CD        11.8650   64.0390   62.0670 C.3   251  PRO251      0.0939
    124  N         11.1250   63.9440   58.3460 N.am  252  LEU252     -0.1978
    125  CA        11.0560   63.6010   56.9330 C.3   252  LEU252      0.1596
    126  C          9.7580   62.8750   56.6050 C.2   252  LEU252      0.2287
    127  O          9.1300   63.1460   55.5810 O.2   252  LEU252     -0.2864
    128  CB        12.2530   62.7320   56.5380 C.3   252  LEU252      0.0297
    129  CG        12.2670   62.2830   55.0730 C.3   252  LEU252      0.0022
    130  CD1       12.0520   63.4760   54.1400 C.3   252  LEU252      0.0001
    131  CD2       13.5880   61.5870   54.7810 C.3   252  LEU252      0.0001
    132  N          6.7860   65.2240   56.7140 N.3   255  GLU255     -0.1231
    133  CA         6.7580   66.0590   55.5240 C.3   255  GLU255      0.1699
    134  C          6.0650   65.3190   54.3820 C.2   255  GLU255      0.2592
    135  O          5.1760   65.8590   53.7240 O.2   255  GLU255     -0.2718
    136  CB         8.1870   66.4160   55.1140 C.3   255  GLU255      0.0402
    137  CG         8.2840   67.6000   54.1770 C.3   255  GLU255      0.1161
    138  CD         9.7120   67.8730   53.7350 C.2   255  GLU255      0.3649
    139  OE1       10.1260   67.3360   52.6830 O.co2 255  GLU255     -0.2457
    140  OE2       10.4220   68.6200   54.4460 O.co2 255  GLU255     -0.2457
    141  N          6.4790   64.0770   54.1540 N.am  256  ILE256     -0.1980
    142  CA         5.9090   63.2550   53.0940 C.3   256  ILE256      0.1595
    143  C          4.4130   63.0030   53.2710 C.2   256  ILE256      0.2287
    144  O          3.6490   63.0900   52.3100 O.2   256  ILE256     -0.2864
    145  CB         6.6270   61.8880   53.0040 C.3   256  ILE256      0.0276
    146  CG1        8.0610   62.0880   52.5090 C.3   256  ILE256      0.0022
    147  CG2        5.8640   60.9550   52.0630 C.3   256  ILE256      0.0022
    148  CD1        8.8880   60.8240   52.4950 C.3   256  ILE256      0.0001
    149  N          2.2870   64.7750   55.2780 N.3   258  LYS258     -0.1231
    150  CA         1.5490   66.0320   55.3830 C.3   258  LYS258      0.1693
    151  C          0.9930   66.5000   54.0410 C.2   258  LYS258      0.2592
    152  O          1.7250   66.6250   53.0590 O.2   258  LYS258     -0.2718
    153  CB         2.4440   67.1240   55.9780 C.3   258  LYS258      0.0285
    154  CG         1.7100   68.4090   56.3200 C.3   258  LYS258      0.0035
    155  CD         2.6060   69.3780   57.0800 C.3   258  LYS258      0.0206
    156  CE         1.8480   70.6460   57.4640 C.3   258  LYS258      0.1093
    157  NZ         0.6670   70.3490   58.3300 N.3   258  LYS258     -0.1314
    158  N         -0.3100   66.7650   54.0130 N.am  259  ASP259     -0.1974
    159  CA        -0.9850   67.2180   52.8020 C.3   259  ASP259      0.1709
    160  C         -0.9930   66.1450   51.7200 C.2   259  ASP259      0.2293
    161  O         -1.1640   66.4410   50.5350 O.2   259  ASP259     -0.2864
    162  CB        -0.3360   68.4990   52.2680 C.3   259  ASP259      0.1436
    163  CG        -0.6560   69.7120   53.1210 C.2   259  ASP259      0.3671
    164  OD1       -1.8560   70.0190   53.2930 O.co2 259  ASP259     -0.2456
    165  OD2        0.2880   70.3600   53.6210 O.co2 259  ASP259     -0.2456
@<TRIPOS>BOND
     1    33    34    1
     2    34    35    1
     3    34    37    1
     4    50    48    1
     5    46    47    2
     6    46    45    1
     7    35    44   am
     8    35    36    2
     9    44    45    1
    10    37    38    1
    11    45    48    1
    12    48    49    1
    13    38    39   ar
    14    38    40   ar
    15    27    26    2
    16    39    41   ar
    17    26    25    1
    18    40    42   ar
    19    75    73   am
    20    41    43   ar
    21    51    52    1
    22    72    73    1
    23    72    71    1
    24    73    74    2
    25    25    24    1
    26    25    28    1
    27    42    43   ar
    28    67    68    1
    29    52    55    1
    30    52    53    1
    31    68    71    1
    32    68    69    1
    33    28    29    1
    34    55    56    1
    35    59    53   am
    36    59    60    1
    37    53    54    2
    38    61    60    1
    39    61    62    2
    40    29    30    1
    41    63    60    1
    42    63    64    1
    43    66    64   am
    44    69    70    2
    45    69    76   am
    46    57    56    1
    47    56    58    1
    48    64    65    2
    49    31    30    1
    50    31    32    1
    51    76    77    1
    52    20    19    2
    53    83    84    1
    54    90    88    1
    55    88    89    1
    56    88    87    1
    57    77    78    1
    58    77    80    1
    59    78    79    2
    60    19    18    1
    61    84    87    1
    62    84    85    1
    63    80    82    1
    64    80    81    1
    65    18    17    1
    66    18    21    1
    67    85    91   am
    68    85    86    2
    69    23    21    1
    70    91    92    1
    71   100   101    1
    72    21    22    1
    73    93    92    1
    74    93    94    2
    75   101   102    1
    76   101   104    1
    77    92    95    1
    78    95    96    1
    79   105   104    1
    80   102   103    2
    81    97    96    1
    82    97    98    1
    83    11    10    2
    84   104   106    1
    85     4     3    2
    86    98    99    1
    87    10     9    1
    88   161   160    2
    89     3     2    1
    90     3     8   am
    91     9     8    1
    92     9    12    1
    93     2     1    1
    94     2     5    1
    95     6     5    1
    96   160   159    1
    97   147   145    1
    98    12    13    1
    99     5     7    1
   100   162   159    1
   101   162   163    1
   102   144   143    2
   103   148   146    1
   104   146   145    1
   105   139   138   ar
   106   159   158    1
   107   145   142    1
   108   152   151    2
   109   142   143    1
   110   142   141    1
   111    13    14    1
   112   163   164   ar
   113   163   165   ar
   114   135   134    2
   115   138   137    1
   116   138   140   ar
   117   158   151   am
   118   151   150    1
   119   130   129    1
   120   141   134   am
   121   137   136    1
   122    15    14    2
   123    14    16   am
   124   134   133    1
   125   131   129    1
   126   129   128    1
   127   136   133    1
   128   149   150    1
   129   150   153    1
   130   133   132    1
   131   127   126    2
   132   153   154    1
   133   154   155    1
   134   128   125    1
   135   126   125    1
   136   125   124    1
   137   155   156    1
   138   156   157    1
   139   120   119    2
   140   124   119   am
   141   119   118    1
   142   115   113   ar
   143   115   116   ar
   144   113   112   ar
   145   110   109    2
   146   118   121    1
   147   118   117    1
   148   116   114   ar
   149   121   122    1
   150   112   114   ar
   151   112   111    1
   152   109   117   am
   153   109   108    1
   154   117   123    1
   155   111   108    1
   156   123   122    1
   157   108   107    1
