@<TRIPOS>MOLECULE
tmp/4f9nA01.pdb
 112 108 0 0 0
SMALL
GASTEIGER

@<TRIPOS>ATOM
      1  N         28.0350    8.9340   14.0560 N.3    69  VAL69      -0.1231
      2  CA        26.7220    9.2880   14.5760 C.3    69  VAL69       0.1692
      3  C         25.6180    8.3430   14.1430 C.2    69  VAL69       0.2592
      4  O         24.4370    8.7280   14.1050 O.2    69  VAL69      -0.2718
      5  CB        26.2790   10.7240   14.1610 C.3    69  VAL69       0.0266
      6  CG1       25.3590   11.3060   15.2400 C.3    69  VAL69       0.0020
      7  CG2       27.4810   11.6200   13.9440 C.3    69  VAL69       0.0020
      8  N         25.9970    7.1190   13.8020 N.am   70  TYR70      -0.1962
      9  CA        25.0160    6.1310   13.3980 C.3    70  TYR70       0.1771
     10  C         24.4390    5.5090   14.6540 C.2    70  TYR70       0.2619
     11  O         25.1320    5.3450   15.6550 O.2    70  TYR70      -0.2715
     12  CB        25.6640    5.0490   12.5250 C.3    70  TYR70       0.0574
     13  CG        25.9260    5.5030   11.1030 C.ar   70  TYR70      -0.0198
     14  CD1       26.7070    4.7410   10.2350 C.ar   70  TYR70      -0.0009
     15  CD2       25.3770    6.6990   10.6180 C.ar   70  TYR70      -0.0009
     16  CE1       26.9360    5.1590    8.9110 C.ar   70  TYR70       0.0417
     17  CE2       25.5920    7.1250    9.3070 C.ar   70  TYR70       0.0417
     18  CZ        26.3710    6.3520    8.4560 C.ar   70  TYR70       0.1957
     19  OH        26.5730    6.7690    7.1540 O.3    70  TYR70      -0.2866
     20  N         23.1540    5.2030   14.6060 N.am   71  ILE71      -0.1963
     21  CA        22.4840    4.5610   15.7200 C.3    71  ILE71       0.1727
     22  C         22.7590    3.0610   15.4980 C.2    71  ILE71       0.2616
     23  O         22.6880    2.5730   14.3710 O.2    71  ILE71      -0.2715
     24  CB        20.9730    4.9380   15.6990 C.3    71  ILE71       0.0290
     25  CG1       20.8160    6.3370   16.3120 C.3    71  ILE71       0.0022
     26  CG2       20.1370    3.9000   16.4390 C.3    71  ILE71       0.0023
     27  CD1       19.7580    7.2020   15.6730 C.3    71  ILE71       0.0001
     28  N         23.1200    2.3450   16.5580 N.am   72  MET72      -0.1977
     29  CA        23.4540    0.9230   16.4470 C.3    72  MET72       0.1605
     30  C         22.3880   -0.0140   16.9970 C.2    72  MET72       0.2287
     31  O         22.2280   -1.1360   16.5290 O.2    72  MET72      -0.2864
     32  CB        24.7760    0.6520   17.1690 C.3    72  MET72       0.0413
     33  CG        25.9680    1.4300   16.6360 C.3    72  MET72       0.0598
     34  SD        26.6630    0.6520   15.1560 S.3    72  MET72      -0.1393
     35  CE        25.6720    1.3840   13.8230 C.3    72  MET72       0.0692
     36  N         20.5850   -3.4450   15.1860 N.3    83  PHE83      -0.1241
     37  CA        20.3530   -3.5830   13.7570 C.3    83  PHE83       0.1605
     38  C         21.0220   -4.8500   13.2610 C.2    83  PHE83       0.2264
     39  O         21.9590   -5.3600   13.8830 O.2    83  PHE83      -0.2867
     40  CB        20.9390   -2.3950   13.0080 C.3    83  PHE83       0.0534
     41  CG        20.0530   -1.2020   12.9940 C.ar   83  PHE83      -0.0203
     42  CD1       18.8310   -1.2480   12.3340 C.ar   83  PHE83      -0.0042
     43  CD2       20.4360   -0.0280   13.6360 C.ar   83  PHE83      -0.0042
     44  CE1       17.9970   -0.1370   12.3020 C.ar   83  PHE83      -0.0003
     45  CE2       19.6170    1.0910   13.6140 C.ar   83  PHE83      -0.0003
     46  CZ        18.3870    1.0350   12.9440 C.ar   83  PHE83      -0.0000
     47  N         23.4350   -5.8560   11.2320 N.3    85  GLU85      -0.1245
     48  CA        24.5930   -5.4770   10.4450 C.3    85  GLU85       0.1567
     49  C         25.8210   -5.6110   11.3330 C.2    85  GLU85       0.2260
     50  O         25.7310   -5.4520   12.5520 O.2    85  GLU85      -0.2867
     51  CB        24.4630   -4.0540    9.9090 C.3    85  GLU85       0.0388
     52  CG        24.7270   -2.9500   10.9130 C.3    85  GLU85       0.1160
     53  CD        24.1000   -1.6330   10.4810 C.2    85  GLU85       0.3649
     54  OE1       23.4610   -1.6260    9.4090 O.co2  85  GLU85      -0.2457
     55  OE2       24.2330   -0.6150   11.2050 O.co2  85  GLU85      -0.2457
     56  N         20.4920   -0.7260    9.5020 N.3   109  GLY109     -0.1210
     57  CA        20.0330    0.6280    9.7350 C.3   109  GLY109      0.1956
     58  C         20.1380    1.7060    8.6830 C.2   109  GLY109      0.2612
     59  O         20.0550    2.8830    9.0450 O.2   109  GLY109     -0.2717
     60  N         20.3060    1.3650    7.4070 N.am  110  ASN110     -0.1960
     61  CA        20.3940    2.4290    6.4090 C.3   110  ASN110      0.1819
     62  C         19.0120    2.7600    5.8510 C.2   110  ASN110      0.2621
     63  O         18.1680    1.8850    5.7040 O.2   110  ASN110     -0.2715
     64  CB        21.3550    2.0390    5.2850 C.3   110  ASN110      0.1195
     65  CG        20.8200    0.9310    4.4330 C.2   110  ASN110      0.2630
     66  OD1       20.1160    1.1690    3.4490 O.2   110  ASN110     -0.2716
     67  ND2       21.1400   -0.3020    4.8070 N.am  110  ASN110     -0.0877
     68  N         18.7940    4.0390    5.5620 N.am  111  TYR111     -0.1974
     69  CA        17.5300    4.5350    5.0340 C.3   111  TYR111      0.1639
     70  C         16.8240    3.6390    4.0220 C.2   111  TYR111      0.2290
     71  O         15.6170    3.3730    4.1480 O.2   111  TYR111     -0.2864
     72  CB        17.7230    5.9200    4.4220 C.3   111  TYR111      0.0560
     73  CG        17.9410    7.0020    5.4490 C.ar  111  TYR111     -0.0198
     74  CD1       17.0430    7.1750    6.4940 C.ar  111  TYR111     -0.0009
     75  CD2       19.0080    7.8910    5.3470 C.ar  111  TYR111     -0.0009
     76  CE1       17.1890    8.2000    7.4040 C.ar  111  TYR111      0.0417
     77  CE2       19.1670    8.9280    6.2640 C.ar  111  TYR111      0.0417
     78  CZ        18.2490    9.0750    7.2900 C.ar  111  TYR111      0.1957
     79  OH        18.3770   10.1020    8.2020 O.3   111  TYR111     -0.2866
     80  N         16.1880    8.6580   14.0170 N.3   155  ILE155     -0.1245
     81  CA        17.4520    8.9660   13.3610 C.3   155  ILE155      0.1561
     82  C         17.4980   10.4000   12.8660 C.2   155  ILE155      0.2260
     83  O         18.5480   11.0410   12.9070 O.2   155  ILE155     -0.2867
     84  CB        17.6920    8.0640   12.1190 C.3   155  ILE155      0.0252
     85  CG1       17.9690    6.6270   12.5490 C.3   155  ILE155      0.0019
     86  CG2       18.8360    8.6390   11.2690 C.3   155  ILE155      0.0019
     87  CD1       17.9710    5.6520   11.3900 C.3   155  ILE155      0.0001
     88  N         20.3270   12.3130   15.1570 N.3   159  ALA159     -0.1231
     89  CA        21.5490   12.2730   14.3350 C.3   159  ALA159      0.1694
     90  C         21.6220   13.3190   13.2180 C.2   159  ALA159      0.2591
     91  O         22.5940   14.0640   13.1360 O.2   159  ALA159     -0.2718
     92  CB        21.7230   10.8670   13.7260 C.3   159  ALA159      0.0304
     93  N         20.6010   13.3570   12.3570 N.am  160  GLU160     -0.1979
     94  CA        20.5410   14.3120   11.2470 C.3   160  GLU160      0.1602
     95  C         20.4930   15.7630   11.7120 C.2   160  GLU160      0.2287
     96  O         21.0230   16.6420   11.0490 O.2   160  GLU160     -0.2864
     97  CB        19.3320   14.0210   10.3540 C.3   160  GLU160      0.0415
     98  CG        19.3200   12.6130    9.7900 C.3   160  GLU160      0.1163
     99  CD        20.4740   12.3620    8.8540 C.2   160  GLU160      0.3649
    100  OE1       21.3750   13.2260    8.7810 O.co2 160  GLU160     -0.2457
    101  OE2       20.4780   11.3020    8.1920 O.co2 160  GLU160     -0.2457
    102  N         24.0670   16.8450   12.7420 N.3   163  ARG163     -0.1245
    103  CA        24.9060   17.0920   11.5620 C.3   163  ARG163      0.1563
    104  C         24.5930   18.3630   10.7920 C.2   163  ARG163      0.2260
    105  O         25.4760   18.9170   10.1400 O.2   163  ARG163     -0.2867
    106  CB        24.7830   15.9270   10.5830 C.3   163  ARG163      0.0307
    107  CG        25.0790   14.5910   11.1700 C.3   163  ARG163      0.0489
    108  CD        24.7330   13.5220   10.1780 C.3   163  ARG163      0.2205
    109  NE        25.2260   12.2330   10.6250 N.pl3 163  ARG163     -0.0865
    110  CZ        24.5790   11.0860   10.4560 C.cat 163  ARG163      0.5346
    111  NH1       23.4000   11.0640    9.8470 N.pl3 163  ARG163      0.1354
    112  NH2       25.1190    9.9550   10.8910 N.pl3 163  ARG163      0.1354
@<TRIPOS>BOND
     1    66    65    2
     2    70    71    2
     3    70    69    1
     4    72    69    1
     5    72    73    1
     6    65    67   am
     7    65    64    1
     8    69    68    1
     9    64    61    1
    10    75    73   ar
    11    75    77   ar
    12    73    74   ar
    13    68    62   am
    14    63    62    2
    15    62    61    1
    16    77    78   ar
    17    61    60    1
    18    74    76   ar
    19    19    18    1
    20    78    76   ar
    21    78    79    1
    22    60    58   am
    23   101    99   ar
    24    18    16   ar
    25    18    17   ar
    26    58    59    2
    27    58    57    1
    28   100    99   ar
    29    99    98    1
    30    16    14   ar
    31    17    15   ar
    32    54    53   ar
    33    56    57    1
    34    98    97    1
    35   111   110    1
    36    51    48    1
    37    51    52    1
    38   105   104    2
    39   108   109    1
    40   108   107    1
    41    14    13   ar
    42    97    94    1
    43    48    47    1
    44    48    49    1
    45   110   109    2
    46   110   112    1
    47    53    52    1
    48    53    55   ar
    49   106   107    1
    50   106   103    1
    51    15    13   ar
    52   104   103    1
    53    96    95    2
    54    13    12    1
    55    94    95    1
    56    94    93    1
    57    86    84    1
    58    49    50    2
    59    87    85    1
    60   103   102    1
    61    84    85    1
    62    84    81    1
    63    44    42   ar
    64    44    46   ar
    65    42    41   ar
    66    93    90   am
    67    12     9    1
    68    82    83    2
    69    82    81    1
    70    46    45   ar
    71    41    40    1
    72    41    43   ar
    73    40    37    1
    74    91    90    2
    75    90    89    1
    76    38    37    1
    77    38    39    2
    78    81    80    1
    79     9     8    1
    80     9    10    1
    81    45    43   ar
    82    92    89    1
    83    37    36    1
    84     8     3   am
    85    35    34    1
    86     7     5    1
    87     1     2    1
    88     4     3    2
    89     3     2    1
    90     5     2    1
    91     5     6    1
    92    89    88    1
    93    23    22    2
    94    20    10   am
    95    20    21    1
    96    10    11    2
    97    34    33    1
    98    22    21    1
    99    22    28   am
   100    27    25    1
   101    24    21    1
   102    24    25    1
   103    24    26    1
   104    29    28    1
   105    29    30    1
   106    29    32    1
   107    31    30    2
   108    33    32    1
