@<TRIPOS>MOLECULE
tmp/4f9tA02.pdb
 104 95 0 0 0
SMALL
GASTEIGER

@<TRIPOS>ATOM
      1  N         30.6860    3.1220    8.8540 N.3    38  THR38      -0.1218
      2  CA        29.7570    4.1030    9.4250 C.3    38  THR38       0.1862
      3  C         28.7520    3.3670   10.3270 C.2    38  THR38       0.2287
      4  O         28.2840    2.2740    9.9760 O.2    38  THR38      -0.2866
      5  CB        28.9860    4.8610    8.3230 C.3    38  THR38       0.1770
      6  OG1       29.9160    5.5720    7.4890 O.3    38  THR38      -0.2211
      7  CG2       27.9880    5.8440    8.9240 C.3    38  THR38       0.0375
      8  N         32.1580   15.5810   13.7310 N.3    66  LEU66      -0.1245
      9  CA        31.7250   16.4490   12.6390 C.3    66  LEU66       0.1561
     10  C         32.3700   17.8210   12.6540 C.2    66  LEU66       0.2260
     11  O         33.2890   18.0720   13.4300 O.2    66  LEU66      -0.2867
     12  CB        30.2090   16.6180   12.6570 C.3    66  LEU66       0.0270
     13  CG        29.3020   15.4440   12.3170 C.3    66  LEU66       0.0019
     14  CD1       27.8640   15.9130   12.3790 C.3    66  LEU66       0.0001
     15  CD2       29.6280   14.9050   10.9310 C.3    66  LEU66       0.0001
     16  N         35.8370   17.0560    9.5760 N.3    70  VAL70      -0.1245
     17  CA        35.4710   16.0620    8.5680 C.3    70  VAL70       0.1561
     18  C         35.9720   16.5140    7.2000 C.2    70  VAL70       0.2260
     19  O         35.7190   17.6450    6.7880 O.2    70  VAL70      -0.2867
     20  CB        33.9420   15.8690    8.4720 C.3    70  VAL70       0.0252
     21  CG1       33.5830   14.9900    7.2810 C.3    70  VAL70       0.0019
     22  CG2       33.3920   15.2890    9.7490 C.3    70  VAL70       0.0019
     23  N         36.6320   11.7490    4.4810 N.3   109  ASP109     -0.1225
     24  CA        35.8930   11.1320    5.5910 C.3   109  ASP109      0.1805
     25  C         34.3980   10.9870    5.3140 C.2   109  ASP109      0.2598
     26  O         33.6710   10.3430    6.0760 O.2   109  ASP109     -0.2718
     27  CB        36.0760   11.9780    6.8640 C.3   109  ASP109      0.1424
     28  CG        37.5280   12.2050    7.2080 C.2   109  ASP109      0.3668
     29  OD1       38.2790   11.2080    7.2900 O.co2 109  ASP109     -0.2456
     30  OD2       37.9160   13.3700    7.4210 O.co2 109  ASP109     -0.2456
     31  N         33.9420   11.6190    4.2320 N.am  110  ALA110     -0.1966
     32  CA        32.5330   11.6300    3.8490 C.3   110  ALA110      0.1728
     33  C         32.4660   11.8830    2.3540 C.2   110  ALA110      0.2616
     34  O         33.4100   12.4220    1.7730 O.2   110  ALA110     -0.2715
     35  CB        31.8030   12.7310    4.5950 C.3   110  ALA110      0.0334
     36  N         31.3890   11.4340    1.7130 N.am  111  VAL111     -0.1963
     37  CA        31.2290   11.6100    0.2740 C.3   111  VAL111      0.1727
     38  C         29.8260   12.1430   -0.0470 C.2   111  VAL111      0.2616
     39  O         28.8070   11.6570    0.4790 O.2   111  VAL111     -0.2715
     40  CB        31.4760   10.3020   -0.5180 C.3   111  VAL111      0.0290
     41  CG1       31.4570   10.5690   -2.0130 C.3   111  VAL111      0.0023
     42  CG2       32.8450    9.6850   -0.1450 C.3   111  VAL111      0.0023
     43  N         29.8120   13.2170   -0.8210 N.am  112  VAL112     -0.1977
     44  CA        28.5440   13.7870   -1.3270 C.3   112  VAL112      0.1596
     45  C         28.6330   13.9010   -2.8450 C.2   112  VAL112      0.2287
     46  O         29.7200   14.0330   -3.4070 O.2   112  VAL112     -0.2864
     47  CB        28.1660   15.1330   -0.6590 C.3   112  VAL112      0.0276
     48  CG1       28.0070   14.9340    0.8500 C.3   112  VAL112      0.0022
     49  CG2       29.1290   16.2620   -1.0440 C.3   112  VAL112      0.0022
     50  N         29.9330    2.4960    4.3050 N.3   133  GLY133     -0.1210
     51  CA        28.7980    3.3910    4.6280 C.3   133  GLY133      0.1956
     52  C         29.0590    4.7930    4.0800 C.2   133  GLY133      0.2611
     53  O         28.5560    5.7820    4.6140 O.2   133  GLY133     -0.2717
     54  N         29.8240    4.8620    2.9810 N.am  134  LEU134     -0.1979
     55  CA        30.2170    6.1300    2.3590 C.3   134  LEU134      0.1596
     56  C         29.5700    6.3600    0.9950 C.2   134  LEU134      0.2287
     57  O         29.9510    7.2900    0.2810 O.2   134  LEU134     -0.2864
     58  CB        31.7490    6.1720    2.1700 C.3   134  LEU134      0.0297
     59  CG        32.6320    6.2050    3.4100 C.3   134  LEU134      0.0022
     60  CD1       34.0890    6.0650    2.9980 C.3   134  LEU134      0.0001
     61  CD2       32.4340    7.4860    4.1870 C.3   134  LEU134      0.0001
     62  N         22.5490   12.9130    0.8560 N.3   142  THR142     -0.1218
     63  CA        23.9590   13.0490    0.4480 C.3   142  THR142      0.1862
     64  C         24.1270   13.1210   -1.0740 C.2   142  THR142      0.2287
     65  O         25.2510   13.3390   -1.5760 O.2   142  THR142     -0.2866
     66  CB        24.8220   11.9540    1.0920 C.3   142  THR142      0.1770
     67  OG1       24.1630   10.6880    0.9410 O.3   142  THR142     -0.2211
     68  CG2       25.0000   12.2340    2.5890 C.3   142  THR142      0.0375
     69  N         26.9440   19.7080    6.3550 N.3   154  ILE154     -0.1245
     70  CA        27.8950   18.7860    7.0110 C.3   154  ILE154      0.1561
     71  C         28.9910   19.5970    7.7010 C.2   154  ILE154      0.2260
     72  O         29.3560   19.3160    8.8500 O.2   154  ILE154     -0.2867
     73  CB        28.5900   17.8620    5.9910 C.3   154  ILE154      0.0252
     74  CG1       27.5690   16.9970    5.2720 C.3   154  ILE154      0.0019
     75  CG2       29.6960   17.0090    6.6860 C.3   154  ILE154      0.0019
     76  CD1       28.1350   16.2220    4.1100 C.3   154  ILE154      0.0001
     77  N         23.6300   16.5300   10.6680 N.3   159  ILE159     -0.1245
     78  CA        23.2220   15.3240    9.9250 C.3   159  ILE159      0.1561
     79  C         21.6900   15.3400    9.7990 C.2   159  ILE159      0.2260
     80  O         20.9930   15.6100   10.7860 O.2   159  ILE159     -0.2867
     81  CB        23.6980   14.0410   10.6710 C.3   159  ILE159      0.0252
     82  CG1       25.2360   13.9590   10.7330 C.3   159  ILE159      0.0019
     83  CG2       23.1030   12.7910   10.0320 C.3   159  ILE159      0.0019
     84  CD1       25.9080   13.9330    9.3800 C.3   159  ILE159      0.0001
     85  N         23.3480    8.2830   10.3150 N.3   172  PRO172     -0.2116
     86  CA        24.7040    7.9090   10.7590 C.3   172  PRO172      0.1372
     87  C         25.0560    8.6820   12.0190 C.2   172  PRO172      0.2244
     88  O         24.6670    9.8730   12.1590 O.2   172  PRO172     -0.2868
     89  CB        25.5840    8.3390    9.5950 C.3   172  PRO172      0.0268
     90  CG        24.8400    9.4150    8.8740 C.3   172  PRO172      0.0207
     91  CD        23.3300    9.0940    9.0850 C.3   172  PRO172      0.0892
     92  N         28.3430    7.9610   13.6470 N.3   174  GLY174     -0.1210
     93  CA        29.8070    7.9300   13.8650 C.3   174  GLY174      0.1956
     94  C         30.4380    6.8140   13.0680 C.2   174  GLY174      0.2611
     95  O         29.8690    6.3270   12.0900 O.2   174  GLY174     -0.2717
     96  N         31.6580    6.4410   13.4450 N.am  175  LYS175     -0.1979
     97  CA        32.3330    5.3640   12.7810 C.3   175  LYS175      0.1596
     98  C         32.6390    4.3060   13.8160 C.2   175  LYS175      0.2287
     99  O         32.7050    4.6010   15.0190 O.2   175  LYS175     -0.2864
    100  CB        33.6460    5.8890   12.1800 C.3   175  LYS175      0.0298
    101  CG        33.4610    7.0420   11.2050 C.3   175  LYS175      0.0038
    102  CD        32.8780    6.5680    9.8830 C.3   175  LYS175      0.0206
    103  CE        32.8820    7.7070    8.8640 C.3   175  LYS175      0.1093
    104  NZ        32.2480    7.3270    7.5650 N.3   175  LYS175     -0.1314
@<TRIPOS>BOND
     1    46    45    2
     2    45    44    1
     3    41    40    1
     4    65    64    2
     5    44    43    1
     6    44    47    1
     7    64    63    1
     8    49    47    1
     9    43    38   am
    10    47    48    1
    11    40    42    1
    12    40    37    1
    13    38    37    1
    14    38    39    2
    15    37    36    1
    16    57    56    2
    17    63    62    1
    18    63    66    1
    19    67    66    1
    20    56    55    1
    21    66    68    1
    22    36    33   am
    23    34    33    2
    24    58    55    1
    25    58    59    1
    26    33    32    1
    27    55    54    1
    28    54    52   am
    29    60    59    1
    30    59    61    1
    31    32    31    1
    32    32    35    1
    33    52    53    2
    34    52    51    1
    35    76    74    1
    36    31    25   am
    37    50    51    1
    38    23    24    1
    39    74    73    1
    40    25    24    1
    41    25    26    2
    42    24    27    1
    43    73    75    1
    44    73    70    1
    45    69    70    1
    46    19    18    2
    47    27    28    1
    48    70    71    1
    49    18    17    1
    50    28    29   ar
    51    28    30   ar
    52    21    20    1
    53     6     5    1
    54   104   103    1
    55    71    72    2
    56     5     7    1
    57     5     2    1
    58    20    17    1
    59    20    22    1
    60    17    16    1
    61     1     2    1
    62   103   102    1
    63    90    91    1
    64    90    89    1
    65    91    85    1
    66    84    82    1
    67     2     3    1
    68    89    86    1
    69    79    78    1
    70    79    80    2
    71   102   101    1
    72    78    77    1
    73    78    81    1
    74     4     3    2
    75    83    81    1
    76    85    86    1
    77    81    82    1
    78    86    87    1
    79    15    13    1
    80   101   100    1
    81    87    88    2
    82    95    94    2
    83   100    97    1
    84    13    14    1
    85    13    12    1
    86     9    10    1
    87     9    12    1
    88     9     8    1
    89    10    11    2
    90    97    96    1
    91    97    98    1
    92    94    96   am
    93    94    93    1
    94    92    93    1
    95    98    99    2
