@<TRIPOS>MOLECULE
tmp/4f9uB01.pdb
 103 102 0 0 0
SMALL
GASTEIGER

@<TRIPOS>ATOM
      1  N        -24.3920  -15.7430  -13.7190 N.3     7  GLU7       -0.1231
      2  CA       -23.4130  -16.3800  -14.5720 C.3     7  GLU7        0.1699
      3  C        -23.8070  -16.2650  -16.0480 C.2     7  GLU7        0.2592
      4  O        -22.9550  -16.2950  -16.9070 O.2     7  GLU7       -0.2718
      5  CB       -23.1970  -17.8380  -14.1980 C.3     7  GLU7        0.0402
      6  CG       -21.9900  -18.4290  -14.8970 C.3     7  GLU7        0.1161
      7  CD       -21.5120  -19.7350  -14.3000 C.2     7  GLU7        0.3649
      8  OE1      -20.4900  -19.7270  -13.5880 O.co2   7  GLU7       -0.2457
      9  OE2      -22.1440  -20.7760  -14.5640 O.co2   7  GLU7       -0.2457
     10  N        -25.0920  -16.1330  -16.3370 N.am    8  VAL8       -0.1980
     11  CA       -25.5110  -15.9110  -17.7190 C.3     8  VAL8        0.1595
     12  C        -24.8950  -14.5990  -18.2400 C.2     8  VAL8        0.2287
     13  O        -24.2460  -14.5680  -19.3020 O.2     8  VAL8       -0.2864
     14  CB       -27.0480  -15.9020  -17.8380 C.3     8  VAL8        0.0276
     15  CG1      -27.4850  -15.2310  -19.1370 C.3     8  VAL8        0.0022
     16  CG2      -27.5720  -17.3420  -17.7740 C.3     8  VAL8        0.0022
     17  N        -21.0370  -15.0750  -18.5970 N.3    11  ASN11      -0.1240
     18  CA       -20.6680  -15.8760  -19.7550 C.3    11  ASN11       0.1653
     19  C        -20.8130  -15.1000  -21.0610 C.2    11  ASN11       0.2266
     20  O        -19.9410  -15.2110  -21.9310 O.2    11  ASN11      -0.2867
     21  CB       -21.5090  -17.1650  -19.7950 C.3    11  ASN11       0.1155
     22  CG       -20.9430  -18.2690  -18.9180 C.2    11  ASN11       0.2627
     23  OD1      -20.0090  -18.0750  -18.1380 O.2    11  ASN11      -0.2716
     24  ND2      -21.5110  -19.4660  -19.0750 N.am   11  ASN11      -0.0877
     25  N         -7.3030  -22.3600  -12.4720 N.3   187  ARG187     -0.1245
     26  CA        -7.7410  -23.1160  -11.3050 C.3   187  ARG187      0.1563
     27  C         -6.9530  -22.7400  -10.0460 C.2   187  ARG187      0.2260
     28  O         -5.7260  -22.6900  -10.0460 O.2   187  ARG187     -0.2867
     29  CB        -7.5980  -24.6140  -11.5910 C.3   187  ARG187      0.0307
     30  CG        -8.0210  -25.5190  -10.4440 C.3   187  ARG187      0.0489
     31  CD        -7.5680  -26.9410  -10.7330 C.3   187  ARG187      0.2205
     32  NE        -7.8790  -27.8050   -9.5940 N.pl3 187  ARG187     -0.0865
     33  CZ        -7.0120  -28.1900   -8.6580 C.cat 187  ARG187      0.5346
     34  NH1       -5.7390  -27.8070   -8.7020 N.pl3 187  ARG187      0.1354
     35  NH2       -7.4350  -28.9730   -7.6610 N.pl3 187  ARG187      0.1354
     36  N        -10.2650  -20.1800  -23.5080 N.3   267  ALA267     -0.1231
     37  CA       -11.4450  -20.4900  -22.7170 C.3   267  ALA267      0.1694
     38  C        -11.4290  -21.9000  -22.1280 C.2   267  ALA267      0.2592
     39  O        -11.9490  -22.1160  -21.0390 O.2   267  ALA267     -0.2718
     40  CB       -12.7180  -20.2940  -23.5200 C.3   267  ALA267      0.0304
     41  N        -10.8650  -22.8370  -22.8780 N.am  268  ALA268     -0.1966
     42  CA       -10.8670  -24.2660  -22.5150 C.3   268  ALA268      0.1728
     43  C        -10.1340  -24.5020  -21.2290 C.2   268  ALA268      0.2616
     44  O        -10.4900  -25.4120  -20.4870 O.2   268  ALA268     -0.2715
     45  CB       -10.2470  -25.0960  -23.6240 C.3   268  ALA268      0.0334
     46  N         -9.1070  -23.6920  -20.9660 N.am  269  ASN269     -0.1958
     47  CA        -8.3220  -23.7770  -19.7380 C.3   269  ASN269      0.1819
     48  C         -8.7840  -22.9540  -18.5350 C.2   269  ASN269      0.2621
     49  O         -8.1470  -22.9850  -17.4860 O.2   269  ASN269     -0.2715
     50  CB        -6.8600  -23.5410  -20.0510 C.3   269  ASN269      0.1195
     51  CG        -6.2860  -24.6870  -20.8590 C.2   269  ASN269      0.2630
     52  OD1       -6.4680  -25.8350  -20.4770 O.2   269  ASN269     -0.2716
     53  ND2       -5.6970  -24.3990  -22.0060 N.am  269  ASN269     -0.0877
     54  N         -9.9030  -22.2620  -18.6710 N.am  270  LEU270     -0.1963
     55  CA       -10.4820  -21.5330  -17.5660 C.3   270  LEU270      0.1728
     56  C        -11.1320  -22.5430  -16.6140 C.2   270  LEU270      0.2616
     57  O        -11.5580  -23.6330  -17.0440 O.2   270  LEU270     -0.2715
     58  CB       -11.5120  -20.5240  -18.0480 C.3   270  LEU270      0.0311
     59  CG       -10.9770  -19.3630  -18.8990 C.3   270  LEU270      0.0022
     60  CD1      -12.1750  -18.4940  -19.2930 C.3   270  LEU270      0.0001
     61  CD2       -9.8750  -18.5630  -18.1680 C.3   270  LEU270      0.0001
     62  N        -11.1720  -22.1660  -15.3360 N.am  271  HIS271     -0.1959
     63  CA       -11.8010  -22.9280  -14.2630 C.3   271  HIS271      0.1787
     64  C        -12.9220  -22.1400  -13.6570 C.2   271  HIS271      0.2620
     65  O        -12.6960  -21.2260  -12.8510 O.2   271  HIS271     -0.2715
     66  CB       -10.7340  -23.2800  -13.2250 C.3   271  HIS271      0.0785
     67  CG       -11.1700  -24.2990  -12.2090 C.ar  271  HIS271      0.0821
     68  ND1      -11.4710  -23.9700  -10.9510 N.ar  271  HIS271     -0.2267
     69  CD2      -11.3180  -25.6760  -12.3000 C.ar  271  HIS271      0.1154
     70  CE1      -11.8110  -25.0820  -10.2650 C.ar  271  HIS271      0.1986
     71  NE2      -11.7080  -26.1210  -11.0880 N.ar  271  HIS271     -0.2212
     72  N        -14.1470  -22.4700  -14.0660 N.am  272  TRP272     -0.1960
     73  CA       -15.3460  -21.7650  -13.6470 C.3   272  TRP272      0.1756
     74  C        -15.6510  -21.7420  -12.1670 C.2   272  TRP272      0.2461
     75  O        -16.1170  -20.7130  -11.6790 O.2   272  TRP272     -0.2730
     76  CB       -16.5820  -22.2490  -14.4450 C.3   272  TRP272      0.0590
     77  CG       -16.9360  -21.2880  -15.5410 C.ar  272  TRP272      0.0006
     78  CD1      -17.9190  -20.3350  -15.5270 C.ar  272  TRP272      0.0946
     79  CD2      -16.2780  -21.1300  -16.8260 C.ar  272  TRP272      0.0152
     80  NE1      -17.9240  -19.6140  -16.6830 N.ar  272  TRP272     -0.2442
     81  CE2      -16.9740  -20.0490  -17.5110 C.ar  272  TRP272      0.0810
     82  CE3      -15.2570  -21.7810  -17.4730 C.ar  272  TRP272      0.0012
     83  CZ2      -16.6120  -19.6200  -18.7700 C.ar  272  TRP272      0.0191
     84  CZ3      -14.8840  -21.3330  -18.7450 C.ar  272  TRP272      0.0001
     85  CH2      -15.5460  -20.2700  -19.3750 C.ar  272  TRP272      0.0015
     86  N        -15.4070  -22.8530  -11.4250 N.am  273  PRO273     -0.2727
     87  CA       -15.6240  -22.7340   -9.9790 C.3   273  PRO273      0.1402
     88  C        -14.7400  -21.6730   -9.3110 C.2   273  PRO273      0.2269
     89  O        -15.1970  -20.9680   -8.4170 O.2   273  PRO273     -0.2865
     90  CB       -15.2930  -24.1390   -9.4530 C.3   273  PRO273      0.0296
     91  CG       -15.4920  -25.0430  -10.6390 C.3   273  PRO273      0.0237
     92  CD       -15.0110  -24.2200  -11.8070 C.3   273  PRO273      0.0939
     93  N        -16.1860  -18.3400  -10.2290 N.3   276  ARG276     -0.1245
     94  CA       -17.3820  -18.1280   -9.4360 C.3   276  ARG276      0.1563
     95  C        -17.0710  -17.7000   -7.9990 C.2   276  ARG276      0.2260
     96  O        -17.6750  -16.7750   -7.4910 O.2   276  ARG276     -0.2867
     97  CB       -18.2850  -19.3570   -9.4700 C.3   276  ARG276      0.0307
     98  CG       -19.0660  -19.4600  -10.7700 C.3   276  ARG276      0.0489
     99  CD       -20.2190  -20.4280  -10.6240 C.3   276  ARG276      0.2205
    100  NE       -19.7300  -21.7850  -10.5320 N.pl3 276  ARG276     -0.0865
    101  CZ       -19.5860  -22.6150  -11.5560 C.cat 276  ARG276      0.5346
    102  NH1      -19.1170  -23.8340  -11.3400 N.pl3 276  ARG276      0.1354
    103  NH2      -19.8770  -22.2390  -12.7890 N.pl3 276  ARG276      0.1354
@<TRIPOS>BOND
     1    45    42    1
     2    40    37    1
     3    36    37    1
     4    41    42    1
     5    41    38   am
     6    37    38    1
     7    42    43    1
     8    38    39    2
     9    53    51   am
    10    20    19    2
    11    43    46   am
    12    43    44    2
    13    19    18    1
    14    46    47    1
    15    51    52    2
    16    51    50    1
    17    50    47    1
    18    21    18    1
    19    21    22    1
    20    18    17    1
    21    47    48    1
    22    85    83   ar
    23    85    84   ar
    24    13    12    2
    25    60    59    1
    26    15    14    1
    27    24    22   am
    28    22    23    2
    29    59    61    1
    30    59    58    1
    31    83    81   ar
    32    84    82   ar
    33    54    48   am
    34    54    55    1
    35    48    49    2
    36    12    11    1
    37    58    55    1
    38    14    16    1
    39    14    11    1
    40    11    10    1
    41    55    56    1
    42    81    79   ar
    43    81    80   ar
    44    82    79   ar
    45    57    56    2
    46     4     3    2
    47    79    77   ar
    48    80    78   ar
    49    56    62   am
    50    10     3   am
    51     3     2    1
    52    77    78   ar
    53    77    76    1
    54    62    63    1
    55     6     7    1
    56     6     5    1
    57     2     5    1
    58     2     1    1
    59     9     7   ar
    60    76    73    1
    61     7     8   ar
    62    63    64    1
    63    63    66    1
    64    72    64   am
    65    72    73    1
    66    64    65    2
    67    73    74    1
    68    66    67    1
    69   103   101    1
    70    25    26    1
    71    69    67   ar
    72    69    71   ar
    73    67    68   ar
    74    74    75    2
    75    74    86   am
    76    92    86    1
    77    92    91    1
    78    29    26    1
    79    29    30    1
    80   101   102    1
    81   101   100    2
    82    86    87    1
    83    26    27    1
    84    71    70   ar
    85    68    70   ar
    86    98    99    1
    87    98    97    1
    88    31    30    1
    89    31    32    1
    90    91    90    1
    91    99   100    1
    92    93    94    1
    93    27    28    2
    94    87    90    1
    95    87    88    1
    96    32    33    2
    97    97    94    1
    98    94    95    1
    99    88    89    2
   100    34    33    1
   101    33    35    1
   102    95    96    2
