@<TRIPOS>MOLECULE
tmp/4f9vA00.pdb
 147 148 0 0 0
SMALL
GASTEIGER

@<TRIPOS>ATOM
      1  N          4.2970  127.9640  -18.6880 N.3   102  ASP102     -0.1239
      2  CA         4.6210  128.3560  -17.3380 C.3   102  ASP102      0.1674
      3  C          3.6000  127.7730  -16.3570 C.2   102  ASP102      0.2266
      4  O          2.7540  128.5230  -15.8140 O.2   102  ASP102     -0.2867
      5  CB         4.5510  129.8790  -17.3180 C.3   102  ASP102      0.1410
      6  CG         4.9950  130.4950  -16.0030 C.2   102  ASP102      0.3668
      7  OD1        5.5150  129.7950  -15.0990 O.co2 102  ASP102     -0.2456
      8  OD2        4.8140  131.7160  -15.8920 O.co2 102  ASP102     -0.2456
      9  N          4.6580  127.9330   -6.8950 N.3   141  GLU141     -0.1231
     10  CA         5.8380  128.5900   -7.3560 C.3   141  GLU141      0.1699
     11  C          5.5940  130.0990   -7.5030 C.2   141  GLU141      0.2592
     12  O          6.4930  130.9110   -7.2020 O.2   141  GLU141     -0.2718
     13  CB         6.2950  128.0230   -8.6950 C.3   141  GLU141      0.0402
     14  CG         7.5700  128.6920   -9.1950 C.3   141  GLU141      0.1161
     15  CD         7.3570  129.7910  -10.2550 C.2   141  GLU141      0.3649
     16  OE1        6.2300  130.2630  -10.4310 O.co2 141  GLU141     -0.2457
     17  OE2        8.3360  130.1570  -10.9170 O.co2 141  GLU141     -0.2457
     18  N          4.3900  130.4430   -7.9670 N.am  142  GLU142     -0.1979
     19  CA         4.0860  131.7900   -8.3880 C.3   142  GLU142      0.1602
     20  C          3.7080  132.6280   -7.2250 C.2   142  GLU142      0.2287
     21  O          2.9520  132.2100   -6.3440 O.2   142  GLU142     -0.2864
     22  CB         2.9410  131.8470   -9.4130 C.3   142  GLU142      0.0415
     23  CG         3.2030  131.2170  -10.7500 C.3   142  GLU142      0.1163
     24  CD         4.0260  132.0390  -11.7080 C.2   142  GLU142      0.3649
     25  OE1        4.6250  133.0610  -11.2810 O.co2 142  GLU142     -0.2457
     26  OE2        4.0840  131.6470  -12.9080 O.co2 142  GLU142     -0.2457
     27  N          6.3040  139.1660   -6.8000 N.3   147  TRP147     -0.1241
     28  CA         7.4130  138.2830   -6.5630 C.3   147  TRP147      0.1605
     29  C          8.4780  138.8810   -5.6620 C.2   147  TRP147      0.2264
     30  O          9.1240  139.8570   -6.0120 O.2   147  TRP147     -0.2867
     31  CB         8.0670  137.8520   -7.8850 C.3   147  TRP147      0.0550
     32  CG         9.1120  136.7530   -7.7200 C.ar  147  TRP147      0.0003
     33  CD1       10.4150  136.9000   -7.2820 C.ar  147  TRP147      0.0946
     34  CD2        8.9640  135.3700   -8.0500 C.ar  147  TRP147      0.0152
     35  NE1       11.0690  135.6960   -7.3180 N.ar  147  TRP147     -0.2442
     36  CE2       10.2030  134.7370   -7.7800 C.ar  147  TRP147      0.0810
     37  CE3        7.9000  134.5940   -8.5270 C.ar  147  TRP147      0.0012
     38  CZ2       10.3980  133.3630   -7.9620 C.ar  147  TRP147      0.0191
     39  CZ3        8.0940  133.2280   -8.6950 C.ar  147  TRP147      0.0001
     40  CH2        9.3420  132.6330   -8.4390 C.ar  147  TRP147      0.0015
     41  N         11.2790  125.0410  -16.8530 N.3   189  ASP189     -0.1225
     42  CA        10.3840  126.1790  -16.7420 C.3   189  ASP189      0.1805
     43  C         10.3990  126.9640  -18.0440 C.2   189  ASP189      0.2597
     44  O         11.4150  127.0370  -18.7170 O.2   189  ASP189     -0.2718
     45  CB        10.8240  127.0730  -15.5810 C.3   189  ASP189      0.1424
     46  CG         9.7030  127.9400  -15.0380 C.2   189  ASP189      0.3668
     47  OD1        8.6140  127.9590  -15.6290 O.co2 189  ASP189     -0.2456
     48  OD2        9.8960  128.6060  -13.9930 O.co2 189  ASP189     -0.2456
     49  N          9.2390  127.4940  -18.4100 N.am  190  LEU190     -0.1979
     50  CA         9.1110  128.3880  -19.5610 C.3   190  LEU190      0.1596
     51  C          9.5240  127.7070  -20.8580 C.2   190  LEU190      0.2287
     52  O         10.3920  128.1800  -21.5850 O.2   190  LEU190     -0.2864
     53  CB         9.9010  129.6770  -19.3300 C.3   190  LEU190      0.0297
     54  CG         9.5450  130.4290  -18.0600 C.3   190  LEU190      0.0022
     55  CD1       10.2530  131.8030  -18.0770 C.3   190  LEU190      0.0001
     56  CD2        8.0600  130.5840  -17.8950 C.3   190  LEU190      0.0001
     57  N         22.2030  136.9430  -16.3510 N.3   239  GLY239     -0.1210
     58  CA        21.9400  136.8300  -14.9440 C.3   239  GLY239      0.1956
     59  C         21.1120  135.6090  -14.6050 C.2   239  GLY239      0.2612
     60  O         20.4970  134.9570  -15.4730 O.2   239  GLY239     -0.2717
     61  N         21.0860  135.3320  -13.3140 N.am  240  LEU240     -0.1965
     62  CA        20.4060  134.2010  -12.7720 C.3   240  LEU240      0.1728
     63  C         18.9220  134.4840  -12.7740 C.2   240  LEU240      0.2616
     64  O         18.5010  135.6240  -12.7630 O.2   240  LEU240     -0.2715
     65  CB        20.8980  133.9410  -11.3360 C.3   240  LEU240      0.0311
     66  CG        22.3990  133.6550  -11.2070 C.3   240  LEU240      0.0022
     67  CD1       22.8330  133.4190   -9.7160 C.3   240  LEU240      0.0001
     68  CD2       22.7930  132.4780  -12.0970 C.3   240  LEU240      0.0001
     69  N         18.1290  133.4280  -12.7620 N.am  241  VAL241     -0.1963
     70  CA        16.6820  133.5560  -12.7570 C.3   241  VAL241      0.1727
     71  C         16.1580  132.9140  -11.4930 C.2   241  VAL241      0.2616
     72  O         16.3650  131.7200  -11.2600 O.2   241  VAL241     -0.2715
     73  CB        16.0920  132.8700  -14.0410 C.3   241  VAL241      0.0290
     74  CG1       14.5450  132.8130  -14.0050 C.3   241  VAL241      0.0023
     75  CG2       16.6640  133.5500  -15.3230 C.3   241  VAL241      0.0023
     76  N         15.4480  133.6780  -10.6780 N.am  242  ASP242     -0.1957
     77  CA        14.8680  133.1160   -9.4630 C.3   242  ASP242      0.1840
     78  C         13.7210  132.1420   -9.8000 C.2   242  ASP242      0.2622
     79  O         12.9480  132.3780  -10.7360 O.2   242  ASP242     -0.2715
     80  CB        14.3890  134.2370   -8.5330 C.3   242  ASP242      0.1450
     81  CG        14.1480  133.7630   -7.1190 C.2   242  ASP242      0.3671
     82  OD1       14.7410  132.7460   -6.7100 O.co2 242  ASP242     -0.2456
     83  OD2       13.3570  134.4010   -6.3940 O.co2 242  ASP242     -0.2456
     84  N         13.6000  131.0640   -9.0200 N.am  243  ASP243     -0.1971
     85  CA        12.6870  129.9560   -9.3280 C.3   243  ASP243      0.1709
     86  C         12.6650  128.9330   -8.1630 C.2   243  ASP243      0.2293
     87  O         13.3410  129.1150   -7.1320 O.2   243  ASP243     -0.2864
     88  CB        13.1330  129.2410  -10.6240 C.3   243  ASP243      0.1436
     89  CG        11.9470  128.7300  -11.4890 C.2   243  ASP243      0.3671
     90  OD1       10.8270  128.5920  -10.9620 O.co2 243  ASP243     -0.2456
     91  OD2       12.1640  128.4780  -12.7030 O.co2 243  ASP243     -0.2456
     92  N         15.8800  131.5710  -21.8670 N.3   261  THR261     -0.1204
     93  CA        16.1960  132.9890  -21.7630 C.3   261  THR261      0.1979
     94  C         16.6560  133.4420  -23.1230 C.2   261  THR261      0.2460
     95  O         17.5440  132.8300  -23.6840 O.2   261  THR261     -0.2732
     96  CB        17.2920  133.2790  -20.7010 C.3   261  THR261      0.1783
     97  OG1       18.4500  132.4860  -20.9570 O.3   261  THR261     -0.2211
     98  CG2       16.7770  132.9900  -19.3330 C.3   261  THR261      0.0376
     99  N         16.0020  134.4830  -23.7010 N.am  262  PRO262     -0.2717
    100  CA        14.8640  135.2130  -23.1740 C.3   262  PRO262      0.1535
    101  C         13.6420  134.3520  -22.8700 C.2   262  PRO262      0.2598
    102  O         13.4590  133.2810  -23.4480 O.2   262  PRO262     -0.2715
    103  CB        14.5390  136.2310  -24.3020 C.3   262  PRO262      0.0310
    104  CG        15.0830  135.5850  -25.5440 C.3   262  PRO262      0.0237
    105  CD        16.3790  134.9770  -25.0400 C.3   262  PRO262      0.0939
    106  N         12.8240  134.8570  -21.9550 N.am  263  PHE263     -0.1961
    107  CA        11.5660  134.2750  -21.6340 C.3   263  PHE263      0.1756
    108  C         10.6950  134.3420  -22.8760 C.2   263  PHE263      0.2461
    109  O         10.8830  135.2030  -23.7530 O.2   263  PHE263     -0.2730
    110  CB        10.8900  135.0560  -20.5220 C.3   263  PHE263      0.0574
    111  CG        11.4680  134.8490  -19.1490 C.ar  263  PHE263     -0.0200
    112  CD1       12.6880  134.2120  -18.9330 C.ar  263  PHE263     -0.0042
    113  CD2       10.7870  135.3350  -18.0610 C.ar  263  PHE263     -0.0042
    114  CE1       13.1650  134.0450  -17.6490 C.ar  263  PHE263     -0.0003
    115  CE2       11.2660  135.1810  -16.7890 C.ar  263  PHE263     -0.0003
    116  CZ        12.4700  134.5300  -16.5890 C.ar  263  PHE263     -0.0000
    117  N          9.7360  133.4270  -22.9710 N.am  264  PRO264     -0.2727
    118  CA         8.7740  133.5130  -24.0400 C.3   264  PRO264      0.1402
    119  C          8.1490  134.9090  -24.1150 C.2   264  PRO264      0.2269
    120  O          7.8230  135.5120  -23.0840 O.2   264  PRO264     -0.2865
    121  CB         7.7290  132.4820  -23.6400 C.3   264  PRO264      0.0296
    122  CG         8.4240  131.5300  -22.7690 C.3   264  PRO264      0.0237
    123  CD         9.4950  132.2780  -22.0820 C.3   264  PRO264      0.0939
    124  N          5.1550  135.5660  -21.8370 N.3   267  TRP267     -0.1227
    125  CA         5.2890  135.3800  -20.3830 C.3   267  TRP267      0.1737
    126  C          4.3850  136.3180  -19.6100 C.2   267  TRP267      0.2595
    127  O          4.3930  137.5260  -19.8320 O.2   267  TRP267     -0.2718
    128  CB         6.7550  135.5810  -19.9530 C.3   267  TRP267      0.0564
    129  CG         7.0390  135.3430  -18.5110 C.ar  267  TRP267      0.0003
    130  CD1        7.0790  134.1250  -17.8700 C.ar  267  TRP267      0.0946
    131  CD2        7.3400  136.3330  -17.5120 C.ar  267  TRP267      0.0152
    132  NE1        7.3950  134.3010  -16.5540 N.ar  267  TRP267     -0.2442
    133  CE2        7.5310  135.6430  -16.2920 C.ar  267  TRP267      0.0810
    134  CE3        7.4240  137.7390  -17.5210 C.ar  267  TRP267      0.0012
    135  CZ2        7.8380  136.2990  -15.0920 C.ar  267  TRP267      0.0191
    136  CZ3        7.7310  138.4020  -16.3250 C.ar  267  TRP267      0.0001
    137  CH2        7.9410  137.6750  -15.1200 C.ar  267  TRP267      0.0015
    138  N          3.5960  135.7420  -18.7040 N.am  268  HIS268     -0.1975
    139  CA         2.7300  136.4810  -17.7830 C.3   268  HIS268      0.1656
    140  C          1.7830  137.4580  -18.4770 C.2   268  HIS268      0.2291
    141  O          1.5430  138.5680  -17.9900 O.2   268  HIS268     -0.2864
    142  CB         3.5930  137.1900  -16.7190 C.3   268  HIS268      0.0771
    143  CG         4.1250  136.2620  -15.6710 C.ar  268  HIS268      0.0820
    144  ND1        4.6220  136.7010  -14.4660 N.ar  268  HIS268     -0.2267
    145  CD2        4.2220  134.9080  -15.6500 C.ar  268  HIS268      0.1154
    146  CE1        5.0140  135.6620  -13.7510 C.ar  268  HIS268      0.1986
    147  NE2        4.7870  134.5630  -14.4480 N.ar  268  HIS268     -0.2212
@<TRIPOS>BOND
     1   104   105    1
     2   104   103    1
     3   105    99    1
     4   103   100    1
     5   119   118    1
     6   119   120    2
     7   118   121    1
     8   118   117    1
     9   109   108    2
    10    99   100    1
    11    99    94   am
    12    95    94    2
    13   121   122    1
    14   102   101    2
    15   100   101    1
    16    94    93    1
    17   117   108   am
    18   117   123    1
    19   108   107    1
    20   101   106   am
    21   122   123    1
    22   106   107    1
    23    92    93    1
    24   124   125    1
    25    93    96    1
    26   107   110    1
    27    52    51    2
    28    97    96    1
    29    51    50    1
    30    96    98    1
    31   110   111    1
    32   125   128    1
    33   125   126    1
    34   128   129    1
    35   127   126    2
    36   126   138   am
    37    50    53    1
    38    50    49    1
    39    53    54    1
    40   111   112   ar
    41   111   113   ar
    42   112   114   ar
    43    44    43    2
    44   138   139    1
    45     1     2    1
    46   129   130   ar
    47   129   131   ar
    48   140   141    2
    49   140   139    1
    50    49    43   am
    51    55    54    1
    52   113   115   ar
    53    54    56    1
    54    43    42    1
    55   130   132   ar
    56   139   142    1
    57   114   116   ar
    58   134   131   ar
    59   134   136   ar
    60   131   133   ar
    61     2     5    1
    62     2     3    1
    63     5     6    1
    64    41    42    1
    65   115   116   ar
    66    42    45    1
    67   142   143    1
    68   132   133   ar
    69     3     4    2
    70    57    58    1
    71   136   137   ar
    72   133   135   ar
    73     6     8   ar
    74     6     7   ar
    75   143   145   ar
    76   143   144   ar
    77   145   147   ar
    78    47    46   ar
    79    45    46    1
    80    60    59    2
    81    75    73    1
    82   137   135   ar
    83    46    48   ar
    84    58    59    1
    85    59    61   am
    86   144   146   ar
    87   147   146   ar
    88    73    74    1
    89    73    70    1
    90    61    62    1
    91    26    24   ar
    92    63    62    1
    93    63    64    2
    94    63    69   am
    95    62    65    1
    96    69    70    1
    97    70    71    1
    98    91    89   ar
    99    68    66    1
   100    24    25   ar
   101    24    23    1
   102    71    72    2
   103    71    76   am
   104    89    90   ar
   105    89    88    1
   106    65    66    1
   107    66    67    1
   108    17    15   ar
   109    23    22    1
   110    79    78    2
   111    76    77    1
   112    88    85    1
   113    16    15   ar
   114    15    14    1
   115    78    77    1
   116    78    84   am
   117    77    80    1
   118    22    19    1
   119    85    84    1
   120    85    86    1
   121    14    13    1
   122    13    10    1
   123    39    37   ar
   124    39    40   ar
   125    80    81    1
   126    37    34   ar
   127    40    38   ar
   128    19    18    1
   129    19    20    1
   130    86    87    2
   131    34    36   ar
   132    34    32   ar
   133    18    11   am
   134    38    36   ar
   135    31    32    1
   136    31    28    1
   137    36    35   ar
   138    32    33   ar
   139    11    10    1
   140    11    12    2
   141    10     9    1
   142    35    33   ar
   143    20    21    2
   144    81    82   ar
   145    81    83   ar
   146    27    28    1
   147    28    29    1
   148    30    29    2
