@<TRIPOS>MOLECULE
tmp/4f9yA01.pdb
 79 75 0 0 0
SMALL
GASTEIGER

@<TRIPOS>ATOM
      1  N         18.2760   16.4400   16.6650 N.3   180  MET180     -0.1230
      2  CA        18.4840   17.5310   17.6280 C.3   180  MET180      0.1702
      3  C         19.0420   18.7590   16.9010 C.2   180  MET180      0.2592
      4  O         18.6900   19.9090   17.2370 O.2   180  MET180     -0.2718
      5  CB        19.4400   17.1240   18.7520 C.3   180  MET180      0.0401
      6  CG        18.9220   16.0830   19.7210 C.3   180  MET180      0.0596
      7  SD        17.4020   16.5600   20.5820 S.3   180  MET180     -0.1393
      8  CE        16.1660   15.9330   19.4590 C.3   180  MET180      0.0692
      9  N         19.8890   18.5110   15.8960 N.am  181  LEU181     -0.1966
     10  CA        20.5000   19.5690   15.0830 C.3   181  LEU181      0.1728
     11  C         19.5740   20.0980   13.9690 C.2   181  LEU181      0.2616
     12  O         19.9510   21.0130   13.2260 O.2   181  LEU181     -0.2715
     13  CB        21.8340   19.0880   14.4930 C.3   181  LEU181      0.0311
     14  CG        23.0100   19.0680   15.4630 C.3   181  LEU181      0.0022
     15  CD1       24.1800   18.2250   14.9170 C.3   181  LEU181      0.0001
     16  CD2       23.4840   20.5340   15.7660 C.3   181  LEU181      0.0001
     17  N         18.3770   19.5390   13.8780 N.am  182  ASN182     -0.1972
     18  CA        17.3570   19.9670   12.9160 C.3   182  ASN182      0.1688
     19  C         17.7980   19.7990   11.4450 C.2   182  ASN182      0.2292
     20  O         17.4700   20.6180   10.5760 O.2   182  ASN182     -0.2864
     21  CB        16.9380   21.4100   13.2100 C.3   182  ASN182      0.1181
     22  CG        15.5690   21.7480   12.6650 C.2   182  ASN182      0.2629
     23  OD1       14.6920   20.8870   12.5760 O.2   182  ASN182     -0.2716
     24  ND2       15.3600   23.0240   12.3410 N.am  182  ASN182     -0.0877
     25  N         17.0500   19.9790   24.0490 N.3   214  HIS214     -0.1226
     26  CA        17.7370   19.5350   22.8300 C.3   214  HIS214      0.1752
     27  C         19.2610   19.7320   22.8520 C.2   214  HIS214      0.2595
     28  O         19.9910   18.9010   22.3270 O.2   214  HIS214     -0.2718
     29  CB        17.1450   20.2140   21.5990 C.3   214  HIS214      0.0759
     30  CG        15.7690   19.7330   21.2510 C.ar  214  HIS214      0.0818
     31  ND1       15.2820   19.7480   19.9630 N.ar  214  HIS214     -0.2268
     32  CD2       14.7970   19.1860   22.0170 C.ar  214  HIS214      0.1154
     33  CE1       14.0480   19.2720   19.9580 C.ar  214  HIS214      0.1986
     34  NE2       13.7290   18.9240   21.1910 N.ar  214  HIS214     -0.2212
     35  N         19.7260   20.8260   23.4540 N.am  215  ILE215     -0.1980
     36  CA        21.1610   21.0980   23.5310 C.3   215  ILE215      0.1595
     37  C         21.8180   20.1230   24.4990 C.2   215  ILE215      0.2287
     38  O         22.8710   19.5650   24.2020 O.2   215  ILE215     -0.2864
     39  CB        21.4590   22.5430   23.9900 C.3   215  ILE215      0.0276
     40  CG1       20.6400   23.5470   23.1820 C.3   215  ILE215      0.0022
     41  CG2       22.9570   22.8270   23.8890 C.3   215  ILE215      0.0022
     42  CD1       20.8610   23.4810   21.6950 C.3   215  ILE215      0.0001
     43  N         22.0680   16.6880   22.8900 N.3   218  LEU218     -0.1245
     44  CA        23.2180   16.5810   21.9830 C.3   218  LEU218      0.1561
     45  C         24.5330   16.4710   22.7620 C.2   218  LEU218      0.2260
     46  O         25.4050   15.7110   22.3930 O.2   218  LEU218     -0.2867
     47  CB        23.2790   17.7700   21.0300 C.3   218  LEU218      0.0270
     48  CG        24.4370   17.7560   20.0370 C.3   218  LEU218      0.0019
     49  CD1       24.3420   16.5330   19.1490 C.3   218  LEU218      0.0001
     50  CD2       24.4590   19.0340   19.2100 C.3   218  LEU218      0.0001
     51  N         25.1770   24.1480    7.3970 N.3   238  SER238     -0.1217
     52  CA        25.0170   25.3350    8.2570 C.3   238  SER238      0.1889
     53  C         26.2830   25.8470    8.9350 C.2   238  SER238      0.2288
     54  O         26.8930   25.1500    9.7310 O.2   238  SER238     -0.2866
     55  CB        23.9720   25.0630    9.3490 C.3   238  SER238      0.2089
     56  OG        24.0580   26.0480   10.3740 O.3   238  SER238     -0.2183
     57  N         26.3670   28.1820   11.1880 N.3   240  SER240     -0.1202
     58  CA        26.0900   28.3500   12.6250 C.3   240  SER240      0.2020
     59  C         26.2390   27.0560   13.4020 C.2   240  SER240      0.2618
     60  O         26.7580   27.0560   14.5270 O.2   240  SER240     -0.2717
     61  CB        24.7010   28.9950   12.8720 C.3   240  SER240      0.2103
     62  OG        23.6350   28.1590   12.4520 O.3   240  SER240     -0.2182
     63  N         25.8030   25.9450   12.7950 N.am  241  ALA241     -0.1979
     64  CA        25.9110   24.6430   13.4150 C.3   241  ALA241      0.1597
     65  C         27.3660   24.2260   13.4960 C.2   241  ALA241      0.2287
     66  O         27.7890   23.6580   14.5010 O.2   241  ALA241     -0.2864
     67  CB        25.0920   23.5900   12.6480 C.3   241  ALA241      0.0319
     68  N         29.1060   26.2050   16.1600 N.3   244  TYR244     -0.1241
     69  CA        28.6980   25.6970   17.4590 C.3   244  TYR244      0.1605
     70  C         29.4410   24.4110   17.8030 C.2   244  TYR244      0.2264
     71  O         30.0850   24.3130   18.8440 O.2   244  TYR244     -0.2867
     72  CB        27.1820   25.4460   17.5080 C.3   244  TYR244      0.0534
     73  CG        26.7830   24.8480   18.8310 C.ar  244  TYR244     -0.0201
     74  CD1       26.6870   25.6460   19.9690 C.ar  244  TYR244     -0.0009
     75  CD2       26.5740   23.4810   18.9660 C.ar  244  TYR244     -0.0009
     76  CE1       26.3650   25.1020   21.2040 C.ar  244  TYR244      0.0417
     77  CE2       26.2420   22.9260   20.1960 C.ar  244  TYR244      0.0417
     78  CZ        26.1460   23.7410   21.3110 C.ar  244  TYR244      0.1957
     79  OH        25.8260   23.2100   22.5370 O.3   244  TYR244     -0.2866
@<TRIPOS>BOND
     1    51    52    1
     2    52    53    1
     3    52    55    1
     4    53    54    2
     5    55    56    1
     6    20    19    2
     7    57    58    1
     8    19    18    1
     9    24    22   am
    10    62    61    1
    11    23    22    2
    12    58    61    1
    13    58    59    1
    14    67    64    1
    15    22    21    1
    16    63    59   am
    17    63    64    1
    18    18    21    1
    19    18    17    1
    20    12    11    2
    21    59    60    2
    22    64    65    1
    23    65    66    2
    24    17    11   am
    25    11    10    1
    26    13    10    1
    27    13    14    1
    28    15    14    1
    29    10     9    1
    30    14    16    1
    31     9     3   am
    32    68    69    1
    33     1     2    1
    34     3     4    2
    35     3     2    1
    36    69    72    1
    37    69    70    1
    38    72    73    1
    39     2     5    1
    40    70    71    2
    41     5     6    1
    42    73    75   ar
    43    73    74   ar
    44    75    77   ar
    45    49    48    1
    46    50    48    1
    47     8     7    1
    48     6     7    1
    49    33    31   ar
    50    33    34   ar
    51    31    30   ar
    52    74    76   ar
    53    48    47    1
    54    77    78   ar
    55    47    44    1
    56    34    32   ar
    57    76    78   ar
    58    30    29    1
    59    30    32   ar
    60    78    79    1
    61    29    26    1
    62    42    40    1
    63    44    45    1
    64    44    43    1
    65    28    27    2
    66    46    45    2
    67    26    27    1
    68    26    25    1
    69    27    35   am
    70    40    39    1
    71    35    36    1
    72    36    39    1
    73    36    37    1
    74    41    39    1
    75    38    37    2
