@<TRIPOS>MOLECULE
tmp/4f9yA02.pdb
 147 137 0 0 0
SMALL
GASTEIGER

@<TRIPOS>ATOM
      1  N         -8.7420    2.0210   28.4800 N.3    26  VAL26      -0.1245
      2  CA        -7.3590    1.5730   28.6990 C.3    26  VAL26       0.1561
      3  C         -6.3300    2.7010   28.6480 C.2    26  VAL26       0.2260
      4  O         -5.2970    2.6320   29.3140 O.2    26  VAL26      -0.2867
      5  CB        -6.9620    0.4500   27.6980 C.3    26  VAL26       0.0252
      6  CG1       -7.5420    0.7140   26.3440 C.3    26  VAL26       0.0019
      7  CG2       -5.4390    0.2790   27.6290 C.3    26  VAL26       0.0019
      8  N         -8.6400    4.9330   23.7570 N.3    34  VAL34      -0.1245
      9  CA        -8.6500    3.4970   23.5610 C.3    34  VAL34       0.1561
     10  C         -9.4270    2.7300   24.6210 C.2    34  VAL34       0.2260
     11  O         -9.3540    3.0530   25.8160 O.2    34  VAL34      -0.2867
     12  CB        -7.1900    2.9800   23.5330 C.3    34  VAL34       0.0252
     13  CG1       -7.1450    1.4620   23.3460 C.3    34  VAL34       0.0019
     14  CG2       -6.4060    3.7000   22.4150 C.3    34  VAL34       0.0019
     15  N         -8.2500   -4.0880   21.1040 N.3    47  ALA47      -0.1231
     16  CA        -8.1760   -2.7090   21.5250 C.3    47  ALA47       0.1694
     17  C         -8.9180   -1.9130   20.4360 C.2    47  ALA47       0.2592
     18  O         -8.7380   -2.1870   19.2320 O.2    47  ALA47      -0.2718
     19  CB        -6.7230   -2.2620   21.6310 C.3    47  ALA47       0.0304
     20  N         -9.7670   -0.9780   20.8530 N.am   48  VAL48      -0.1966
     21  CA       -10.5340   -0.1380   19.9240 C.3    48  VAL48       0.1727
     22  C        -10.1490    1.3300   20.1830 C.2    48  VAL48       0.2616
     23  O        -10.2240    1.8160   21.3170 O.2    48  VAL48      -0.2715
     24  CB       -12.0550   -0.3040   20.1200 C.3    48  VAL48       0.0290
     25  CG1      -12.8390    0.4650   19.0390 C.3    48  VAL48       0.0023
     26  CG2      -12.4500   -1.7940   20.0930 C.3    48  VAL48       0.0023
     27  N         -9.7580    2.0300   19.1320 N.am   49  LYS49      -0.1977
     28  CA        -9.3550    3.4210   19.2610 C.3    49  LYS49       0.1596
     29  C        -10.3150    4.2970   18.4990 C.2    49  LYS49       0.2287
     30  O        -10.5900    4.0540   17.3000 O.2    49  LYS49      -0.2864
     31  CB        -7.9340    3.6310   18.7400 C.3    49  LYS49       0.0298
     32  CG        -7.4680    5.1100   18.8030 C.3    49  LYS49       0.0038
     33  CD        -5.9550    5.2650   18.6840 C.3    49  LYS49       0.0206
     34  CE        -5.3990    4.8150   17.3620 C.3    49  LYS49       0.1093
     35  NZ        -3.8730    4.9020   17.3110 N.3    49  LYS49      -0.1314
     36  N         -1.8410    2.2480    8.5250 N.3    71  LEU71      -0.1245
     37  CA        -2.3090    1.0480    9.2580 C.3    71  LEU71       0.1561
     38  C         -2.8730   -0.0370    8.3410 C.2    71  LEU71       0.2260
     39  O         -2.6550   -1.2010    8.5860 O.2    71  LEU71      -0.2867
     40  CB        -3.3110    1.4220   10.3440 C.3    71  LEU71       0.0270
     41  CG        -2.6800    2.1730   11.5060 C.3    71  LEU71       0.0019
     42  CD1       -3.7810    2.7480   12.4170 C.3    71  LEU71       0.0001
     43  CD2       -1.7450    1.2180   12.2760 C.3    71  LEU71       0.0001
     44  N          2.0200   -3.1230   14.4590 N.3    80  ILE80      -0.1231
     45  CA         0.5980   -3.0490   14.7410 C.3    80  ILE80       0.1692
     46  C         -0.1370   -2.8850   13.4260 C.2    80  ILE80       0.2593
     47  O          0.2510   -2.0710   12.5660 O.2    80  ILE80      -0.2718
     48  CB         0.2670   -1.8850   15.6930 C.3    80  ILE80       0.0266
     49  CG1        0.7000   -2.2300   17.1070 C.3    80  ILE80       0.0019
     50  CG2       -1.2490   -1.5740   15.7020 C.3    80  ILE80       0.0020
     51  CD1       -0.2020   -3.1950   17.8070 C.3    80  ILE80       0.0001
     52  N         -1.1870   -3.6710   13.2710 N.am   81  GLY81      -0.1942
     53  CA        -2.0050   -3.6240   12.0700 C.3    81  GLY81       0.2014
     54  C         -3.4650   -3.5860   12.4670 C.2    81  GLY81       0.2638
     55  O         -3.8140   -3.5830   13.6620 O.2    81  GLY81      -0.2714
     56  N         -4.3060   -3.5820   11.4610 N.am   82  LEU82      -0.1977
     57  CA        -5.7300   -3.4970   11.6730 C.3    82  LEU82       0.1596
     58  C         -6.5160   -4.7920   11.5280 C.2    82  LEU82       0.2287
     59  O         -6.4040   -5.5000   10.5270 O.2    82  LEU82      -0.2864
     60  CB        -6.3070   -2.5010   10.6780 C.3    82  LEU82       0.0297
     61  CG        -6.0650   -1.0260   10.8840 C.3    82  LEU82       0.0022
     62  CD1       -6.7100   -0.2400    9.6990 C.3    82  LEU82       0.0001
     63  CD2       -6.6170   -0.5270   12.2480 C.3    82  LEU82       0.0001
     64  N        -10.6950    2.3990   15.0270 N.3   100  LEU100     -0.1245
     65  CA        -9.7080    1.4300   14.5860 C.3   100  LEU100      0.1561
     66  C         -9.6580    0.2830   15.5950 C.2   100  LEU100      0.2260
     67  O         -9.7930    0.5110   16.7780 O.2   100  LEU100     -0.2867
     68  CB        -8.3160    2.0670   14.5000 C.3   100  LEU100      0.0270
     69  CG        -8.1720    3.3830   13.6910 C.3   100  LEU100      0.0019
     70  CD1       -6.7490    3.9180   13.7960 C.3   100  LEU100      0.0001
     71  CD2       -8.5350    3.1900   12.2200 C.3   100  LEU100      0.0001
     72  N         -7.5000   -3.4300   16.7130 N.3   102  THR102     -0.1203
     73  CA        -6.3220   -4.2810   16.5910 C.3   102  THR102      0.1994
     74  C         -6.3020   -5.2650   17.7730 C.2   102  THR102      0.2618
     75  O         -7.1170   -5.1330   18.6880 O.2   102  THR102     -0.2717
     76  CB        -5.0310   -3.4440   16.5710 C.3   102  THR102      0.1784
     77  OG1       -3.9320   -4.2560   16.1240 O.3   102  THR102     -0.2211
     78  CG2       -4.7150   -2.8330   17.9640 C.3   102  THR102      0.0376
     79  N         -5.4070   -6.2510   17.7330 N.am  103  HIS103     -0.1961
     80  CA        -5.2600   -7.2300   18.8290 C.3   103  HIS103      0.1787
     81  C         -4.8720   -6.4840   20.0890 C.2   103  HIS103      0.2620
     82  O         -3.9520   -5.6790   20.0550 O.2   103  HIS103     -0.2715
     83  CB        -4.1260   -8.2290   18.5510 C.3   103  HIS103      0.0785
     84  CG        -4.3420   -9.1160   17.3650 C.ar  103  HIS103      0.0821
     85  ND1       -5.0810  -10.2760   17.4250 N.ar  103  HIS103     -0.2267
     86  CD2       -3.8490   -9.0510   16.1060 C.ar  103  HIS103      0.1154
     87  CE1       -5.0710  -10.8640   16.2410 C.ar  103  HIS103      0.1986
     88  NE2       -4.3230  -10.1430   15.4250 N.ar  103  HIS103     -0.2212
     89  N         -5.5340   -6.7630   21.2080 N.am  104  LEU104     -0.1963
     90  CA        -5.1820   -6.1220   22.4670 C.3   104  LEU104      0.1728
     91  C         -3.7700   -6.5840   22.9230 C.2   104  LEU104      0.2616
     92  O         -3.4930   -7.7870   22.9970 O.2   104  LEU104     -0.2715
     93  CB        -6.2160   -6.4350   23.5480 C.3   104  LEU104      0.0311
     94  CG        -6.0140   -5.8060   24.9410 C.3   104  LEU104      0.0022
     95  CD1       -6.1920   -4.2910   24.9010 C.3   104  LEU104      0.0001
     96  CD2       -6.9830   -6.4060   25.9490 C.3   104  LEU104      0.0001
     97  N         -2.8890   -5.6280   23.1950 N.am  105  MET105     -0.1977
     98  CA        -1.5300   -5.9070   23.6740 C.3   105  MET105      0.1605
     99  C         -1.5350   -5.5220   25.1630 C.2   105  MET105      0.2287
    100  O         -2.1610   -4.5410   25.5590 O.2   105  MET105     -0.2864
    101  CB        -0.4990   -5.1250   22.8710 C.3   105  MET105      0.0413
    102  CG        -0.4960   -5.4640   21.3740 C.3   105  MET105      0.0598
    103  SD         0.0410   -7.1230   20.9460 S.3   105  MET105     -0.1393
    104  CE         1.7880   -7.1190   21.4690 C.3   105  MET105      0.0692
    105  N          3.4560   -1.9050   27.4570 N.3   108  ASP108     -0.1239
    106  CA         4.4630   -1.3540   26.5620 C.3   108  ASP108      0.1674
    107  C          5.8040   -1.7270   27.1650 C.2   108  ASP108      0.2266
    108  O          5.8860   -2.2100   28.3150 O.2   108  ASP108     -0.2867
    109  CB         4.2940    0.1480   26.3640 C.3   108  ASP108      0.1410
    110  CG         4.5150    0.9480   27.6440 C.2   108  ASP108      0.3668
    111  OD1        5.2920    0.5140   28.5090 O.co2 108  ASP108     -0.2456
    112  OD2        3.9260    2.0420   27.7590 O.co2 108  ASP108     -0.2456
    113  N          7.6000    3.4920   25.0060 N.3   150  SER150     -0.1202
    114  CA         6.1330    3.6420   25.0630 C.3   150  SER150      0.2020
    115  C          5.4190    3.3640   23.7080 C.2   150  SER150      0.2618
    116  O          4.2020    3.1890   23.6810 O.2   150  SER150     -0.2717
    117  CB         5.7680    5.0140   25.6310 C.3   150  SER150      0.2103
    118  OG         6.1700    6.0260   24.7420 O.3   150  SER150     -0.2182
    119  N          6.1730    3.3000   22.6020 N.am  151  ASN151     -0.1974
    120  CA         5.6300    2.9500   21.2720 C.3   151  ASN151      0.1688
    121  C          5.8980    1.4940   20.8820 C.2   151  ASN151      0.2292
    122  O          5.7920    1.1260   19.7170 O.2   151  ASN151     -0.2864
    123  CB         6.1810    3.8980   20.1810 C.3   151  ASN151      0.1181
    124  CG         5.4850    5.2290   20.1750 C.2   151  ASN151      0.2629
    125  OD1        4.3230    5.3490   20.6240 O.2   151  ASN151     -0.2716
    126  ND2        6.1660    6.2490   19.6640 N.am  151  ASN151     -0.0877
    127  N          4.6470   -2.2290   21.9160 N.3   153  ALA153     -0.1245
    128  CA         3.6810   -3.0370   22.6520 C.3   153  ALA153      0.1562
    129  C          4.2440   -4.4340   22.8570 C.2   153  ALA153      0.2260
    130  O          4.8660   -5.0060   21.9500 O.2   153  ALA153     -0.2867
    131  CB         2.3500   -3.0680   21.8970 C.3   153  ALA153      0.0290
    132  N          4.2590    0.2840   17.4350 N.3   163  LEU163     -0.1231
    133  CA         3.1080    1.1630   17.3110 C.3   163  LEU163      0.1693
    134  C          3.4680    2.5350   16.6760 C.2   163  LEU163      0.2592
    135  O          4.6230    2.9900   16.7500 O.2   163  LEU163     -0.2718
    136  CB         2.5750    1.5020   18.7060 C.3   163  LEU163      0.0284
    137  CG         2.0690    0.4530   19.6780 C.3   163  LEU163      0.0019
    138  CD1        1.9860    1.0740   21.0840 C.3   163  LEU163      0.0001
    139  CD2        0.7070   -0.0590   19.2520 C.3   163  LEU163      0.0001
    140  N          2.4160    3.1980   16.1740 N.am  164  ASP164     -0.1974
    141  CA         2.4000    4.5660   15.5320 C.3   164  ASP164      0.1709
    142  C          3.6520    5.0420   14.7910 C.2   164  ASP164      0.2293
    143  O          4.2900    6.0470   15.1360 O.2   164  ASP164     -0.2864
    144  CB         1.8720    5.6390   16.5050 C.3   164  ASP164      0.1436
    145  CG         2.7260    5.7950   17.7520 C.2   164  ASP164      0.3671
    146  OD1        3.9000    5.3690   17.7420 O.co2 164  ASP164     -0.2456
    147  OD2        2.2200    6.3800   18.7390 O.co2 164  ASP164     -0.2456
@<TRIPOS>BOND
     1    38    39    2
     2    38    37    1
     3    36    37    1
     4    37    40    1
     5    62    61    1
     6    40    41    1
     7    59    58    2
     8    60    61    1
     9    60    57    1
    10    61    63    1
    11    56    57    1
    12    56    54   am
    13    41    43    1
    14    41    42    1
    15    58    57    1
    16    53    54    1
    17    53    52    1
    18    71    69    1
    19    54    55    2
    20    47    46    2
    21    52    46   am
    22    46    45    1
    23    69    70    1
    24    69    68    1
    25    44    45    1
    26    68    65    1
    27    65    64    1
    28    65    66    1
    29    45    48    1
    30   142   143    2
    31   142   141    1
    32    88    86   ar
    33    88    87   ar
    34   141   140    1
    35   141   144    1
    36    66    67    2
    37    48    50    1
    38    48    49    1
    39    86    84   ar
    40    77    76    1
    41   140   134   am
    42    87    85   ar
    43   144   145    1
    44    76    73    1
    45    76    78    1
    46    73    72    1
    47    73    74    1
    48   134   135    2
    49   134   133    1
    50    49    51    1
    51    30    29    2
    52    35    34    1
    53   133   132    1
    54   133   136    1
    55    34    33    1
    56    84    85   ar
    57    84    83    1
    58    79    74   am
    59    79    80    1
    60   146   145   ar
    61   145   147   ar
    62    74    75    2
    63    29    28    1
    64    83    80    1
    65    33    32    1
    66   136   137    1
    67    31    32    1
    68    31    28    1
    69    80    81    1
    70    25    24    1
    71    27    28    1
    72    27    22   am
    73    18    17    2
    74   139   137    1
    75   126   124   am
    76   137   138    1
    77   122   121    2
    78    21    24    1
    79    21    22    1
    80    21    20    1
    81    82    81    2
    82    81    89   am
    83    26    24    1
    84   124   123    1
    85   124   125    2
    86   123   120    1
    87    22    23    2
    88    17    20   am
    89    17    16    1
    90   121   120    1
    91   103   102    1
    92   103   104    1
    93    15    16    1
    94    89    90    1
    95   120   119    1
    96   102   101    1
    97    16    19    1
    98   131   128    1
    99   127   128    1
   100   130   129    2
   101    14    12    1
   102    90    91    1
   103    90    93    1
   104   119   115   am
   105   128   129    1
   106   101    98    1
   107    91    92    2
   108    91    97   am
   109    97    98    1
   110    13    12    1
   111    12     9    1
   112    93    94    1
   113     9     8    1
   114     9    10    1
   115    98    99    1
   116   116   115    2
   117   115   114    1
   118    10    11    2
   119   118   117    1
   120    95    94    1
   121    94    96    1
   122   113   114    1
   123   114   117    1
   124    99   100    2
   125     6     5    1
   126   109   106    1
   127   109   110    1
   128   106   107    1
   129   106   105    1
   130   107   108    2
   131     7     5    1
   132   110   112   ar
   133   110   111   ar
   134     5     2    1
   135     1     2    1
   136     3     2    1
   137     3     4    2
