@<TRIPOS>MOLECULE
tmp/4f9zB00.pdb
 159 157 0 0 0
SMALL
GASTEIGER

@<TRIPOS>ATOM
      1  N          3.9550  -21.5610   21.7440 N.3   110  TYR110     -0.1227
      2  CA         4.4990  -21.2760   20.4290 C.3   110  TYR110      0.1736
      3  C          4.1260  -19.8640   20.0140 C.2   110  TYR110      0.2595
      4  O          2.9360  -19.5180   19.9670 O.2   110  TYR110     -0.2718
      5  CB         3.9180  -22.2680   19.4250 C.3   110  TYR110      0.0548
      6  CG         4.8070  -22.6350   18.2540 C.ar  110  TYR110     -0.0200
      7  CD1        6.0930  -23.0980   18.4510 C.ar  110  TYR110     -0.0009
      8  CD2        4.3330  -22.5790   16.9550 C.ar  110  TYR110     -0.0009
      9  CE1        6.9020  -23.4640   17.3870 C.ar  110  TYR110      0.0417
     10  CE2        5.1310  -22.9530   15.8770 C.ar  110  TYR110      0.0417
     11  CZ         6.4180  -23.3900   16.1010 C.ar  110  TYR110      0.1957
     12  OH         7.2250  -23.7590   15.0470 O.3   110  TYR110     -0.2866
     13  N          5.1410  -19.0530   19.7200 N.am  111  ASN111     -0.1961
     14  CA         4.9420  -17.7310   19.1220 C.3   111  ASN111      0.1804
     15  C          6.2040  -17.3200   18.3470 C.2   111  ASN111      0.2463
     16  O          7.2220  -18.0150   18.4370 O.2   111  ASN111     -0.2730
     17  CB         4.5020  -16.7050   20.1790 C.3   111  ASN111      0.1195
     18  CG         5.5780  -16.4170   21.2270 C.2   111  ASN111      0.2630
     19  OD1        6.7460  -16.1760   20.9110 O.2   111  ASN111     -0.2716
     20  ND2        5.1720  -16.4360   22.4860 N.am  111  ASN111     -0.0877
     21  N          6.1430  -16.2210   17.5610 N.am  112  PRO112     -0.2727
     22  CA         7.3220  -15.8320   16.7700 C.3   112  PRO112      0.1402
     23  C          8.5980  -15.5320   17.5760 C.2   112  PRO112      0.2269
     24  O          9.6920  -15.6190   17.0260 O.2   112  PRO112     -0.2865
     25  CB         6.8420  -14.5770   16.0370 C.3   112  PRO112      0.0296
     26  CG         5.3880  -14.7700   15.9020 C.3   112  PRO112      0.0237
     27  CD         4.9710  -15.4010   17.1950 C.3   112  PRO112      0.0939
     28  N          9.7850  -19.4110   19.1820 N.3   115  VAL115     -0.1245
     29  CA        10.2200  -20.3210   18.1240 C.3   115  VAL115      0.1561
     30  C         11.6910  -20.0710   17.7630 C.2   115  VAL115      0.2260
     31  O         12.3850  -20.9960   17.3410 O.2   115  VAL115     -0.2867
     32  CB         9.3080  -20.2350   16.8650 C.3   115  VAL115      0.0252
     33  CG1        9.5150  -18.9080   16.1460 C.3   115  VAL115      0.0019
     34  CG2        9.5770  -21.3960   15.9330 C.3   115  VAL115      0.0019
     35  N         14.1700  -23.1350   17.9680 N.3   119  PHE119     -0.1241
     36  CA        14.9750  -23.5390   16.8200 C.3   119  PHE119      0.1605
     37  C         16.4660  -23.5210   17.1190 C.2   119  PHE119      0.2264
     38  O         17.2160  -24.3360   16.5820 O.2   119  PHE119     -0.2867
     39  CB        14.6550  -22.6690   15.6040 C.3   119  PHE119      0.0534
     40  CG        13.6590  -23.2910   14.6720 C.ar  119  PHE119     -0.0203
     41  CD1       12.3310  -23.4430   15.0510 C.ar  119  PHE119     -0.0042
     42  CD2       14.0490  -23.7310   13.4180 C.ar  119  PHE119     -0.0042
     43  CE1       11.3940  -24.0200   14.1770 C.ar  119  PHE119     -0.0003
     44  CE2       13.1260  -24.3140   12.5380 C.ar  119  PHE119     -0.0003
     45  CZ        11.7950  -24.4540   12.9200 C.ar  119  PHE119     -0.0000
     46  N          4.5990  -30.4670   18.6890 N.3   128  LEU128     -0.1245
     47  CA         3.5220  -29.5020   18.8710 C.3   128  LEU128      0.1561
     48  C          2.2510  -30.2010   19.3320 C.2   128  LEU128      0.2260
     49  O          1.8660  -31.2330   18.7910 O.2   128  LEU128     -0.2867
     50  CB         3.2090  -28.7820   17.5580 C.3   128  LEU128      0.0270
     51  CG         4.3150  -28.0610   16.7960 C.3   128  LEU128      0.0019
     52  CD1        3.7640  -27.5020   15.4760 C.3   128  LEU128      0.0001
     53  CD2        4.9330  -26.9510   17.6450 C.3   128  LEU128      0.0001
     54  N         -3.3400  -16.0980   14.6890 N.3   167  GLU167     -0.1231
     55  CA        -1.9440  -16.0850   14.2580 C.3   167  GLU167      0.1699
     56  C         -1.3920  -17.4990   14.0570 C.2   167  GLU167      0.2592
     57  O         -0.4020  -17.6930   13.3530 O.2   167  GLU167     -0.2718
     58  CB        -1.0690  -15.3280   15.2660 C.3   167  GLU167      0.0402
     59  CG        -1.4510  -13.8720   15.4730 C.3   167  GLU167      0.1161
     60  CD        -2.4430  -13.6760   16.6050 C.2   167  GLU167      0.3649
     61  OE1       -3.3490  -14.5180   16.7770 O.co2 167  GLU167     -0.2457
     62  OE2       -2.3120  -12.6700   17.3290 O.co2 167  GLU167     -0.2457
     63  N         -2.0390  -18.4820   14.6820 N.am  168  ASN168     -0.1974
     64  CA        -1.5860  -19.8680   14.6210 C.3   168  ASN168      0.1688
     65  C         -2.2190  -20.6570   13.4680 C.2   168  ASN168      0.2292
     66  O         -2.0200  -21.8620   13.3520 O.2   168  ASN168     -0.2864
     67  CB        -1.8290  -20.5820   15.9670 C.3   168  ASN168      0.1181
     68  CG        -0.7780  -20.2270   17.0270 C.2   168  ASN168      0.2629
     69  OD1        0.3710  -19.9180   16.7040 O.2   168  ASN168     -0.2716
     70  ND2       -1.1710  -20.2920   18.3000 N.am  168  ASN168     -0.0877
     71  N         -1.6100  -20.5530   10.2480 N.3   170  LYS170     -0.1231
     72  CA        -0.6460  -20.9860    9.2460 C.3   170  LYS170      0.1693
     73  C          0.0480  -22.2910    9.6500 C.2   170  LYS170      0.2591
     74  O          0.2120  -23.1890    8.8270 O.2   170  LYS170     -0.2718
     75  CB         0.3890  -19.8870    8.9860 C.3   170  LYS170      0.0285
     76  CG         0.6710  -19.6230    7.5110 C.3   170  LYS170      0.0035
     77  CD        -0.4590  -18.8370    6.8520 C.3   170  LYS170      0.0206
     78  CE        -0.2210  -18.6460    5.3560 C.3   170  LYS170      0.1093
     79  NZ         0.9650  -17.7900    5.0610 N.3   170  LYS170     -0.1314
     80  N          0.4590  -22.3990   10.9150 N.am  171  VAL171     -0.1980
     81  CA         1.1040  -23.6330   11.3560 C.3   171  VAL171      0.1595
     82  C          0.1130  -24.7810   11.2630 C.2   171  VAL171      0.2287
     83  O          0.4610  -25.8630   10.8270 O.2   171  VAL171     -0.2864
     84  CB         1.7460  -23.5590   12.7960 C.3   171  VAL171      0.0276
     85  CG1        2.6980  -22.3880   12.9200 C.3   171  VAL171      0.0022
     86  CG2        0.6960  -23.4920   13.8790 C.3   171  VAL171      0.0022
     87  N         -0.3700  -25.7370    7.6450 N.3   174  PHE174     -0.1227
     88  CA         0.8730  -26.3770    7.1950 C.3   174  PHE174      0.1736
     89  C          0.8230  -27.8970    7.4030 C.2   174  PHE174      0.2595
     90  O          1.0560  -28.6720    6.4670 O.2   174  PHE174     -0.2718
     91  CB         2.1230  -25.8070    7.8900 C.3   174  PHE174      0.0547
     92  CG         3.4040  -26.4900    7.4660 C.ar  174  PHE174     -0.0202
     93  CD1        4.0810  -26.0760    6.3180 C.ar  174  PHE174     -0.0042
     94  CD2        3.9030  -27.5720    8.1790 C.ar  174  PHE174     -0.0042
     95  CE1        5.2460  -26.7190    5.9050 C.ar  174  PHE174     -0.0003
     96  CE2        5.0600  -28.2160    7.7770 C.ar  174  PHE174     -0.0003
     97  CZ         5.7330  -27.7970    6.6400 C.ar  174  PHE174     -0.0000
     98  N          0.4880  -28.3080    8.6270 N.am  175  PHE175     -0.1976
     99  CA         0.4020  -29.7240    8.9780 C.3   175  PHE175      0.1639
    100  C         -0.9260  -30.3550    8.5750 C.2   175  PHE175      0.2290
    101  O         -1.3080  -31.4170    9.0830 O.2   175  PHE175     -0.2864
    102  CB         0.6840  -29.9310   10.4750 C.3   175  PHE175      0.0560
    103  CG         2.1060  -29.6720   10.8490 C.ar  175  PHE175     -0.0200
    104  CD1        3.1050  -30.5390   10.4490 C.ar  175  PHE175     -0.0042
    105  CD2        2.4520  -28.5420   11.5820 C.ar  175  PHE175     -0.0042
    106  CE1        4.4300  -30.2920   10.7850 C.ar  175  PHE175     -0.0003
    107  CE2        3.7770  -28.2840   11.9290 C.ar  175  PHE175     -0.0003
    108  CZ         4.7650  -29.1530   11.5320 C.ar  175  PHE175     -0.0000
    109  N          8.1010  -32.5000   14.2770 N.3   188  TYR188     -0.1227
    110  CA         8.9850  -32.1510   13.1730 C.3   188  TYR188      0.1736
    111  C         10.4430  -31.9730   13.5790 C.2   188  TYR188      0.2595
    112  O         10.7880  -31.9690   14.7690 O.2   188  TYR188     -0.2718
    113  CB         8.4860  -30.8750   12.4860 C.3   188  TYR188      0.0548
    114  CG         8.5880  -29.6300   13.3500 C.ar  188  TYR188     -0.0200
    115  CD1        9.7530  -28.8810   13.3890 C.ar  188  TYR188     -0.0009
    116  CD2        7.5160  -29.2070   14.1270 C.ar  188  TYR188     -0.0009
    117  CE1        9.8460  -27.7440   14.1720 C.ar  188  TYR188      0.0417
    118  CE2        7.5960  -28.0680   14.9150 C.ar  188  TYR188      0.0417
    119  CZ         8.7610  -27.3350   14.9320 C.ar  188  TYR188      0.1957
    120  OH         8.8690  -26.1940   15.7280 O.3   188  TYR188     -0.2866
    121  N         11.2890  -31.7830   12.5720 N.am  189  GLN189     -0.1979
    122  CA        12.7090  -31.5500   12.7900 C.3   189  GLN189      0.1601
    123  C         13.0700  -30.1470   12.3500 C.2   189  GLN189      0.2287
    124  O         12.4740  -29.6180   11.3940 O.2   189  GLN189     -0.2864
    125  CB        13.5220  -32.5480   11.9800 C.3   189  GLN189      0.0394
    126  CG        13.2270  -33.9890   12.3340 C.3   189  GLN189      0.0908
    127  CD        13.7330  -34.9360   11.2790 C.2   189  GLN189      0.2608
    128  OE1       14.7360  -35.6200   11.4720 O.2   189  GLN189     -0.2717
    129  NE2       13.0490  -34.9690   10.1390 N.am  189  GLN189     -0.0878
    130  N         15.5660  -31.0080    9.1750 N.3   192  ASP192     -0.1225
    131  CA        15.1110  -32.0020    8.1950 C.3   192  ASP192      0.1805
    132  C         13.6190  -31.9370    7.8730 C.2   192  ASP192      0.2597
    133  O         12.8220  -31.4050    8.6370 O.2   192  ASP192     -0.2718
    134  CB        15.4870  -33.4180    8.6470 C.3   192  ASP192      0.1424
    135  CG        16.9880  -33.6290    8.7020 C.2   192  ASP192      0.3668
    136  OD1       17.6080  -33.7190    7.6210 O.co2 192  ASP192     -0.2456
    137  OD2       17.5500  -33.6970    9.8170 O.co2 192  ASP192     -0.2456
    138  N         13.2440  -32.5240    6.7430 N.am  193  ASP193     -0.1974
    139  CA        11.9140  -32.3060    6.1780 C.3   193  ASP193      0.1709
    140  C         10.7820  -33.1700    6.7410 C.2   193  ASP193      0.2293
    141  O          9.6260  -32.7560    6.6960 O.2   193  ASP193     -0.2864
    142  CB        11.9710  -32.4260    4.6590 C.3   193  ASP193      0.1436
    143  CG        12.8520  -31.3780    4.0370 C.2   193  ASP193      0.3671
    144  OD1       12.6510  -30.1790    4.3340 O.co2 193  ASP193     -0.2456
    145  OD2       13.7600  -31.7500    3.2700 O.co2 193  ASP193     -0.2456
    146  N          7.9870  -35.0010    8.9280 N.3   195  TRP195     -0.1241
    147  CA         7.1100  -34.6860   10.0460 C.3   195  TRP195      0.1605
    148  C          5.9510  -35.6740   10.1060 C.2   195  TRP195      0.2264
    149  O          5.7170  -36.4240    9.1520 O.2   195  TRP195     -0.2867
    150  CB         6.5800  -33.2490    9.9470 C.3   195  TRP195      0.0550
    151  CG         5.9120  -32.8540    8.6330 C.ar  195  TRP195      0.0003
    152  CD1        6.4960  -32.1950    7.5860 C.ar  195  TRP195      0.0946
    153  CD2        4.5340  -33.0420    8.2650 C.ar  195  TRP195      0.0152
    154  NE1        5.5790  -31.9810    6.5880 N.ar  195  TRP195     -0.2442
    155  CE2        4.3690  -32.4910    6.9750 C.ar  195  TRP195      0.0810
    156  CE3        3.4320  -33.6270    8.8950 C.ar  195  TRP195      0.0012
    157  CZ2        3.1420  -32.5140    6.3000 C.ar  195  TRP195      0.0191
    158  CZ3        2.2110  -33.6480    8.2240 C.ar  195  TRP195      0.0001
    159  CH2        2.0780  -33.0930    6.9370 C.ar  195  TRP195      0.0015
@<TRIPOS>BOND
     1   145   143   ar
     2   143   144   ar
     3   143   142    1
     4   142   139    1
     5    79    78    1
     6    78    77    1
     7    95    93   ar
     8    95    97   ar
     9   139   140    1
    10   139   138    1
    11   157   159   ar
    12   157   155   ar
    13    93    92   ar
    14    90    89    2
    15   154   155   ar
    16   154   152   ar
    17    97    96   ar
    18   141   140    2
    19   138   132   am
    20    77    76    1
    21   159   158   ar
    22   155   153   ar
    23    88    89    1
    24    88    87    1
    25    88    91    1
    26    89    98   am
    27    92    91    1
    28    92    94   ar
    29    76    75    1
    30   152   151   ar
    31   136   135   ar
    32    96    94   ar
    33   132   131    1
    34   132   133    2
    35   131   134    1
    36   131   130    1
    37   158   156   ar
    38   153   151   ar
    39   153   156   ar
    40   100    99    1
    41   100   101    2
    42    98    99    1
    43   151   150    1
    44   134   135    1
    45   135   137   ar
    46    74    73    2
    47   146   147    1
    48    99   102    1
    49    75    72    1
    50   149   148    2
    51    72    73    1
    52    72    71    1
    53    73    80   am
    54   150   147    1
    55   147   148    1
    56   129   127   am
    57   104   106   ar
    58   104   103   ar
    59   102   103    1
    60   106   108   ar
    61    83    82    2
    62   103   105   ar
    63    80    81    1
    64    82    81    1
    65   127   128    2
    66   127   126    1
    67    81    84    1
    68   124   123    2
    69   108   107   ar
    70   105   107   ar
    71   125   126    1
    72   125   122    1
    73   123   122    1
    74   113   110    1
    75   113   114    1
    76    44    45   ar
    77    44    42   ar
    78   121   122    1
    79   121   111   am
    80    84    85    1
    81    84    86    1
    82    45    43   ar
    83   110   111    1
    84   110   109    1
    85   114   115   ar
    86   114   116   ar
    87    66    65    2
    88    57    56    2
    89   115   117   ar
    90    42    40   ar
    91    65    64    1
    92   111   112    2
    93    56    55    1
    94    56    63   am
    95   116   118   ar
    96   117   119   ar
    97    43    41   ar
    98    55    54    1
    99    55    58    1
   100    64    63    1
   101    64    67    1
   102    40    41   ar
   103    40    39    1
   104   118   119   ar
   105   119   120    1
   106    12    11    1
   107    58    59    1
   108    59    60    1
   109    52    51    1
   110    39    36    1
   111    10    11   ar
   112    10     8   ar
   113    26    25    1
   114    26    27    1
   115    34    32    1
   116    67    68    1
   117    25    22    1
   118    11     9   ar
   119    33    32    1
   120    38    37    2
   121    60    61   ar
   122    60    62   ar
   123    69    68    2
   124    22    21    1
   125    22    23    1
   126    51    50    1
   127    51    53    1
   128    36    37    1
   129    36    35    1
   130    32    29    1
   131     8     6   ar
   132    24    23    2
   133    68    70   am
   134    27    21    1
   135    31    30    2
   136     9     7   ar
   137    50    47    1
   138    21    15   am
   139    30    29    1
   140    29    28    1
   141     6     7   ar
   142     6     5    1
   143    15    16    2
   144    15    14    1
   145    46    47    1
   146    49    48    2
   147    47    48    1
   148    14    13    1
   149    14    17    1
   150     5     2    1
   151    13     3   am
   152     4     3    2
   153     3     2    1
   154    17    18    1
   155     2     1    1
   156    19    18    2
   157    18    20   am
