@<TRIPOS>MOLECULE
tmp/4f9zA00.pdb
 119 119 0 0 0
SMALL
GASTEIGER

@<TRIPOS>ATOM
      1  N         20.5150   40.4960  -19.9590 N.3   110  TYR110     -0.1241
      2  CA        19.5960   41.4390  -20.5790 C.3   110  TYR110      0.1605
      3  C         20.2760   42.3140  -21.6380 C.2   110  TYR110      0.2264
      4  O         21.2410   43.0140  -21.3490 O.2   110  TYR110     -0.2867
      5  CB        18.9600   42.3330  -19.5010 C.3   110  TYR110      0.0534
      6  CG        17.9140   43.3000  -20.0150 C.ar  110  TYR110     -0.0201
      7  CD1       18.2870   44.4730  -20.6730 C.ar  110  TYR110     -0.0009
      8  CD2       16.5540   43.0560  -19.8280 C.ar  110  TYR110     -0.0009
      9  CE1       17.3440   45.3660  -21.1530 C.ar  110  TYR110      0.0417
     10  CE2       15.5970   43.9550  -20.2970 C.ar  110  TYR110      0.0417
     11  CZ        16.0080   45.1090  -20.9620 C.ar  110  TYR110      0.1957
     12  OH        15.1020   46.0230  -21.4470 O.3   110  TYR110     -0.2866
     13  N         15.8630   40.4670  -24.8400 N.3   115  VAL115     -0.1245
     14  CA        14.6140   40.9360  -24.2350 C.3   115  VAL115      0.1561
     15  C         13.4410   40.6220  -25.1610 C.2   115  VAL115      0.2260
     16  O         12.3160   40.4250  -24.6970 O.2   115  VAL115     -0.2867
     17  CB        14.6570   42.4560  -23.8250 C.3   115  VAL115      0.0252
     18  CG1       14.6100   43.3530  -25.0410 C.3   115  VAL115      0.0019
     19  CG2       13.5020   42.7960  -22.8950 C.3   115  VAL115      0.0019
     20  N         10.4380   38.4310  -23.8040 N.3   119  PHE119     -0.1241
     21  CA         9.0650   38.9330  -23.8250 C.3   119  PHE119      0.1605
     22  C          8.1060   37.9860  -24.5490 C.2   119  PHE119      0.2264
     23  O          6.9000   37.9940  -24.2910 O.2   119  PHE119     -0.2867
     24  CB         8.9870   40.3560  -24.4030 C.3   119  PHE119      0.0534
     25  CG         8.8740   41.4210  -23.3500 C.ar  119  PHE119     -0.0203
     26  CD1        9.9570   41.7060  -22.5220 C.ar  119  PHE119     -0.0042
     27  CD2        7.6760   42.1140  -23.1590 C.ar  119  PHE119     -0.0042
     28  CE1        9.8540   42.6780  -21.5280 C.ar  119  PHE119     -0.0003
     29  CE2        7.5630   43.0770  -22.1650 C.ar  119  PHE119     -0.0003
     30  CZ         8.6560   43.3660  -21.3520 C.ar  119  PHE119     -0.0000
     31  N         16.2900   51.1960  -18.0600 N.3   171  VAL171     -0.1245
     32  CA        15.5370   50.0880  -17.4600 C.3   171  VAL171      0.1561
     33  C         15.6380   50.1420  -15.9370 C.2   171  VAL171      0.2260
     34  O         14.6610   49.9020  -15.2350 O.2   171  VAL171     -0.2867
     35  CB        15.9420   48.6850  -18.0200 C.3   171  VAL171      0.0252
     36  CG1       17.4170   48.4460  -17.9120 C.3   171  VAL171      0.0019
     37  CG2       15.1930   47.5770  -17.3000 C.3   171  VAL171      0.0019
     38  N         13.4770   53.0730  -14.5910 N.3   174  PHE174     -0.1227
     39  CA        12.0470   52.7860  -14.6120 C.3   174  PHE174      0.1736
     40  C         11.5880   52.3110  -13.2390 C.2   174  PHE174      0.2595
     41  O         10.5300   52.7090  -12.7570 O.2   174  PHE174     -0.2718
     42  CB        11.6680   51.7420  -15.6700 C.3   174  PHE174      0.0547
     43  CG        10.2120   51.3710  -15.6370 C.ar  174  PHE174     -0.0202
     44  CD1        9.2720   52.1490  -16.2940 C.ar  174  PHE174     -0.0042
     45  CD2        9.7720   50.2740  -14.9090 C.ar  174  PHE174     -0.0042
     46  CE1        7.9190   51.8250  -16.2440 C.ar  174  PHE174     -0.0003
     47  CE2        8.4280   49.9480  -14.8570 C.ar  174  PHE174     -0.0003
     48  CZ         7.4990   50.7240  -15.5310 C.ar  174  PHE174     -0.0000
     49  N         12.3990   51.4700  -12.6070 N.am  175  PHE175     -0.1976
     50  CA        12.0430   50.8970  -11.3050 C.3   175  PHE175      0.1639
     51  C         12.3610   51.8080  -10.1110 C.2   175  PHE175      0.2290
     52  O         12.2680   51.3800   -8.9550 O.2   175  PHE175     -0.2864
     53  CB        12.6570   49.4960  -11.1460 C.3   175  PHE175      0.0560
     54  CG        12.1650   48.5030  -12.1810 C.ar  175  PHE175     -0.0200
     55  CD1       10.9090   47.9240  -12.0620 C.ar  175  PHE175     -0.0042
     56  CD2       12.9510   48.1670  -13.2790 C.ar  175  PHE175     -0.0042
     57  CE1       10.4420   47.0070  -13.0140 C.ar  175  PHE175     -0.0003
     58  CE2       12.4960   47.2650  -14.2350 C.ar  175  PHE175     -0.0003
     59  CZ        11.2400   46.6820  -14.1040 C.ar  175  PHE175     -0.0000
     60  N          8.7130   42.0080  -12.6780 N.3   188  TYR188     -0.1227
     61  CA         7.5900   42.5940  -13.4000 C.3   188  TYR188      0.1736
     62  C          6.8520   41.5690  -14.2620 C.2   188  TYR188      0.2595
     63  O          7.2300   40.3880  -14.3200 O.2   188  TYR188     -0.2718
     64  CB         8.0770   43.7860  -14.2270 C.3   188  TYR188      0.0548
     65  CG         9.0100   43.3770  -15.3270 C.ar  188  TYR188     -0.0200
     66  CD1       10.3630   43.2500  -15.1030 C.ar  188  TYR188     -0.0009
     67  CD2        8.5280   43.0980  -16.5890 C.ar  188  TYR188     -0.0009
     68  CE1       11.2210   42.8600  -16.1120 C.ar  188  TYR188      0.0417
     69  CE2        9.3690   42.7010  -17.6090 C.ar  188  TYR188      0.0417
     70  CZ        10.7140   42.5850  -17.3670 C.ar  188  TYR188      0.1957
     71  OH        11.5440   42.1990  -18.3950 O.3   188  TYR188     -0.2866
     72  N          5.7950   42.0500  -14.9100 N.am  189  GLN189     -0.1979
     73  CA         4.9230   41.2670  -15.7680 C.3   189  GLN189      0.1601
     74  C          4.9810   41.8360  -17.1830 C.2   189  GLN189      0.2287
     75  O          4.9930   43.0540  -17.3730 O.2   189  GLN189     -0.2864
     76  CB         3.4820   41.3840  -15.2810 C.3   189  GLN189      0.0394
     77  CG         3.2600   40.9520  -13.8530 C.3   189  GLN189      0.0908
     78  CD         2.6300   39.5870  -13.7780 C.2   189  GLN189      0.2608
     79  OE1        2.0730   39.0870  -14.7570 O.2   189  GLN189     -0.2717
     80  NE2        2.7220   38.9640  -12.6170 N.am  189  GLN189     -0.0878
     81  N          1.0990   42.8810  -17.8150 N.3   192  ASP192     -0.1225
     82  CA         0.4600   43.6560  -16.7560 C.3   192  ASP192      0.1805
     83  C          1.3980   44.7070  -16.1950 C.2   192  ASP192      0.2598
     84  O          2.6060   44.6990  -16.4500 O.2   192  ASP192     -0.2718
     85  CB        -0.0220   42.7570  -15.6130 C.3   192  ASP192      0.1424
     86  CG        -1.0280   41.7230  -16.0680 C.2   192  ASP192      0.3668
     87  OD1       -2.1460   42.1100  -16.4590 O.co2 192  ASP192     -0.2456
     88  OD2       -0.7040   40.5180  -16.0260 O.co2 192  ASP192     -0.2456
     89  N          0.8260   45.6010  -15.4020 N.am  193  ASP193     -0.1960
     90  CA         1.5220   46.8040  -14.9860 C.3   193  ASP193      0.1840
     91  C          2.2610   46.6840  -13.6590 C.2   193  ASP193      0.2622
     92  O          3.1170   47.5140  -13.3510 O.2   193  ASP193     -0.2715
     93  CB         0.5390   47.9650  -14.9350 C.3   193  ASP193      0.1450
     94  CG         0.0390   48.3450  -16.3090 C.2   193  ASP193      0.3671
     95  OD1        0.8780   48.3760  -17.2340 O.co2 193  ASP193     -0.2456
     96  OD2       -1.1780   48.5910  -16.4670 O.co2 193  ASP193     -0.2456
     97  N          1.9500   45.6680  -12.8660 N.am  194  GLU194     -0.1963
     98  CA         2.5560   45.6510  -11.5380 C.3   194  GLU194      0.1733
     99  C          3.9820   45.1510  -11.5100 C.2   194  GLU194      0.2616
    100  O          4.3670   44.2540  -12.2420 O.2   194  GLU194     -0.2715
    101  CB         1.6910   44.9630  -10.4920 C.3   194  GLU194      0.0429
    102  CG         1.1430   43.6320  -10.8690 C.3   194  GLU194      0.1163
    103  CD         0.2830   43.0790   -9.7550 C.2   194  GLU194      0.3649
    104  OE1       -0.9580   43.0530   -9.9100 O.co2 194  GLU194     -0.2457
    105  OE2        0.8500   42.6930   -8.7090 O.co2 194  GLU194     -0.2457
    106  N          4.7790   45.7940  -10.6770 N.am  195  TRP195     -0.1974
    107  CA         6.1450   45.3860  -10.4740 C.3   195  TRP195      0.1640
    108  C          6.4780   45.6200   -9.0120 C.2   195  TRP195      0.2290
    109  O          5.6620   46.1570   -8.2750 O.2   195  TRP195     -0.2864
    110  CB         7.0860   46.1670  -11.3910 C.3   195  TRP195      0.0576
    111  CG         6.8860   47.6490  -11.4040 C.ar  195  TRP195      0.0006
    112  CD1        6.0710   48.3560  -12.2430 C.ar  195  TRP195      0.0946
    113  CD2        7.5380   48.6180  -10.5680 C.ar  195  TRP195      0.0152
    114  NE1        6.1650   49.6980  -11.9730 N.ar  195  TRP195     -0.2442
    115  CE2        7.0580   49.8880  -10.9510 C.ar  195  TRP195      0.0810
    116  CE3        8.4730   48.5350   -9.5290 C.ar  195  TRP195      0.0012
    117  CZ2        7.4810   51.0720  -10.3250 C.ar  195  TRP195      0.0191
    118  CZ3        8.8960   49.7110   -8.9100 C.ar  195  TRP195      0.0001
    119  CH2        8.3990   50.9600   -9.3110 C.ar  195  TRP195      0.0015
@<TRIPOS>BOND
     1    15    16    2
     2    15    14    1
     3    18    17    1
     4    13    14    1
     5    22    23    2
     6    22    21    1
     7    24    21    1
     8    24    25    1
     9    14    17    1
    10    21    20    1
    11    17    19    1
    12    25    27   ar
    13    25    26   ar
    14    27    29   ar
    15    26    28   ar
    16    29    30   ar
    17     3     4    2
    18     3     2    1
    19    28    30   ar
    20    12    11    1
    21     9    11   ar
    22     9     7   ar
    23    11    10   ar
    24     7     6   ar
    25     2     1    1
    26     2     5    1
    27    10     8   ar
    28     6     8   ar
    29     6     5    1
    30    71    70    1
    31    31    32    1
    32    35    36    1
    33    35    32    1
    34    35    37    1
    35    81    82    1
    36    69    70   ar
    37    69    67   ar
    38    32    33    1
    39    75    74    2
    40    70    68   ar
    41    95    94   ar
    42    74    73    1
    43    82    83    1
    44    82    85    1
    45    67    65   ar
    46    96    94   ar
    47    87    86   ar
    48    84    83    2
    49    94    93    1
    50    44    46   ar
    51    44    43   ar
    52    46    48   ar
    53    83    89   am
    54    68    66   ar
    55    86    88   ar
    56    86    85    1
    57    33    34    2
    58    73    76    1
    59    73    72    1
    60    42    43    1
    61    42    39    1
    62    43    45   ar
    63    48    47   ar
    64    89    90    1
    65    65    66   ar
    66    65    64    1
    67    76    77    1
    68    90    93    1
    69    90    91    1
    70    72    62   am
    71    45    47   ar
    72    79    78    2
    73    39    38    1
    74    39    40    1
    75    63    62    2
    76    62    61    1
    77    58    59   ar
    78    58    56   ar
    79    64    61    1
    80    59    57   ar
    81    77    78    1
    82    78    80   am
    83    91    92    2
    84    91    97   am
    85    61    60    1
    86    56    54   ar
    87    40    41    2
    88    40    49   am
    89    57    55   ar
    90    97    98    1
    91    49    50    1
    92   112   114   ar
    93   112   111   ar
    94   100    99    2
    95    54    55   ar
    96    54    53    1
    97   114   115   ar
    98    98    99    1
    99    98   101    1
   100    99   106   am
   101   111   110    1
   102   111   113   ar
   103   110   107    1
   104    50    53    1
   105    50    51    1
   106   115   113   ar
   107   115   117   ar
   108   102   101    1
   109   102   103    1
   110   106   107    1
   111   113   116   ar
   112   107   108    1
   113   117   119   ar
   114    51    52    2
   115   104   103   ar
   116   103   105   ar
   117   116   118   ar
   118   119   118   ar
   119   108   109    2
