@<TRIPOS>MOLECULE
tmp/4fa2A01.pdb
 184 173 0 0 0
SMALL
GASTEIGER

@<TRIPOS>ATOM
      1  N         -7.8630    1.9600   28.3640 N.3    27  VAL27      -0.1231
      2  CA        -6.4650    1.6290   28.5560 C.3    27  VAL27       0.1692
      3  C         -5.6310    2.8930   28.7120 C.2    27  VAL27       0.2592
      4  O         -4.7300    2.9540   29.5480 O.2    27  VAL27      -0.2718
      5  CB        -5.9340    0.8320   27.3710 C.3    27  VAL27       0.0266
      6  CG1       -4.4080    0.7690   27.4140 C.3    27  VAL27       0.0020
      7  CG2       -6.5470   -0.5370   27.3610 C.3    27  VAL27       0.0020
      8  N         -5.9430    3.9030   27.9080 N.am   28  GLY28      -0.1957
      9  CA        -5.2140    5.1680   27.9290 C.3    28  GLY28       0.1869
     10  C         -5.6960    6.1370   26.8590 C.2    28  GLY28       0.2309
     11  O         -6.4030    5.7490   25.9200 O.2    28  GLY28      -0.2863
     12  N         -7.8410    4.6960   23.7420 N.3    35  VAL35      -0.1245
     13  CA        -7.8790    3.2850   23.4630 C.3    35  VAL35       0.1561
     14  C         -8.5770    2.5270   24.5700 C.2    35  VAL35       0.2260
     15  O         -8.3830    2.8240   25.7490 O.2    35  VAL35      -0.2867
     16  CB        -6.4280    2.7490   23.3290 C.3    35  VAL35       0.0252
     17  CG1       -6.3960    1.1930   23.2420 C.3    35  VAL35       0.0019
     18  CG2       -5.7310    3.4070   22.1470 C.3    35  VAL35       0.0019
     19  N         -7.8850   -4.2730   21.0040 N.3    48  ALA48      -0.1245
     20  CA        -7.7160   -2.9040   21.4430 C.3    48  ALA48       0.1562
     21  C         -8.4430   -2.0620   20.3770 C.2    48  ALA48       0.2260
     22  O         -8.2400   -2.2660   19.1590 O.2    48  ALA48      -0.2867
     23  CB        -6.2250   -2.5270   21.5400 C.3    48  ALA48       0.0290
     24  N         -9.0970    1.8170   19.1130 N.3    50  LYS50      -0.1245
     25  CA        -8.6600    3.2000   19.2220 C.3    50  LYS50       0.1561
     26  C         -9.6750    4.1030   18.5560 C.2    50  LYS50       0.2260
     27  O        -10.0150    3.9110   17.3810 O.2    50  LYS50      -0.2867
     28  CB        -7.3190    3.4070   18.5150 C.3    50  LYS50       0.0271
     29  CG        -6.7900    4.8210   18.5300 C.3    50  LYS50       0.0035
     30  CD        -5.5130    4.9250   17.6360 C.3    50  LYS50       0.0206
     31  CE        -4.8710    6.2980   17.7100 C.3    50  LYS50       0.1093
     32  NZ        -3.6140    6.3610   16.8870 N.3    50  LYS50      -0.1314
     33  N         -2.8860    7.7220    8.8560 N.3    68  GLU68      -0.1245
     34  CA        -2.9050    6.6210    9.8100 C.3    68  GLU68       0.1567
     35  C         -3.7180    5.4490    9.2950 C.2    68  GLU68       0.2260
     36  O         -3.2700    4.2900    9.3570 O.2    68  GLU68      -0.2867
     37  CB        -3.4130    7.0830   11.1740 C.3    68  GLU68       0.0388
     38  CG        -3.4190    5.9310   12.1880 C.3    68  GLU68       0.1160
     39  CD        -3.6570    6.3760   13.6180 C.2    68  GLU68       0.3649
     40  OE1       -3.4590    5.5570   14.5450 O.co2  68  GLU68      -0.2457
     41  OE2       -4.0190    7.5390   13.8310 O.co2  68  GLU68      -0.2457
     42  N         -2.0950    1.8130    8.4890 N.3    72  LEU72      -0.1245
     43  CA        -2.6180    0.6270    9.2170 C.3    72  LEU72       0.1561
     44  C         -3.2390   -0.4070    8.2920 C.2    72  LEU72       0.2260
     45  O         -3.0940   -1.6130    8.5120 O.2    72  LEU72      -0.2867
     46  CB        -3.6210    1.0310   10.3160 C.3    72  LEU72       0.0270
     47  CG        -2.9990    1.6840   11.5260 C.3    72  LEU72       0.0019
     48  CD1       -4.0680    2.2240   12.4520 C.3    72  LEU72       0.0001
     49  CD2       -2.1280    0.6820   12.2770 C.3    72  LEU72       0.0001
     50  N          1.8390   -3.4030   14.1290 N.3    81  ILE81      -0.1231
     51  CA         0.3940   -3.2820   14.4140 C.3    81  ILE81       0.1692
     52  C         -0.3550   -3.1010   13.1110 C.2    81  ILE81       0.2593
     53  O         -0.0360   -2.1980   12.3220 O.2    81  ILE81      -0.2718
     54  CB         0.1080   -2.0750   15.3670 C.3    81  ILE81       0.0266
     55  CG1        0.6590   -2.3600   16.7770 C.3    81  ILE81       0.0019
     56  CG2       -1.3850   -1.7650   15.4800 C.3    81  ILE81       0.0020
     57  CD1       -0.1830   -3.3610   17.5990 C.3    81  ILE81       0.0001
     58  N         -1.3390   -3.9660   12.8860 N.am   82  GLY82      -0.1942
     59  CA        -2.2070   -3.8590   11.7400 C.3    82  GLY82       0.2014
     60  C         -3.6720   -3.8430   12.1660 C.2    82  GLY82       0.2638
     61  O         -4.0040   -3.8650   13.3740 O.2    82  GLY82      -0.2714
     62  N         -4.5510   -3.9030   11.1840 N.am   83  LEU83      -0.1977
     63  CA        -5.9710   -3.8160   11.4680 C.3    83  LEU83       0.1596
     64  C         -6.7740   -5.0840   11.3660 C.2    83  LEU83       0.2287
     65  O         -6.7400   -5.7890   10.3550 O.2    83  LEU83      -0.2864
     66  CB        -6.6340   -2.8100   10.5290 C.3    83  LEU83       0.0297
     67  CG        -6.3680   -1.3340   10.6550 C.3    83  LEU83       0.0022
     68  CD1       -7.0650   -0.6140    9.4850 C.3    83  LEU83       0.0001
     69  CD2       -6.8400   -0.7930   12.0230 C.3    83  LEU83       0.0001
     70  N        -10.4670    2.2710   15.1300 N.3   101  LEU101     -0.1231
     71  CA        -9.4950    1.3100   14.6290 C.3   101  LEU101      0.1693
     72  C         -9.3590    0.1630   15.6240 C.2   101  LEU101      0.2592
     73  O         -9.2920    0.3890   16.8230 O.2   101  LEU101     -0.2718
     74  CB        -8.1370    1.9870   14.4670 C.3   101  LEU101      0.0284
     75  CG        -8.1300    3.2500   13.6150 C.3   101  LEU101      0.0019
     76  CD1       -6.8110    4.0100   13.7840 C.3   101  LEU101      0.0001
     77  CD2       -8.3980    2.9330   12.1360 C.3   101  LEU101      0.0001
     78  N         -9.3390   -1.0610   15.1150 N.am  102  VAL102     -0.1966
     79  CA        -9.2750   -2.2480   15.9650 C.3   102  VAL102      0.1727
     80  C         -8.0700   -3.1140   15.6220 C.2   102  VAL102      0.2617
     81  O         -7.8290   -3.4200   14.4400 O.2   102  VAL102     -0.2715
     82  CB       -10.5340   -3.1210   15.7990 C.3   102  VAL102      0.0290
     83  CG1      -10.5150   -4.2970   16.7780 C.3   102  VAL102      0.0023
     84  CG2      -11.8380   -2.2930   15.9590 C.3   102  VAL102      0.0023
     85  N         -7.3290   -3.5350   16.6490 N.am  103  THR103     -0.1937
     86  CA        -6.1980   -4.4660   16.4660 C.3   103  THR103      0.2028
     87  C         -6.1840   -5.4880   17.6100 C.2   103  THR103      0.2642
     88  O         -6.9320   -5.3160   18.5890 O.2   103  THR103     -0.2714
     89  CB        -4.8440   -3.6980   16.4140 C.3   103  THR103      0.1808
     90  OG1       -3.8190   -4.5650   15.9300 O.3   103  THR103     -0.2208
     91  CG2       -4.4390   -3.1590   17.7970 C.3   103  THR103      0.0379
     92  N         -5.3410   -6.5260   17.4880 N.am  104  HIS104     -0.1959
     93  CA        -5.1890   -7.5470   18.5380 C.3   104  HIS104      0.1787
     94  C         -4.7360   -6.8360   19.7990 C.2   104  HIS104      0.2620
     95  O         -3.8940   -5.9370   19.7340 O.2   104  HIS104     -0.2715
     96  CB        -4.1050   -8.5950   18.1960 C.3   104  HIS104      0.0785
     97  CG        -4.4810   -9.5680   17.1180 C.ar  104  HIS104      0.0821
     98  ND1       -4.0910   -9.4140   15.8060 N.ar  104  HIS104     -0.2267
     99  CD2       -5.1540  -10.7410   17.1720 C.ar  104  HIS104      0.1154
    100  CE1       -4.5360  -10.4320   15.0920 C.ar  104  HIS104      0.1986
    101  NE2       -5.1850  -11.2520   15.8970 N.ar  104  HIS104     -0.2212
    102  N         -5.3030   -7.2030   20.9410 N.am  105  LEU105     -0.1963
    103  CA        -4.8710   -6.6180   22.1960 C.3   105  LEU105      0.1728
    104  C         -3.4690   -7.1290   22.5500 C.2   105  LEU105      0.2616
    105  O         -3.1980   -8.3450   22.5120 O.2   105  LEU105     -0.2715
    106  CB        -5.8420   -6.9670   23.3150 C.3   105  LEU105      0.0311
    107  CG        -5.5780   -6.3910   24.7190 C.3   105  LEU105      0.0022
    108  CD1       -5.6720   -4.8680   24.7020 C.3   105  LEU105      0.0001
    109  CD2       -6.5910   -6.9960   25.7190 C.3   105  LEU105      0.0001
    110  N         -2.5790   -6.2030   22.8780 N.am  106  MET106     -0.1963
    111  CA        -1.2340   -6.5770   23.2880 C.3   106  MET106      0.1736
    112  C         -1.1790   -6.4140   24.8100 C.2   106  MET106      0.2617
    113  O         -0.8240   -7.3630   25.5210 O.2   106  MET106     -0.2715
    114  CB        -0.1810   -5.7930   22.5150 C.3   106  MET106      0.0427
    115  CG        -0.2240   -6.0820   20.9910 C.3   106  MET106      0.0599
    116  SD         0.1900   -7.7890   20.4910 S.3   106  MET106     -0.1393
    117  CE         1.9890   -7.7900   20.7580 C.3   106  MET106      0.0692
    118  N         -1.5630   -5.2480   25.3140 N.am  107  GLY107     -0.1940
    119  CA        -1.6930   -5.0520   26.7550 C.3   107  GLY107      0.2014
    120  C         -0.5880   -4.3640   27.5400 C.2   107  GLY107      0.2639
    121  O         -0.8300   -3.8780   28.6530 O.2   107  GLY107     -0.2714
    122  N          0.6280   -4.3630   27.0140 N.am  108  ALA108     -0.1963
    123  CA         1.7370   -3.7000   27.6850 C.3   108  ALA108      0.1728
    124  C          2.6450   -3.0980   26.6300 C.2   108  ALA108      0.2616
    125  O          2.4850   -3.3780   25.4350 O.2   108  ALA108     -0.2715
    126  CB         2.5110   -4.6730   28.5350 C.3   108  ALA108      0.0334
    127  N          3.5640   -2.2450   27.0740 N.am  109  ASP109     -0.1971
    128  CA         4.5640   -1.6790   26.1790 C.3   109  ASP109      0.1709
    129  C          5.9230   -2.0360   26.7440 C.2   109  ASP109      0.2293
    130  O          6.0230   -2.5750   27.8590 O.2   109  ASP109     -0.2864
    131  CB         4.3540   -0.1820   25.8750 C.3   109  ASP109      0.1436
    132  CG         4.5110    0.7220   27.0880 C.2   109  ASP109      0.3671
    133  OD1        5.3630    0.4510   27.9530 O.co2 109  ASP109     -0.2456
    134  OD2        3.7940    1.7550   27.1230 O.co2 109  ASP109     -0.2456
    135  N          7.0560   -0.8470   30.2270 N.3   112  ASN112     -0.1240
    136  CA         6.5730   -1.6860   31.3570 C.3   112  ASN112      0.1653
    137  C          7.4800   -2.8850   31.6430 C.2   112  ASN112      0.2266
    138  O          7.6070   -3.3220   32.7880 O.2   112  ASN112     -0.2867
    139  CB         5.1630   -2.2070   31.0770 C.3   112  ASN112      0.1155
    140  CG         4.1590   -1.0930   30.8790 C.2   112  ASN112      0.2627
    141  OD1        3.2620   -1.1780   30.0220 O.2   112  ASN112     -0.2716
    142  ND2        4.3190   -0.0220   31.6460 N.am  112  ASN112     -0.0877
    143  N          7.5860    3.1400   24.5790 N.3   151  SER151     -0.1217
    144  CA         6.1350    3.3170   24.6450 C.3   151  SER151      0.1889
    145  C          5.3890    3.0390   23.3180 C.2   151  SER151      0.2288
    146  O          4.1710    2.8590   23.3350 O.2   151  SER151     -0.2866
    147  CB         5.8120    4.7230   25.1450 C.3   151  SER151      0.2089
    148  OG         6.2610    5.6920   24.2170 O.3   151  SER151     -0.2183
    149  N          4.5220   -2.4010   21.4560 N.3   154  ALA154     -0.1245
    150  CA         3.5160   -3.1560   22.1850 C.3   154  ALA154      0.1562
    151  C          4.0640   -4.5650   22.3790 C.2   154  ALA154      0.2260
    152  O          4.6430   -5.1380   21.4470 O.2   154  ALA154     -0.2867
    153  CB         2.2070   -3.1740   21.3940 C.3   154  ALA154      0.0290
    154  N          4.1910    0.0440   16.9730 N.3   164  LEU164     -0.1245
    155  CA         3.0480    0.9100   16.8140 C.3   164  LEU164      0.1561
    156  C          3.5890    2.1220   16.0360 C.2   164  LEU164      0.2260
    157  O          4.5280    2.7990   16.4980 O.2   164  LEU164     -0.2867
    158  CB         2.5650    1.3910   18.1880 C.3   164  LEU164      0.0270
    159  CG         1.8740    0.4770   19.1890 C.3   164  LEU164      0.0019
    160  CD1        2.2590    0.8800   20.6000 C.3   164  LEU164      0.0001
    161  CD2        0.3480    0.5010   19.0220 C.3   164  LEU164      0.0001
    162  N          1.9950    4.9090   15.2990 N.3   166  PHE166     -0.1227
    163  CA         1.4430    6.0730   16.0430 C.3   166  PHE166      0.1736
    164  C          0.9010    5.4230   17.3380 C.2   166  PHE166      0.2596
    165  O          0.2760    4.3830   17.2440 O.2   166  PHE166     -0.2718
    166  CB         0.2810    6.7530   15.2950 C.3   166  PHE166      0.0547
    167  CG         0.5600    7.0510   13.8390 C.ar  166  PHE166     -0.0202
    168  CD1        1.1910    8.2260   13.4660 C.ar  166  PHE166     -0.0042
    169  CD2        0.1660    6.1700   12.8400 C.ar  166  PHE166     -0.0042
    170  CE1        1.4390    8.5030   12.1400 C.ar  166  PHE166     -0.0003
    171  CE2        0.4130    6.4490   11.5100 C.ar  166  PHE166     -0.0003
    172  CZ         1.0460    7.6150   11.1620 C.ar  166  PHE166     -0.0000
    173  N          0.9700    6.0410   18.5150 N.am  167  GLY167     -0.1942
    174  CA         1.3930    7.4040   18.7400 C.3   167  GLY167      0.2014
    175  C          0.0920    8.1270   19.0900 C.2   167  GLY167      0.2638
    176  O         -0.4830    8.8170   18.2430 O.2   167  GLY167     -0.2714
    177  N         -0.4130    7.9170   20.3130 N.am  168  LEU168     -0.1977
    178  CA        -1.6580    8.5770   20.7500 C.3   168  LEU168      0.1596
    179  C         -1.4560   10.0920   20.8710 C.2   168  LEU168      0.2287
    180  O         -1.1480   10.6170   21.9430 O.2   168  LEU168     -0.2864
    181  CB        -2.1770    8.0160   22.0850 C.3   168  LEU168      0.0297
    182  CG        -2.6630    6.5630   22.1460 C.3   168  LEU168      0.0022
    183  CD1       -3.3420    6.2940   23.4910 C.3   168  LEU168      0.0001
    184  CD2       -3.6190    6.2690   21.0180 C.3   168  LEU168      0.0001
@<TRIPOS>BOND
     1    44    45    2
     2    44    43    1
     3    42    43    1
     4    33    34    1
     5    43    46    1
     6    35    36    2
     7    35    34    1
     8    68    67    1
     9    34    37    1
    10    46    47    1
    11    65    64    2
    12    66    67    1
    13    66    63    1
    14    67    69    1
    15   172   171   ar
    16   172   170   ar
    17    37    38    1
    18    62    63    1
    19    62    60   am
    20    64    63    1
    21   171   169   ar
    22    47    49    1
    23    47    48    1
    24    59    60    1
    25    59    58    1
    26    77    75    1
    27   170   168   ar
    28    60    61    2
    29    38    39    1
    30    53    52    2
    31   169   167   ar
    32    58    52   am
    33    52    51    1
    34   168   167   ar
    35    75    76    1
    36    75    74    1
    37    39    41   ar
    38    39    40   ar
    39   167   166    1
    40    50    51    1
    41    51    54    1
    42    81    80    2
    43    74    71    1
    44    71    70    1
    45    71    72    1
    46   100    98   ar
    47   100   101   ar
    48    78    72   am
    49    78    79    1
    50   166   163    1
    51   162   163    1
    52    54    56    1
    53    54    55    1
    54    80    79    1
    55    80    85   am
    56    72    73    2
    57    82    84    1
    58    82    79    1
    59    82    83    1
    60    98    97   ar
    61   101    99   ar
    62    90    89    1
    63   156   157    2
    64   156   155    1
    65   163   164    1
    66    89    86    1
    67    89    91    1
    68    86    85    1
    69    86    87    1
    70    55    57    1
    71   155   154    1
    72   155   158    1
    73    32    31    1
    74    97    99   ar
    75    97    96    1
    76   165   164    2
    77   164   173   am
    78    27    26    2
    79    92    87   am
    80    92    93    1
    81    87    88    2
    82    30    31    1
    83    30    29    1
    84   158   159    1
    85    96    93    1
    86   176   175    2
    87   173   174    1
    88    28    29    1
    89    28    25    1
    90    93    94    1
    91    26    25    1
    92   174   175    1
    93   161   159    1
    94   175   177   am
    95    24    25    1
    96    22    21    2
    97   159   160    1
    98    95    94    2
    99    94   102   am
   100   177   178    1
   101    21    20    1
   102   116   117    1
   103   116   115    1
   104   178   179    1
   105   178   181    1
   106   179   180    2
   107   102   103    1
   108   115   114    1
   109    19    20    1
   110   184   182    1
   111   153   150    1
   112    20    23    1
   113   152   151    2
   114   149   150    1
   115   181   182    1
   116   182   183    1
   117    18    16    1
   118   150   151    1
   119   103   104    1
   120   103   106    1
   121   105   104    2
   122   114   111    1
   123   104   110   am
   124   110   111    1
   125    17    16    1
   126   111   112    1
   127   106   107    1
   128   145   146    2
   129   145   144    1
   130    16    13    1
   131    13    12    1
   132    13    14    1
   133   148   147    1
   134    14    15    2
   135   143   144    1
   136   144   147    1
   137   108   107    1
   138   107   109    1
   139   112   118   am
   140   112   113    2
   141   118   119    1
   142   125   124    2
   143   131   128    1
   144   131   132    1
   145    11    10    2
   146   128   129    1
   147   128   127    1
   148   124   127   am
   149   124   123    1
   150   129   130    2
   151   119   120    1
   152    10     9    1
   153   122   120   am
   154   122   123    1
   155   132   134   ar
   156   132   133   ar
   157     7     5    1
   158     5     6    1
   159     5     2    1
   160   120   121    2
   161   123   126    1
   162     8     9    1
   163     8     3   am
   164     1     2    1
   165     2     3    1
   166     3     4    2
   167   141   140    2
   168   135   136    1
   169   140   139    1
   170   140   142   am
   171   139   136    1
   172   136   137    1
   173   137   138    2
