@<TRIPOS>MOLECULE
tmp/4fa3A01.pdb
 189 189 0 0 0
SMALL
GASTEIGER

@<TRIPOS>ATOM
      1  N          1.9600   -3.0150    9.0380 N.3    19  TYR19      -0.1241
      2  CA         0.5510   -3.0370    9.4710 C.3    19  TYR19       0.1605
      3  C         -0.3870   -3.5680    8.3560 C.2    19  TYR19       0.2264
      4  O         -0.3120   -3.1210    7.1920 O.2    19  TYR19      -0.2867
      5  CB         0.0480   -1.6740    9.9380 C.3    19  TYR19       0.0534
      6  CG        -1.3970   -1.7460   10.4500 C.ar   19  TYR19      -0.0201
      7  CD1       -1.6680   -2.2230   11.7380 C.ar   19  TYR19      -0.0009
      8  CD2       -2.4830   -1.4260    9.6310 C.ar   19  TYR19      -0.0009
      9  CE1       -2.9670   -2.3780   12.1930 C.ar   19  TYR19       0.0417
     10  CE2       -3.7980   -1.5620   10.0760 C.ar   19  TYR19       0.0417
     11  CZ        -4.0300   -2.0370   11.3830 C.ar   19  TYR19       0.1957
     12  OH        -5.3140   -2.1630   11.9000 O.3    19  TYR19      -0.2866
     13  N          0.6970   -2.6480   18.8080 N.3    49  LEU49      -0.1231
     14  CA        -0.5950   -2.5430   18.1070 C.3    49  LEU49       0.1693
     15  C         -0.8360   -3.5510   16.9520 C.2    49  LEU49       0.2592
     16  O         -1.9400   -4.0480   16.7790 O.2    49  LEU49      -0.2718
     17  CB        -0.8380   -1.1110   17.6140 C.3    49  LEU49       0.0284
     18  CG        -2.2590   -0.8480   17.1090 C.3    49  LEU49       0.0019
     19  CD1       -3.3260   -1.0370   18.1910 C.3    49  LEU49       0.0001
     20  CD2       -2.4210    0.5820   16.4280 C.3    49  LEU49       0.0001
     21  N          0.1970   -3.8790   16.1920 N.am   50  TYR50      -0.1976
     22  CA        -0.0140   -4.5190   14.9040 C.3    50  TYR50       0.1639
     23  C         -0.4070   -6.0110   15.0210 C.2    50  TYR50       0.2290
     24  O         -0.9220   -6.6280   14.0520 O.2    50  TYR50      -0.2864
     25  CB         1.2570   -4.3280   14.0690 C.3    50  TYR50       0.0560
     26  CG         1.5600   -2.8690   13.7380 C.ar   50  TYR50      -0.0198
     27  CD1        0.6730   -1.8220   14.0790 C.ar   50  TYR50      -0.0009
     28  CD2        2.7460   -2.5100   13.0710 C.ar   50  TYR50      -0.0009
     29  CE1        0.9700   -0.4890   13.7830 C.ar   50  TYR50       0.0417
     30  CE2        3.0400   -1.1530   12.7620 C.ar   50  TYR50       0.0417
     31  CZ         2.1440   -0.1650   13.1200 C.ar   50  TYR50       0.1957
     32  OH         2.4300    1.1510   12.8080 O.3    50  TYR50      -0.2866
     33  N          7.0600   -0.1850   18.8750 N.3    79  LYS79      -0.1245
     34  CA         6.4410    0.9720   19.4830 C.3    79  LYS79       0.1561
     35  C          5.5970    0.5950   20.7150 C.2    79  LYS79       0.2260
     36  O          4.8330   -0.3980   20.7030 O.2    79  LYS79      -0.2867
     37  CB         5.5500    1.6980   18.4790 C.3    79  LYS79       0.0271
     38  CG         6.0860    1.7990   17.0050 C.3    79  LYS79       0.0035
     39  CD         5.2570    2.8310   16.2430 C.3    79  LYS79       0.0206
     40  CE         5.6130    2.8890   14.7110 C.3    79  LYS79       0.1093
     41  NZ         5.3030    1.5430   13.9720 N.3    79  LYS79      -0.1314
     42  N          2.6820    0.9930   23.0260 N.3    81  TRP81      -0.1241
     43  CA         1.2990    1.3180   22.9130 C.3    81  TRP81       0.1605
     44  C          0.8500    2.3120   24.0480 C.2    81  TRP81       0.2264
     45  O          1.4590    2.4230   25.1020 O.2    81  TRP81      -0.2867
     46  CB         0.4370    0.0210   22.7970 C.3    81  TRP81       0.0550
     47  CG        -1.0250    0.3170   22.6020 C.ar   81  TRP81       0.0003
     48  CD1       -2.0720   -0.0890   23.4010 C.ar   81  TRP81       0.0946
     49  CD2       -1.6060    1.1200   21.5530 C.ar   81  TRP81       0.0152
     50  NE1       -3.2580    0.4530   22.9210 N.ar   81  TRP81      -0.2442
     51  CE2       -3.0020    1.1670   21.7820 C.ar   81  TRP81       0.0810
     52  CE3       -1.0780    1.7940   20.4480 C.ar   81  TRP81       0.0012
     53  CZ2       -3.8760    1.8680   20.9460 C.ar   81  TRP81       0.0191
     54  CZ3       -1.9250    2.4710   19.6060 C.ar   81  TRP81       0.0001
     55  CH2       -3.3240    2.5160   19.8580 C.ar   81  TRP81       0.0015
     56  N          4.3560    5.4090   20.5110 N.3   112  HIS112     -0.1226
     57  CA         3.4920    5.2330   19.3220 C.3   112  HIS112      0.1752
     58  C          2.6060    6.4790   19.0660 C.2   112  HIS112      0.2596
     59  O          2.3770    6.8540   17.9280 O.2   112  HIS112     -0.2718
     60  CB         2.6450    3.9170   19.4030 C.3   112  HIS112      0.0759
     61  CG         2.0710    3.4520   18.0890 C.ar  112  HIS112      0.0818
     62  ND1        1.7460    2.1380   17.8460 N.ar  112  HIS112     -0.2268
     63  CD2        1.7380    4.1320   16.9510 C.ar  112  HIS112      0.1154
     64  CE1        1.2780    2.0170   16.6140 C.ar  112  HIS112      0.1986
     65  NE2        1.2260    3.2210   16.0580 N.ar  112  HIS112     -0.2212
     66  N          2.1580    7.1320   20.1400 N.am  113  SER113     -0.1952
     67  CA         1.3580    8.3270   20.0320 C.3   113  SER113      0.1924
     68  C          1.4110    9.0840   21.3580 C.2   113  SER113      0.2314
     69  O          1.7020    8.4940   22.4020 O.2   113  SER113     -0.2863
     70  CB        -0.0700    7.9140   19.6350 C.3   113  SER113      0.2116
     71  OG        -1.0570    8.6160   20.2950 O.3   113  SER113     -0.2180
     72  N         -1.2860   10.3200   22.6490 N.3   115  MET115     -0.1245
     73  CA        -2.6290   10.3730   23.1550 C.3   115  MET115      0.1570
     74  C         -2.8010    9.2650   24.1580 C.2   115  MET115      0.2261
     75  O         -3.2200    8.2110   23.8060 O.2   115  MET115     -0.2867
     76  CB        -3.6700   10.2790   22.0240 C.3   115  MET115      0.0387
     77  CG        -3.8050   11.5750   21.2140 C.3   115  MET115      0.0595
     78  SD        -4.7540   11.4350   19.6590 S.3   115  MET115     -0.1393
     79  CE        -3.5820   10.3810   18.8170 C.3   115  MET115      0.0692
     80  N          3.8680   10.6060   16.0360 N.3   150  ASN150     -0.1240
     81  CA         2.6450   11.4360   16.1160 C.3   150  ASN150      0.1653
     82  C          2.7570   12.6510   17.0630 C.2   150  ASN150      0.2266
     83  O          1.7740   13.1770   17.5850 O.2   150  ASN150     -0.2867
     84  CB         1.4250   10.5620   16.4540 C.3   150  ASN150      0.1155
     85  CG         1.1200    9.5410   15.3610 C.2   150  ASN150      0.2627
     86  OD1        0.7590    9.9070   14.2170 O.2   150  ASN150     -0.2716
     87  ND2        1.3040    8.2400   15.6870 N.am  150  ASN150     -0.0877
     88  N          8.1510    9.8850   13.8530 N.3   173  GLN173     -0.1245
     89  CA         7.3740    9.2530   12.7750 C.3   173  GLN173      0.1566
     90  C          5.9460    9.8130   12.7890 C.2   173  GLN173      0.2260
     91  O          5.1960    9.6460   13.7670 O.2   173  GLN173     -0.2867
     92  CB         7.3920    7.7530   12.9170 C.3   173  GLN173      0.0367
     93  CG         6.6690    6.9310   11.8070 C.3   173  GLN173      0.0905
     94  CD         6.5850    5.4740   12.1380 C.2   173  GLN173      0.2608
     95  OE1        5.4770    4.8810   12.1690 O.2   173  GLN173     -0.2717
     96  NE2        7.7560    4.8540   12.3870 N.am  173  GLN173     -0.0878
     97  N          5.0810    8.2040    7.4390 N.3   199  TYR199     -0.1241
     98  CA         4.0820    7.1330    7.2330 C.3   199  TYR199      0.1605
     99  C          2.8940    7.6120    6.3880 C.2   199  TYR199      0.2264
    100  O          2.6420    8.8020    6.2470 O.2   199  TYR199     -0.2867
    101  CB         3.6240    6.5200    8.5630 C.3   199  TYR199      0.0534
    102  CG         2.5820    7.2780    9.4360 C.ar  199  TYR199     -0.0201
    103  CD1        1.2500    7.4210    9.0280 C.ar  199  TYR199     -0.0009
    104  CD2        2.9050    7.7190   10.7040 C.ar  199  TYR199     -0.0009
    105  CE1        0.3350    8.0070    9.8000 C.ar  199  TYR199      0.0417
    106  CE2        1.9700    8.3590   11.4910 C.ar  199  TYR199      0.0417
    107  CZ         0.6900    8.4970   11.0480 C.ar  199  TYR199      0.1957
    108  OH        -0.2710    9.0910   11.8600 O.3   199  TYR199     -0.2866
    109  N        -11.0180    4.7340   10.1720 N.3   210  TRP210     -0.1241
    110  CA       -10.3710    6.0220   10.3650 C.3   210  TRP210      0.1605
    111  C        -10.3480    6.9550    9.1600 C.2   210  TRP210      0.2264
    112  O        -10.1210    8.1300    9.3550 O.2   210  TRP210     -0.2867
    113  CB        -8.9200    5.8110   10.7760 C.3   210  TRP210      0.0550
    114  CG        -8.7850    5.1680   12.0570 C.ar  210  TRP210      0.0003
    115  CD1       -9.0810    5.6960   13.2660 C.ar  210  TRP210      0.0946
    116  CD2       -8.3630    3.8450   12.2670 C.ar  210  TRP210      0.0152
    117  NE1       -8.8510    4.7610   14.2400 N.ar  210  TRP210     -0.2442
    118  CE2       -8.3980    3.6150   13.6430 C.ar  210  TRP210      0.0810
    119  CE3       -7.9270    2.8430   11.4200 C.ar  210  TRP210      0.0012
    120  CZ2       -8.0210    2.4320   14.1960 C.ar  210  TRP210      0.0191
    121  CZ3       -7.5380    1.6990   11.9380 C.ar  210  TRP210      0.0001
    122  CH2       -7.6000    1.4680   13.3310 C.ar  210  TRP210      0.0015
    123  N         -5.9710    9.9130    8.4900 N.3   289  PHE289     -0.1227
    124  CA        -6.4970    9.4770    9.7900 C.3   289  PHE289      0.1736
    125  C         -7.2430   10.6880   10.4290 C.2   289  PHE289      0.2595
    126  O         -6.6280   11.6790   10.8290 O.2   289  PHE289     -0.2718
    127  CB        -5.3570    8.9550   10.7260 C.3   289  PHE289      0.0547
    128  CG        -4.7790    7.6440   10.2640 C.ar  289  PHE289     -0.0202
    129  CD1       -5.3220    6.4490   10.6910 C.ar  289  PHE289     -0.0042
    130  CD2       -3.7520    7.6220    9.3440 C.ar  289  PHE289     -0.0042
    131  CE1       -4.8390    5.2520   10.2340 C.ar  289  PHE289     -0.0003
    132  CE2       -3.2450    6.4250    8.8690 C.ar  289  PHE289     -0.0003
    133  CZ        -3.7840    5.2250    9.3300 C.ar  289  PHE289     -0.0000
    134  N         -8.5640   10.5550   10.5330 N.am  290  ASN290     -0.1960
    135  CA        -9.4290   11.6500   10.9230 C.3   290  ASN290      0.1819
    136  C        -10.7420   11.1410   11.5300 C.2   290  ASN290      0.2622
    137  O        -11.8000   11.1020   10.8380 O.2   290  ASN290     -0.2715
    138  CB        -9.7450   12.4930    9.6940 C.3   290  ASN290      0.1195
    139  CG       -10.5300   13.7250   10.0390 C.2   290  ASN290      0.2630
    140  OD1      -10.5470   14.1980   11.2260 O.2   290  ASN290     -0.2716
    141  ND2      -11.2140   14.2500    9.0450 N.am  290  ASN290     -0.0877
    142  N        -10.6650   10.7360   12.7980 N.am  291  SER291     -0.1950
    143  CA       -11.7460   10.0280   13.4910 C.3   291  SER291      0.1924
    144  C        -12.2100   10.6930   14.8000 C.2   291  SER291      0.2314
    145  O        -11.4040   11.2090   15.5410 O.2   291  SER291     -0.2863
    146  CB       -11.2990    8.6190   13.8510 C.3   291  SER291      0.2116
    147  OG       -12.3520    7.9420   14.5870 O.3   291  SER291     -0.2180
    148  N        -10.4060    9.8780   18.3600 N.3   294  PHE294     -0.1241
    149  CA        -9.2590   10.6110   18.9050 C.3   294  PHE294      0.1605
    150  C         -9.3100   12.1200   18.8130 C.2   294  PHE294      0.2264
    151  O         -8.5700   12.8090   19.5300 O.2   294  PHE294     -0.2867
    152  CB        -7.9470   10.1290   18.2680 C.3   294  PHE294      0.0534
    153  CG        -7.7550    8.6580   18.3990 C.ar  294  PHE294     -0.0203
    154  CD1       -7.7280    8.0670   19.6540 C.ar  294  PHE294     -0.0042
    155  CD2       -7.7270    7.8440   17.2680 C.ar  294  PHE294     -0.0042
    156  CE1       -7.6150    6.6920   19.7800 C.ar  294  PHE294     -0.0003
    157  CE2       -7.6310    6.4670   17.3820 C.ar  294  PHE294     -0.0003
    158  CZ        -7.5560    5.8900   18.6210 C.ar  294  PHE294     -0.0000
    159  N         -4.2740   15.5480   21.2230 N.3   300  TYR300     -0.1228
    160  CA        -4.4660   15.3250   19.7860 C.3   300  TYR300      0.1721
    161  C         -3.4050   16.1230   19.0550 C.2   300  TYR300      0.2437
    162  O         -3.2650   17.2710   19.3440 O.2   300  TYR300     -0.2733
    163  CB        -5.8460   15.8180   19.3590 C.3   300  TYR300      0.0547
    164  CG        -6.2450   15.5040   17.9290 C.ar  300  TYR300     -0.0200
    165  CD1       -6.1870   14.2160   17.4310 C.ar  300  TYR300     -0.0009
    166  CD2       -6.7870   16.4880   17.1260 C.ar  300  TYR300     -0.0009
    167  CE1       -6.6090   13.9160   16.1210 C.ar  300  TYR300      0.0417
    168  CE2       -7.2250   16.2130   15.8490 C.ar  300  TYR300      0.0417
    169  CZ        -7.1020   14.9440   15.3340 C.ar  300  TYR300      0.1957
    170  OH        -7.5330   14.7200   14.0470 O.3   300  TYR300     -0.2866
    171  N         -2.6190   15.4910   18.1630 N.am  301  PRO301     -0.2718
    172  CA        -1.5700   16.3020   17.5930 C.3   301  PRO301      0.1535
    173  C         -2.0370   17.3510   16.6050 C.2   301  PRO301      0.2598
    174  O         -1.3400   18.3520   16.4390 O.2   301  PRO301     -0.2715
    175  CB        -0.6610   15.2690   16.8810 C.3   301  PRO301      0.0310
    176  CG        -1.5130   14.1460   16.5600 C.3   301  PRO301      0.0237
    177  CD        -2.4830   14.0850   17.7490 C.3   301  PRO301      0.0939
    178  N         -3.1730   17.1480   15.9400 N.am  302  TYR302     -0.1974
    179  CA        -3.5090   18.0620   14.8280 C.3   302  TYR302      0.1639
    180  C         -4.2430   19.3070   15.3100 C.2   302  TYR302      0.2290
    181  O         -4.5190   20.2060   14.5360 O.2   302  TYR302     -0.2864
    182  CB        -4.2340   17.3330   13.6930 C.3   302  TYR302      0.0560
    183  CG        -3.4100   16.1520   13.1470 C.ar  302  TYR302     -0.0198
    184  CD1       -2.0360   16.2630   12.9460 C.ar  302  TYR302     -0.0009
    185  CD2       -4.0110   14.9470   12.8460 C.ar  302  TYR302     -0.0009
    186  CE1       -1.2910   15.2250   12.4580 C.ar  302  TYR302      0.0417
    187  CE2       -3.2810   13.8830   12.3570 C.ar  302  TYR302      0.0417
    188  CZ        -1.8980   14.0410   12.1490 C.ar  302  TYR302      0.1957
    189  OH        -1.1260   12.9980   11.6660 O.3   302  TYR302     -0.2866
@<TRIPOS>BOND
     1   100    99    2
     2    99    98    1
     3     4     3    2
     4    98    97    1
     5    98   101    1
     6     3     2    1
     7   123   124    1
     8   101   102    1
     9   132   133   ar
    10   132   130   ar
    11   103   102   ar
    12   103   105   ar
    13     1     2    1
    14   141   139   am
    15   111   112    2
    16   111   110    1
    17   133   131   ar
    18   130   128   ar
    19   102   104   ar
    20     2     5    1
    21     8    10   ar
    22     8     6   ar
    23   138   139    1
    24   138   135    1
    25   124   125    1
    26   124   127    1
    27   105   107   ar
    28     5     6    1
    29   139   140    2
    30    10    11   ar
    31   109   110    1
    32   131   129   ar
    33   128   129   ar
    34   128   127    1
    35   110   113    1
    36   125   134   am
    37   125   126    2
    38     6     7   ar
    39   134   135    1
    40   104   106   ar
    41   113   114    1
    42   137   136    2
    43   135   136    1
    44   107   106   ar
    45   107   108    1
    46    11    12    1
    47    11     9   ar
    48   119   121   ar
    49   119   116   ar
    50   136   142   am
    51   189   188    1
    52     7     9   ar
    53    93    94    1
    54    93    92    1
    55   121   122   ar
    56   114   116   ar
    57   114   115   ar
    58    94    95    2
    59    94    96   am
    60   188   187   ar
    61   188   186   ar
    62   116   118   ar
    63   187   185   ar
    64   186   184   ar
    65    30    28   ar
    66    30    31   ar
    67    89    90    1
    68    89    92    1
    69    89    88    1
    70    90    91    2
    71   142   143    1
    72    32    31    1
    73   185   183   ar
    74   184   183   ar
    75    28    26   ar
    76    31    29   ar
    77   183   182    1
    78   115   117   ar
    79   122   120   ar
    80   143   146    1
    81   143   144    1
    82   118   120   ar
    83   118   117   ar
    84   182   179    1
    85    26    25    1
    86    26    27   ar
    87    29    27   ar
    88   146   147    1
    89    41    40    1
    90   170   169    1
    91    24    23    2
    92    25    22    1
    93    86    85    2
    94   181   180    2
    95    40    39    1
    96   144   145    2
    97   179   180    1
    98   179   178    1
    99    22    23    1
   100    22    21    1
   101   169   168   ar
   102   169   167   ar
   103    85    87   am
   104    85    84    1
   105   168   166   ar
   106   178   173   am
   107    80    81    1
   108    65    64   ar
   109    65    63   ar
   110    81    84    1
   111    81    82    1
   112   167   165   ar
   113    21    15   am
   114    39    38    1
   115    20    18    1
   116   174   173    2
   117   176   175    1
   118   176   177    1
   119   173   172    1
   120    64    62   ar
   121    16    15    2
   122   175   172    1
   123    63    61   ar
   124    15    14    1
   125    38    37    1
   126    82    83    2
   127    18    17    1
   128    18    19    1
   129   166   164   ar
   130   155   157   ar
   131   155   153   ar
   132   157   158   ar
   133   165   164   ar
   134   172   171    1
   135    17    14    1
   136   177   171    1
   137    62    61   ar
   138    59    58    2
   139   164   163    1
   140    61    60    1
   141    14    13    1
   142   171   161   am
   143   152   153    1
   144   152   149    1
   145   148   149    1
   146   153   154   ar
   147    37    34    1
   148   158   156   ar
   149   150   149    1
   150   150   151    2
   151    79    78    1
   152    33    34    1
   153   161   162    2
   154   161   160    1
   155    58    57    1
   156    58    66   am
   157    57    60    1
   158    57    56    1
   159   163   160    1
   160    34    35    1
   161    54    55   ar
   162    54    52   ar
   163    70    67    1
   164    70    71    1
   165   154   156   ar
   166    78    77    1
   167   160   159    1
   168    55    53   ar
   169    67    66    1
   170    67    68    1
   171    52    49   ar
   172    36    35    2
   173    53    51   ar
   174    77    76    1
   175    68    69    2
   176    49    51   ar
   177    49    47   ar
   178    51    50   ar
   179    76    73    1
   180    47    46    1
   181    47    48   ar
   182    72    73    1
   183    46    43    1
   184    43    42    1
   185    43    44    1
   186    50    48   ar
   187    73    74    1
   188    75    74    2
   189    44    45    2
