@<TRIPOS>MOLECULE
tmp/4fa4A02.pdb
 108 106 0 0 0
SMALL
GASTEIGER

@<TRIPOS>ATOM
      1  N         10.0290   28.4110  -83.0820 N.3   164  SER164     -0.1203
      2  CA         9.4200   28.4150  -81.7610 C.3   164  SER164      0.2005
      3  C          7.9660   27.9710  -81.8600 C.2   164  SER164      0.2461
      4  O          7.0710   28.7900  -81.6740 O.2   164  SER164     -0.2732
      5  CB         9.5500   29.8000  -81.1160 C.3   164  SER164      0.2103
      6  OG        10.8800   30.2820  -81.3240 O.3   164  SER164     -0.2182
      7  N          7.7230   26.7000  -82.2160 N.am  165  PRO165     -0.2717
      8  CA         6.3330   26.3550  -82.4780 C.3   165  PRO165      0.1535
      9  C          5.4320   26.1480  -81.2340 C.2   165  PRO165      0.2598
     10  O          4.2220   25.9350  -81.3950 O.2   165  PRO165     -0.2715
     11  CB         6.4500   25.0380  -83.2860 C.3   165  PRO165      0.0310
     12  CG         7.7620   24.4080  -82.8330 C.3   165  PRO165      0.0237
     13  CD         8.6330   25.5230  -82.3460 C.3   165  PRO165      0.0939
     14  N          5.9820   26.1710  -80.0160 N.am  166  PHE166     -0.1974
     15  CA         5.1760   25.7720  -78.8250 C.3   166  PHE166      0.1639
     16  C          4.2160   24.6210  -79.0650 C.2   166  PHE166      0.2290
     17  O          3.0460   24.6900  -78.7270 O.2   166  PHE166     -0.2864
     18  CB         4.4270   26.9950  -78.2420 C.3   166  PHE166      0.0560
     19  CG         5.3660   28.0610  -77.8020 C.ar  166  PHE166     -0.0200
     20  CD1        5.7580   29.0770  -78.6910 C.ar  166  PHE166     -0.0042
     21  CD2        5.9220   28.0250  -76.5150 C.ar  166  PHE166     -0.0042
     22  CE1        6.6740   30.0720  -78.2950 C.ar  166  PHE166     -0.0003
     23  CE2        6.8320   29.0090  -76.1320 C.ar  166  PHE166     -0.0003
     24  CZ         7.2010   30.0390  -77.0260 C.ar  166  PHE166     -0.0000
     25  N          4.3730   19.3490  -73.3650 N.3   170  TYR170     -0.1227
     26  CA         4.1880   20.3280  -72.2970 C.3   170  TYR170      0.1736
     27  C          3.1920   21.4210  -72.7420 C.2   170  TYR170      0.2595
     28  O          2.2790   21.7540  -71.9940 O.2   170  TYR170     -0.2718
     29  CB         5.5030   20.9430  -71.8500 C.3   170  TYR170      0.0548
     30  CG         5.2920   22.1520  -70.9710 C.ar  170  TYR170     -0.0200
     31  CD1        5.1970   22.0230  -69.5680 C.ar  170  TYR170     -0.0009
     32  CD2        5.1220   23.4130  -71.5310 C.ar  170  TYR170     -0.0009
     33  CE1        4.9770   23.1530  -68.7470 C.ar  170  TYR170      0.0417
     34  CE2        4.8720   24.5440  -70.7220 C.ar  170  TYR170      0.0417
     35  CZ         4.8180   24.4170  -69.3370 C.ar  170  TYR170      0.1957
     36  OH         4.5760   25.5630  -68.5620 O.3   170  TYR170     -0.2866
     37  N          3.3360   21.9660  -73.9450 N.am  171  ASP171     -0.1974
     38  CA         2.3950   23.0030  -74.3930 C.3   171  ASP171      0.1709
     39  C          0.9850   22.4800  -74.5230 C.2   171  ASP171      0.2293
     40  O          0.0350   23.1650  -74.1610 O.2   171  ASP171     -0.2864
     41  CB         2.8440   23.6270  -75.7200 C.3   171  ASP171      0.1436
     42  CG         4.2670   24.1940  -75.6510 C.2   171  ASP171      0.3671
     43  OD1        5.1700   23.6700  -76.3330 O.co2 171  ASP171     -0.2456
     44  OD2        4.4950   25.1310  -74.8940 O.co2 171  ASP171     -0.2456
     45  N         -0.5510   22.1980  -70.9710 N.3   174  MET174     -0.1230
     46  CA        -0.8990   23.5360  -70.4860 C.3   174  MET174      0.1702
     47  C         -2.0610   24.1540  -71.2600 C.2   174  MET174      0.2592
     48  O         -2.6680   25.1200  -70.8060 O.2   174  MET174     -0.2718
     49  CB         0.3050   24.4390  -70.5130 C.3   174  MET174      0.0401
     50  CG         1.4240   24.0210  -69.5270 C.3   174  MET174      0.0596
     51  SD         0.9490   23.9250  -67.7950 S.3   174  MET174     -0.1393
     52  CE         1.1010   22.1850  -67.3650 C.3   174  MET174      0.0692
     53  N         -2.3990   23.5770  -72.4070 N.am  175  ARG175     -0.1980
     54  CA        -3.6330   23.9550  -73.0990 C.3   175  ARG175      0.1597
     55  C         -4.8230   23.0960  -72.6860 C.2   175  ARG175      0.2287
     56  O         -5.9190   23.3480  -73.1380 O.2   175  ARG175     -0.2864
     57  CB        -3.4710   23.9940  -74.6420 C.3   175  ARG175      0.0334
     58  CG        -2.7170   25.2540  -75.0750 C.3   175  ARG175      0.0492
     59  CD        -2.7310   25.5190  -76.5840 C.3   175  ARG175      0.2205
     60  NE        -1.7860   24.6750  -77.3060 N.pl3 175  ARG175     -0.0865
     61  CZ        -0.5130   24.9870  -77.5610 C.cat 175  ARG175      0.5346
     62  NH1        0.0450   26.1370  -77.1550 N.pl3 175  ARG175      0.1354
     63  NH2        0.2210   24.1190  -78.2260 N.pl3 175  ARG175      0.1354
     64  N          3.6660   32.4120  -67.1070 N.3   208  ALA208     -0.1231
     65  CA         4.2680   32.9580  -68.3150 C.3   208  ALA208      0.1694
     66  C          3.4570   32.6110  -69.5740 C.2   208  ALA208      0.2592
     67  O          3.0740   31.4550  -69.7520 O.2   208  ALA208     -0.2718
     68  CB         5.6560   32.4730  -68.4600 C.3   208  ALA208      0.0304
     69  N          3.2270   33.5670  -70.4620 N.am  209  GLU209     -0.1966
     70  CA         2.4400   33.2470  -71.6530 C.3   209  GLU209      0.1733
     71  C          3.1890   32.2890  -72.6000 C.2   209  GLU209      0.2616
     72  O          2.6100   31.3240  -73.1340 O.2   209  GLU209     -0.2715
     73  CB         1.9940   34.5050  -72.3900 C.3   209  GLU209      0.0429
     74  CG         0.7920   34.2330  -73.3050 C.3   209  GLU209      0.1163
     75  CD         0.5050   35.3530  -74.2880 C.2   209  GLU209      0.3649
     76  OE1        0.0110   36.4170  -73.8300 O.co2 209  GLU209     -0.2457
     77  OE2        0.7610   35.1610  -75.5080 O.co2 209  GLU209     -0.2457
     78  N          4.4720   32.5520  -72.8170 N.am  210  ARG210     -0.1963
     79  CA         5.2680   31.6820  -73.6850 C.3   210  ARG210      0.1729
     80  C          6.4820   31.1790  -72.9490 C.2   210  ARG210      0.2616
     81  O          7.6030   31.6330  -73.1870 O.2   210  ARG210     -0.2715
     82  CB         5.6460   32.4170  -74.9740 C.3   210  ARG210      0.0348
     83  CG         4.4360   32.5600  -75.9650 C.3   210  ARG210      0.0492
     84  CD         4.8360   33.2410  -77.2790 C.3   210  ARG210      0.2205
     85  NE         5.4550   34.5310  -77.0140 N.pl3 210  ARG210     -0.0865
     86  CZ         6.0520   35.3140  -77.9240 C.cat 210  ARG210      0.5346
     87  NH1        6.1540   34.9570  -79.2170 N.pl3 210  ARG210      0.1354
     88  NH2        6.5660   36.4800  -77.5230 N.pl3 210  ARG210      0.1354
     89  N          6.2610   30.2560  -72.0290 N.am  211  GLU211     -0.1977
     90  CA         7.3530   29.7100  -71.2180 C.3   211  GLU211      0.1602
     91  C          8.4870   29.1120  -72.0480 C.2   211  GLU211      0.2287
     92  O          8.2290   28.3110  -72.9220 O.2   211  GLU211     -0.2864
     93  CB         6.8390   28.6270  -70.2840 C.3   211  GLU211      0.0415
     94  CG         7.9280   28.1750  -69.2880 C.3   211  GLU211      0.1163
     95  CD         8.4870   29.3320  -68.4050 C.2   211  GLU211      0.3649
     96  OE1        9.6900   29.6670  -68.5800 O.co2 211  GLU211     -0.2457
     97  OE2        7.7240   29.9020  -67.5460 O.co2 211  GLU211     -0.2457
     98  N         13.9570   23.9610  -73.7500 N.3   265  ARG265     -0.1245
     99  CA        13.1200   23.3740  -74.7640 C.3   265  ARG265      0.1563
    100  C         13.9800   22.5130  -75.6690 C.2   265  ARG265      0.2260
    101  O         15.1320   22.8400  -75.9220 O.2   265  ARG265     -0.2867
    102  CB        12.2900   24.4230  -75.5010 C.3   265  ARG265      0.0307
    103  CG        11.1190   24.9070  -74.6410 C.3   265  ARG265      0.0489
    104  CD        10.2710   25.9650  -75.3850 C.3   265  ARG265      0.2205
    105  NE         9.0540   26.3370  -74.6110 N.pl3 265  ARG265     -0.0865
    106  CZ         7.8840   25.7180  -74.7160 C.cat 265  ARG265      0.5346
    107  NH1        7.7590   24.7420  -75.5990 N.pl3 265  ARG265      0.1354
    108  NH2        6.8400   26.0630  -73.9680 N.pl3 265  ARG265      0.1354
@<TRIPOS>BOND
     1    11    12    1
     2    11     8    1
     3     1     2    1
     4    12    13    1
     5     8     7    1
     6     8     9    1
     7    13     7    1
     8     7     3   am
     9     3     2    1
    10     3     4    2
    11     2     5    1
    12    10     9    2
    13     6     5    1
    14     9    14   am
    15    14    15    1
    16    87    86    1
    17    16    15    1
    18    16    17    2
    19    15    18    1
    20    20    22   ar
    21    20    19   ar
    22    22    24   ar
    23    18    19    1
    24    63    61    1
    25    86    88    1
    26    86    85    2
    27    19    21   ar
    28    61    60    2
    29    61    62    1
    30    60    59    1
    31    84    85    1
    32    84    83    1
    33    24    23   ar
    34    59    58    1
    35    21    23   ar
    36    43    42   ar
    37    83    82    1
    38   101   100    2
    39    41    42    1
    40    41    38    1
    41   100    99    1
    42    42    44   ar
    43   107   106    1
    44    77    75   ar
    45   102    99    1
    46   102   103    1
    47   104   103    1
    48   104   105    1
    49    58    57    1
    50    82    79    1
    51    99    98    1
    52   106   105    2
    53   106   108    1
    54    57    54    1
    55    39    38    1
    56    39    40    2
    57    38    37    1
    58    75    76   ar
    59    75    74    1
    60    37    27   am
    61    79    80    1
    62    79    78    1
    63    25    26    1
    64    74    73    1
    65    81    80    2
    66    56    55    2
    67    72    71    2
    68    54    55    1
    69    54    53    1
    70    80    89   am
    71    92    91    2
    72    78    71   am
    73    27    26    1
    74    27    28    2
    75    71    70    1
    76    53    47   am
    77    73    70    1
    78    26    29    1
    79    91    90    1
    80    89    90    1
    81    29    30    1
    82    70    69    1
    83    32    30   ar
    84    32    34   ar
    85    47    48    2
    86    47    46    1
    87    90    93    1
    88    45    46    1
    89    30    31   ar
    90    34    35   ar
    91    49    46    1
    92    49    50    1
    93    69    66   am
    94    93    94    1
    95    67    66    2
    96    66    65    1
    97    31    33   ar
    98    50    51    1
    99    35    33   ar
   100    35    36    1
   101    94    95    1
   102    96    95   ar
   103    68    65    1
   104    95    97   ar
   105    65    64    1
   106    51    52    1
