@<TRIPOS>MOLECULE
tmp/4fa6A00.pdb
 182 169 0 0 0
SMALL
GASTEIGER

@<TRIPOS>ATOM
      1  N         47.2130   17.4680   41.5710 N.3   567  MET567     -0.1245
      2  CA        46.9570   18.5570   40.6340 C.3   567  MET567      0.1570
      3  C         45.8850   19.5660   40.9750 C.2   567  MET567      0.2261
      4  O         44.9790   19.2740   41.7580 O.2   567  MET567     -0.2867
      5  CB        46.8510   18.0470   39.2020 C.3   567  MET567      0.0387
      6  CG        48.1550   17.4850   38.6890 C.3   567  MET567      0.0595
      7  SD        47.9420   16.6840   37.1070 S.3   567  MET567     -0.1393
      8  CE        46.9960   15.2190   37.5990 C.3   567  MET567      0.0692
      9  N         43.1200   20.7540   39.7580 N.3   569  SER569     -0.1217
     10  CA        41.6640   20.6740   39.5110 C.3   569  SER569      0.1889
     11  C         40.8970   20.6600   40.8560 C.2   569  SER569      0.2288
     12  O         41.4620   20.2290   41.8670 O.2   569  SER569     -0.2866
     13  CB        41.3060   19.4530   38.6510 C.3   569  SER569      0.2089
     14  OG        39.9090   19.2420   38.4600 O.3   569  SER569     -0.2183
     15  N         43.4340   15.2300   41.3540 N.3   573  PRO573     -0.2116
     16  CA        43.9080   14.0020   40.7120 C.3   573  PRO573      0.1372
     17  C         45.3730   13.7050   40.9820 C.2   573  PRO573      0.2244
     18  O         46.1950   14.6070   41.1150 O.2   573  PRO573     -0.2868
     19  CB        43.6410   14.2530   39.2250 C.3   573  PRO573      0.0268
     20  CG        43.3700   15.7400   39.0910 C.3   573  PRO573      0.0207
     21  CD        43.5270   16.3770   40.4270 C.3   573  PRO573      0.0892
     22  N         48.8260   12.4350   39.6130 N.3   575  TRP575     -0.1241
     23  CA        49.6560   12.2660   38.4210 C.3   575  TRP575      0.1605
     24  C         50.7360   11.3350   38.9240 C.2   575  TRP575      0.2264
     25  O         51.5450   11.7420   39.7520 O.2   575  TRP575     -0.2867
     26  CB        50.2730   13.6110   37.9870 C.3   575  TRP575      0.0550
     27  CG        51.1730   13.5730   36.7790 C.ar  575  TRP575      0.0003
     28  CD1       52.4570   13.1120   36.7270 C.ar  575  TRP575      0.0946
     29  CD2       50.9000   14.1480   35.4910 C.ar  575  TRP575      0.0152
     30  NE1       52.9850   13.3220   35.4730 N.ar  575  TRP575     -0.2442
     31  CE2       52.0590   13.9770   34.7010 C.ar  575  TRP575      0.0810
     32  CE3       49.7760   14.7780   34.9180 C.ar  575  TRP575      0.0012
     33  CZ2       52.1300   14.4130   33.3730 C.ar  575  TRP575      0.0191
     34  CZ3       49.8640   15.2540   33.6190 C.ar  575  TRP575      0.0001
     35  CH2       51.0160   15.0400   32.8480 C.ar  575  TRP575      0.0015
     36  N         47.1060    8.6690   35.5110 N.3   594  ILE594     -0.1245
     37  CA        46.3360    9.6740   36.2450 C.3   594  ILE594      0.1561
     38  C         45.2260    8.9810   37.0300 C.2   594  ILE594      0.2260
     39  O         44.1620    8.6850   36.4770 O.2   594  ILE594     -0.2867
     40  CB        45.7670   10.8420   35.3750 C.3   594  ILE594      0.0252
     41  CG1       46.8710   11.6540   34.7050 C.3   594  ILE594      0.0019
     42  CG2       44.8500   11.7710   36.2090 C.3   594  ILE594      0.0019
     43  CD1       46.4110   12.4750   33.5200 C.3   594  ILE594      0.0001
     44  N         42.2430    9.3310   39.2190 N.3   596  LYS596     -0.1245
     45  CA        41.2940   10.4010   39.5360 C.3   596  LYS596      0.1561
     46  C         39.9410    9.8810   40.0690 C.2   596  LYS596      0.2260
     47  O         39.4690    8.8290   39.6370 O.2   596  LYS596     -0.2867
     48  CB        41.1070   11.3170   38.2980 C.3   596  LYS596      0.0271
     49  CG        40.3130   12.6060   38.5350 C.3   596  LYS596      0.0035
     50  CD        40.3550   13.5980   37.3580 C.3   596  LYS596      0.0206
     51  CE        39.3980   13.2930   36.2200 C.3   596  LYS596      0.1093
     52  NZ        37.9690   13.5010   36.5820 N.3   596  LYS596     -0.1314
     53  N         33.9080    7.5690   34.8790 N.3   601  LEU601     -0.1245
     54  CA        34.8800    7.2550   33.8340 C.3   601  LEU601      0.1561
     55  C         34.3880    6.1960   32.8340 C.2   601  LEU601      0.2260
     56  O         35.0360    5.9790   31.8160 O.2   601  LEU601     -0.2867
     57  CB        36.2140    6.8470   34.4880 C.3   601  LEU601      0.0270
     58  CG        37.4200    7.7650   34.2810 C.3   601  LEU601      0.0019
     59  CD1       37.0330    9.2260   34.0960 C.3   601  LEU601      0.0001
     60  CD2       38.3500    7.6560   35.4210 C.3   601  LEU601      0.0001
     61  N         33.5160    7.8940   29.5870 N.3   604  ASP604     -0.1239
     62  CA        34.7730    8.1730   28.9020 C.3   604  ASP604      0.1674
     63  C         35.2940    6.9260   28.1980 C.2   604  ASP604      0.2266
     64  O         35.7120    7.0230   27.0480 O.2   604  ASP604     -0.2867
     65  CB        35.7960    8.7640   29.8720 C.3   604  ASP604      0.1410
     66  CG        35.3340   10.0800   30.4920 C.2   604  ASP604      0.3668
     67  OD1       34.3980   10.0480   31.3440 O.co2 604  ASP604     -0.2456
     68  OD2       35.8810   11.1370   30.1130 O.co2 604  ASP604     -0.2456
     69  N         43.2880    7.5370   24.2050 N.3   630  TYR630     -0.1241
     70  CA        44.0900    7.1820   25.3690 C.3   630  TYR630      0.1605
     71  C         43.4330    6.1130   26.2530 C.2   630  TYR630      0.2264
     72  O         42.2030    5.9400   26.2260 O.2   630  TYR630     -0.2867
     73  CB        44.4660    8.4600   26.1850 C.3   630  TYR630      0.0534
     74  CG        43.2780    9.2650   26.6800 C.ar  630  TYR630     -0.0201
     75  CD1       42.6890    8.9910   27.9100 C.ar  630  TYR630     -0.0009
     76  CD2       42.7640   10.3210   25.9320 C.ar  630  TYR630     -0.0009
     77  CE1       41.5800    9.7090   28.3590 C.ar  630  TYR630      0.0417
     78  CE2       41.6480   11.0390   26.3630 C.ar  630  TYR630      0.0417
     79  CZ        41.0600   10.7300   27.5790 C.ar  630  TYR630      0.1957
     80  OH        39.9510   11.4210   28.0100 O.3   630  TYR630     -0.2866
     81  N         41.9270    4.4010   29.4720 N.3   632  CYS632     -0.1235
     82  CA        40.9540    4.8640   30.4590 C.3   632  CYS632      0.1677
     83  C         40.1640    3.6590   30.9300 C.2   632  CYS632      0.2270
     84  O         39.5600    2.9540   30.1100 O.2   632  CYS632     -0.2867
     85  CB        40.0360    5.9260   29.8560 C.3   632  CYS632      0.0956
     86  SG        38.7470    6.5070   30.9840 S.3   632  CYS632     -0.0801
     87  N         43.4960    7.1800   34.0780 N.3   642  ILE642     -0.1231
     88  CA        43.6950    7.7900   32.7650 C.3   642  ILE642      0.1692
     89  C         45.1780    7.5610   32.3860 C.2   642  ILE642      0.2592
     90  O         46.0540    7.5280   33.2560 O.2   642  ILE642     -0.2718
     91  CB        43.3100    9.3020   32.8200 C.3   642  ILE642      0.0266
     92  CG1       41.8190    9.5090   33.1850 C.3   642  ILE642      0.0019
     93  CG2       43.6400   10.0220   31.5240 C.3   642  ILE642      0.0020
     94  CD1       41.5410    9.9050   34.5910 C.3   642  ILE642      0.0001
     95  N         45.4490    7.3470   31.0950 N.am  643  GLU643     -0.1966
     96  CA        46.8100    7.1660   30.5910 C.3   643  GLU643      0.1733
     97  C         47.4640    8.5400   30.4360 C.2   643  GLU643      0.2616
     98  O         46.8220    9.4470   29.9100 O.2   643  GLU643     -0.2715
     99  CB        46.7520    6.4820   29.2230 C.3   643  GLU643      0.0429
    100  CG        48.1070    6.2990   28.5590 C.3   643  GLU643      0.1163
    101  CD        48.1020    6.1090   27.0580 C.2   643  GLU643      0.3649
    102  OE1       49.1800    6.3080   26.4550 O.co2 643  GLU643     -0.2457
    103  OE2       47.0380    5.7800   26.4800 O.co2 643  GLU643     -0.2457
    104  N         48.7360    8.6930   30.8470 N.am  644  ILE644     -0.1963
    105  CA        49.4440    9.9560   30.6110 C.3   644  ILE644      0.1727
    106  C         50.1160    9.9290   29.2240 C.2   644  ILE644      0.2616
    107  O         51.0560    9.1500   29.0020 O.2   644  ILE644     -0.2715
    108  CB        50.4390   10.3920   31.7370 C.3   644  ILE644      0.0290
    109  CG1       49.7020   10.7170   33.0540 C.3   644  ILE644      0.0022
    110  CG2       51.3110   11.5950   31.2710 C.3   644  ILE644      0.0023
    111  CD1       50.5600   10.7690   34.2670 C.3   644  ILE644      0.0001
    112  N         49.6280   10.7950   28.3090 N.am  645  VAL645     -0.1977
    113  CA        50.2000   10.9890   26.9700 C.3   645  VAL645      0.1596
    114  C         51.4590   11.8460   27.1690 C.2   645  VAL645      0.2287
    115  O         51.3580   12.9520   27.7180 O.2   645  VAL645     -0.2864
    116  CB        49.2130   11.6350   25.9540 C.3   645  VAL645      0.0276
    117  CG1       49.9180   11.9470   24.6450 C.3   645  VAL645      0.0022
    118  CG2       48.0220   10.7280   25.6950 C.3   645  VAL645      0.0022
    119  N         52.8230   16.3690   26.3120 N.3   648  ALA648     -0.1245
    120  CA        51.5680   17.0390   25.9740 C.3   648  ALA648      0.1562
    121  C         51.1770   18.1120   26.9840 C.2   648  ALA648      0.2260
    122  O         51.5310   18.0430   28.1630 O.2   648  ALA648     -0.2867
    123  CB        50.4480   16.0210   25.7880 C.3   648  ALA648      0.0290
    124  N         47.8390   21.1620   27.7950 N.3   650  THR650     -0.1218
    125  CA        46.4880   21.6240   27.5560 C.3   650  THR650      0.1862
    126  C         46.5340   22.8600   26.6220 C.2   650  THR650      0.2287
    127  O         47.5300   23.5860   26.6120 O.2   650  THR650     -0.2866
    128  CB        45.7960   21.7910   28.9190 C.3   650  THR650      0.1770
    129  OG1       45.0780   20.5930   29.1820 O.3   650  THR650     -0.2211
    130  CG2       44.8520   22.9770   28.9970 C.3   650  THR650      0.0375
    131  N         46.5650   26.0240   28.8120 N.3   653  LYS653     -0.1245
    132  CA        47.9050   26.1890   29.4050 C.3   653  LYS653      0.1561
    133  C         48.8470   26.9740   28.4690 C.2   653  LYS653      0.2260
    134  O         49.6460   27.7800   28.9500 O.2   653  LYS653     -0.2867
    135  CB        48.5500   24.8230   29.7060 C.3   653  LYS653      0.0271
    136  CG        48.2340   24.2050   31.0620 C.3   653  LYS653      0.0035
    137  CD        49.0090   22.8870   31.2040 C.3   653  LYS653      0.0206
    138  CE        48.5410   21.9470   32.2910 C.3   653  LYS653      0.1093
    139  NZ        49.1020   20.5750   32.0930 N.3   653  LYS653     -0.1314
    140  N         40.6580   24.1200   28.1540 N.3   713  ASP713     -0.1239
    141  CA        41.0240   23.3730   29.3510 C.3   713  ASP713      0.1674
    142  C         41.0170   21.8420   29.0710 C.2   713  ASP713      0.2266
    143  O         41.8830   21.1010   29.5630 O.2   713  ASP713     -0.2867
    144  CB        39.9350   23.7650   30.4000 C.3   713  ASP713      0.1410
    145  CG        39.8480   23.0420   31.7390 C.2   713  ASP713      0.3668
    146  OD1       40.8940   22.5290   32.2150 O.co2 713  ASP713     -0.2456
    147  OD2       38.7480   23.0580   32.3520 O.co2 713  ASP713     -0.2456
    148  N         43.9010   19.0930   24.3810 N.3   716  MET716     -0.1245
    149  CA        45.3340   19.0140   24.5770 C.3   716  MET716      0.1570
    150  C         46.0290   18.8720   23.2070 C.2   716  MET716      0.2261
    151  O         45.3530   18.6520   22.1810 O.2   716  MET716     -0.2867
    152  CB        45.6670   17.8260   25.4930 C.3   716  MET716      0.0387
    153  CG        45.2070   17.9900   26.9200 C.3   716  MET716      0.0595
    154  SD        46.0300   16.7580   27.9460 S.3   716  MET716     -0.1393
    155  CE        47.5220   17.5840   28.3880 C.3   716  MET716      0.0692
    156  N         44.3960   16.3540   20.7030 N.3   724  PHE724     -0.1241
    157  CA        43.4560   15.4020   21.3060 C.3   724  PHE724      0.1605
    158  C         42.5570   15.9940   22.3900 C.2   724  PHE724      0.2264
    159  O         43.0370   16.6970   23.2880 O.2   724  PHE724     -0.2867
    160  CB        44.1430   14.1170   21.8080 C.3   724  PHE724      0.0534
    161  CG        45.1490   14.2810   22.9170 C.ar  724  PHE724     -0.0203
    162  CD1       44.8480   13.8860   24.2130 C.ar  724  PHE724     -0.0042
    163  CD2       46.4250   14.7760   22.6560 C.ar  724  PHE724     -0.0042
    164  CE1       45.7960   14.0000   25.2350 C.ar  724  PHE724     -0.0003
    165  CE2       47.3770   14.8970   23.6850 C.ar  724  PHE724     -0.0003
    166  CZ        47.0570   14.5010   24.9640 C.ar  724  PHE724     -0.0000
    167  N         40.0850   15.5760   25.6960 N.3   726  ILE726     -0.1231
    168  CA        40.1330   14.7700   26.9160 C.3   726  ILE726      0.1692
    169  C         38.8380   14.9810   27.6910 C.2   726  ILE726      0.2592
    170  O         37.9800   15.7380   27.2690 O.2   726  ILE726     -0.2718
    171  CB        41.3840   15.0860   27.7800 C.3   726  ILE726      0.0266
    172  CG1       41.5230   16.6140   28.0590 C.3   726  ILE726      0.0019
    173  CG2       42.6630   14.4630   27.2100 C.3   726  ILE726      0.0020
    174  CD1       42.0440   16.9910   29.4740 C.3   726  ILE726      0.0001
    175  N         38.7070   14.2840   28.7990 N.am  727  ASP727     -0.1974
    176  CA        37.6450   14.3650   29.7910 C.3   727  ASP727      0.1709
    177  C         36.2490   14.5610   29.2480 C.2   727  ASP727      0.2293
    178  O         35.7070   15.6570   29.2810 O.2   727  ASP727     -0.2864
    179  CB        38.0190   15.4130   30.8630 C.3   727  ASP727      0.1436
    180  CG        37.1020   15.4780   32.0710 C.2   727  ASP727      0.3671
    181  OD1       36.5450   14.4250   32.4530 O.co2 727  ASP727     -0.2456
    182  OD2       36.9220   16.5830   32.6150 O.co2 727  ASP727     -0.2456
@<TRIPOS>BOND
     1   156   157    1
     2   157   160    1
     3   157   158    1
     4   160   161    1
     5   151   150    2
     6   158   159    2
     7   163   161   ar
     8   163   165   ar
     9   161   162   ar
    10   150   149    1
    11   165   166   ar
    12    69    70    1
    13   162   164   ar
    14   148   149    1
    15   149   152    1
    16   117   116    1
    17   166   164   ar
    18    70    73    1
    19    70    71    1
    20   152   153    1
    21   118   116    1
    22   167   168    1
    23   123   120    1
    24    76    78   ar
    25    76    74   ar
    26   116   113    1
    27   120   119    1
    28   120   121    1
    29    73    74    1
    30    72    71    2
    31    78    79   ar
    32   102   101   ar
    33   103   101   ar
    34   127   126    2
    35   126   125    1
    36    74    75   ar
    37   168   169    1
    38   168   171    1
    39   153   154    1
    40   113   114    1
    41   113   112    1
    42   121   122    2
    43    64    63    2
    44   101   100    1
    45   114   115    2
    46   173   171    1
    47   170   169    2
    48   125   124    1
    49   125   128    1
    50    79    80    1
    51    79    77   ar
    52   169   175   am
    53   171   172    1
    54    75    77   ar
    55   154   155    1
    56   172   174    1
    57   140   141    1
    58    63    62    1
    59   112   106   am
    60   133   134    2
    61   133   132    1
    62   100    99    1
    63   175   176    1
    64   131   132    1
    65    62    61    1
    66    62    65    1
    67   128   130    1
    68   128   129    1
    69   107   106    2
    70   142   141    1
    71   142   143    2
    72    99    96    1
    73   106   105    1
    74   177   178    2
    75   177   176    1
    76   141   144    1
    77   132   135    1
    78    81    82    1
    79   135   136    1
    80   176   179    1
    81    85    82    1
    82    85    86    1
    83    65    66    1
    84    98    97    2
    85    84    83    2
    86    68    66   ar
    87   144   145    1
    88    97    96    1
    89    97   104   am
    90    82    83    1
    91    66    67   ar
    92    96    95    1
    93   105   104    1
    94   105   108    1
    95   179   180    1
    96   136   137    1
    97    95    89   am
    98   137   138    1
    99   110   108    1
   100    93    91    1
   101   108   109    1
   102   145   146   ar
   103   145   147   ar
   104    56    55    2
   105   180   181   ar
   106   180   182   ar
   107   139   138    1
   108    89    88    1
   109    89    90    2
   110    88    91    1
   111    88    87    1
   112    91    92    1
   113    55    54    1
   114    35    33   ar
   115    35    34   ar
   116   109   111    1
   117    92    94    1
   118    33    31   ar
   119    43    41    1
   120    34    32   ar
   121    54    57    1
   122    54    53    1
   123    59    58    1
   124    58    57    1
   125    58    60    1
   126    31    30   ar
   127    31    29   ar
   128    41    40    1
   129    32    29   ar
   130    40    42    1
   131    40    37    1
   132    30    28   ar
   133    29    27   ar
   134    36    37    1
   135    51    52    1
   136    51    50    1
   137    37    38    1
   138    39    38    2
   139    28    27   ar
   140    27    26    1
   141     7     8    1
   142     7     6    1
   143    50    49    1
   144    26    23    1
   145    48    49    1
   146    48    45    1
   147    23    24    1
   148    23    22    1
   149    14    13    1
   150    13    10    1
   151     6     5    1
   152    24    25    2
   153    20    19    1
   154    20    21    1
   155     5     2    1
   156    44    45    1
   157    19    16    1
   158    10     9    1
   159    10    11    1
   160    45    46    1
   161    47    46    2
   162    21    15    1
   163     2     3    1
   164     2     1    1
   165    16    17    1
   166    16    15    1
   167    11    12    2
   168     3     4    2
   169    17    18    2
