@<TRIPOS>MOLECULE
tmp/4fabB01.pdb
 88 88 0 0 0
SMALL
GASTEIGER

@<TRIPOS>ATOM
      1  N         13.2740  -13.5780   18.3660 N.3    35  ASN35      -0.1240
      2  CA        12.8610  -12.2050   18.8750 C.3    35  ASN35       0.1653
      3  C         11.7620  -11.5840   18.0180 C.2    35  ASN35       0.2266
      4  O         11.3960  -12.0790   16.9520 O.2    35  ASN35      -0.2867
      5  CB        14.0690  -11.3680   19.1560 C.3    35  ASN35       0.1155
      6  CG        15.3190  -11.1750   18.3950 C.2    35  ASN35       0.2627
      7  OD1       16.3270  -10.5900   18.9170 O.2    35  ASN35      -0.2716
      8  ND2       15.4420  -11.6200   17.1510 N.am   35  ASN35      -0.0877
      9  N         10.4340   -7.7150   16.7280 N.3    37  VAL37      -0.1245
     10  CA        10.7400   -6.3410   16.3440 C.3    37  VAL37       0.1561
     11  C          9.5780   -5.6620   15.5960 C.2    37  VAL37       0.2260
     12  O          8.9200   -6.3270   14.7450 O.2    37  VAL37      -0.2867
     13  CB        11.9940   -6.3740   15.4280 C.3    37  VAL37       0.0252
     14  CG1       12.4050   -4.9550   15.0440 C.3    37  VAL37       0.0019
     15  CG2       13.1530   -7.1280   16.0010 C.3    37  VAL37       0.0019
     16  N         13.0940   -2.4250   18.3970 N.3    47  TRP47      -0.1241
     17  CA        13.2770   -3.8230   18.8100 C.3    47  TRP47       0.1605
     18  C         12.5960   -4.0640   20.1680 C.2    47  TRP47       0.2264
     19  O         12.8940   -3.3700   21.1450 O.2    47  TRP47      -0.2867
     20  CB        14.7060   -4.2410   18.9130 C.3    47  TRP47       0.0550
     21  CG        15.1770   -5.4620   19.6160 C.ar   47  TRP47       0.0003
     22  CD1       15.3190   -6.7170   19.0680 C.ar   47  TRP47       0.0946
     23  CD2       15.6570   -5.5710   20.9620 C.ar   47  TRP47       0.0152
     24  NE1       15.8070   -7.5910   19.9910 N.ar   47  TRP47      -0.2442
     25  CE2       16.0260   -6.9100   21.1650 C.ar   47  TRP47       0.0810
     26  CE3       15.7640   -4.6730   22.0130 C.ar   47  TRP47       0.0012
     27  CZ2       16.5010   -7.3830   22.3980 C.ar   47  TRP47       0.0191
     28  CZ3       16.2680   -5.1200   23.2290 C.ar   47  TRP47       0.0001
     29  CH2       16.6120   -6.4550   23.4220 C.ar   47  TRP47       0.0015
     30  N         11.7400  -12.9460   14.2350 N.3    99  THR99      -0.1203
     31  CA        13.0920  -13.0890   13.6910 C.3    99  THR99       0.1994
     32  C         13.9710  -14.1210   14.3790 C.2    99  THR99       0.2618
     33  O         14.0060  -14.1970   15.6370 O.2    99  THR99      -0.2717
     34  CB        13.8350  -11.6890   13.8250 C.3    99  THR99       0.1784
     35  OG1       14.6200  -11.9100   15.0710 O.3    99  THR99      -0.2211
     36  CG2       13.0150  -10.4250   13.9600 C.3    99  THR99       0.0376
     37  N         14.7000  -14.8010   13.4910 N.am  100  GLY100     -0.1942
     38  CA        15.7360  -15.7570   14.0060 C.3   100  GLY100      0.2014
     39  C         17.1340  -15.1040   14.0380 C.2   100  GLY100      0.2639
     40  O         17.3640  -13.9710   13.4890 O.2   100  GLY100     -0.2714
     41  N         18.0100  -15.7750   14.7730 N.am  101  SER101     -0.1949
     42  CA        19.4560  -15.3090   14.6650 C.3   101  SER101      0.1924
     43  C         20.3380  -16.5300   14.6940 C.2   101  SER101      0.2314
     44  O         19.7640  -17.6580   14.7000 O.2   101  SER101     -0.2863
     45  CB        19.6870  -14.1200   15.4920 C.3   101  SER101      0.2116
     46  OG        18.5320  -13.7380   16.1780 O.3   101  SER101     -0.2180
     47  N         23.9850  -13.9750   11.2670 N.3   105  MET105     -0.1230
     48  CA        22.9340  -13.5490   10.3040 C.3   105  MET105      0.1702
     49  C         21.5820  -13.4840   10.9510 C.2   105  MET105      0.2592
     50  O         21.5030  -13.3140   12.1750 O.2   105  MET105     -0.2718
     51  CB        22.9370  -14.4570    9.0720 C.3   105  MET105      0.0401
     52  CG        21.7060  -14.1940    8.2420 C.3   105  MET105      0.0596
     53  SD        21.9370  -13.1990    6.8080 S.3   105  MET105     -0.1393
     54  CE        22.4220  -11.5860    7.4050 C.3   105  MET105      0.0692
     55  N         20.5440  -13.4770   10.1360 N.am  106  ASP106     -0.1960
     56  CA        19.1700  -13.6380   10.5720 C.3   106  ASP106      0.1840
     57  C         18.1440  -13.3080    9.4470 C.2   106  ASP106      0.2622
     58  O         18.3820  -12.5430    8.5060 O.2   106  ASP106     -0.2715
     59  CB        18.8000  -12.7060   11.7410 C.3   106  ASP106      0.1450
     60  CG        18.8410  -11.3740   10.9150 C.2   106  ASP106      0.3671
     61  OD1       17.8460  -10.9840   10.3760 O.co2 106  ASP106     -0.2456
     62  OD2       20.0190  -11.0200   10.8320 O.co2 106  ASP106     -0.2456
     63  N         16.9920  -13.9740    9.7070 N.am  107  TYR107     -0.1960
     64  CA        15.8300  -13.7040    8.8460 C.3   107  TYR107      0.1771
     65  C         14.6440  -13.2760    9.7090 C.2   107  TYR107      0.2619
     66  O         14.4550  -13.4090   10.9310 O.2   107  TYR107     -0.2715
     67  CB        15.6210  -14.6260    7.6490 C.3   107  TYR107      0.0574
     68  CG        16.1580  -13.9170    6.3860 C.ar  107  TYR107     -0.0198
     69  CD1       16.4560  -14.6000    5.2190 C.ar  107  TYR107     -0.0009
     70  CD2       16.4090  -12.5370    6.4360 C.ar  107  TYR107     -0.0009
     71  CE1       16.9550  -13.9330    4.1030 C.ar  107  TYR107      0.0417
     72  CE2       16.9080  -11.8530    5.3510 C.ar  107  TYR107      0.0417
     73  CZ        17.1890  -12.5430    4.1640 C.ar  107  TYR107      0.1957
     74  OH        17.7060  -11.8540    3.0940 O.3   107  TYR107     -0.2866
     75  N         13.8290  -12.5470    8.9860 N.am  108  TRP108     -0.1974
     76  CA        12.6210  -11.8480    9.3520 C.3   108  TRP108      0.1640
     77  C         11.3560  -12.5020    8.7930 C.2   108  TRP108      0.2290
     78  O         11.4080  -13.2950    7.8650 O.2   108  TRP108     -0.2864
     79  CB        12.7880  -10.4380    8.7310 C.3   108  TRP108      0.0576
     80  CG        13.6420   -9.5950    9.6220 C.ar  108  TRP108      0.0006
     81  CD1       14.9050   -9.8530   10.0800 C.ar  108  TRP108      0.0946
     82  CD2       13.2530   -8.3090   10.1500 C.ar  108  TRP108      0.0152
     83  NE1       15.3320   -8.8160   10.8690 N.ar  108  TRP108     -0.2442
     84  CE2       14.3350   -7.8660   10.9450 C.ar  108  TRP108      0.0810
     85  CE3       12.1320   -7.5190   10.0190 C.ar  108  TRP108      0.0012
     86  CZ2       14.3060   -6.6480   11.6020 C.ar  108  TRP108      0.0191
     87  CZ3       12.0990   -6.3110   10.6840 C.ar  108  TRP108      0.0001
     88  CH2       13.1650   -5.8830   11.4580 C.ar  108  TRP108      0.0015
@<TRIPOS>BOND
     1    74    73    1
     2    71    73   ar
     3    71    69   ar
     4    73    72   ar
     5    69    68   ar
     6    72    70   ar
     7    68    70   ar
     8    68    67    1
     9    53    54    1
    10    53    52    1
    11    67    64    1
    12    78    77    2
    13    52    51    1
    14    58    57    2
    15    79    76    1
    16    79    80    1
    17    77    76    1
    18    64    63    1
    19    64    65    1
    20    75    76    1
    21    75    65   am
    22    51    48    1
    23    57    63   am
    24    57    56    1
    25    80    81   ar
    26    80    82   ar
    27    65    66    2
    28    85    82   ar
    29    85    87   ar
    30    81    83   ar
    31    55    56    1
    32    55    49   am
    33    82    84   ar
    34    48    49    1
    35    48    47    1
    36    61    60   ar
    37    56    59    1
    38    87    88   ar
    39    62    60   ar
    40    83    84   ar
    41    60    59    1
    42    84    86   ar
    43    49    50    2
    44    88    86   ar
    45    40    39    2
    46    37    38    1
    47    37    32   am
    48    31    34    1
    49    31    30    1
    50    31    32    1
    51    34    36    1
    52    34    35    1
    53    38    39    1
    54    39    41   am
    55    32    33    2
    56    42    43    1
    57    42    41    1
    58    42    45    1
    59    43    44    2
    60    12    11    2
    61    14    13    1
    62    13    15    1
    63    13    10    1
    64    45    46    1
    65    11    10    1
    66    10     9    1
    67     4     3    2
    68     8     6   am
    69     3     2    1
    70     1     2    1
    71     6     7    2
    72     6     5    1
    73    16    17    1
    74    17    20    1
    75    17    18    1
    76     2     5    1
    77    20    21    1
    78    22    21   ar
    79    22    24   ar
    80    21    23   ar
    81    24    25   ar
    82    18    19    2
    83    23    25   ar
    84    23    26   ar
    85    25    27   ar
    86    26    28   ar
    87    27    29   ar
    88    28    29   ar
