@<TRIPOS>MOLECULE
tmp/4fadA00.pdb
 180 167 0 0 0
SMALL
GASTEIGER

@<TRIPOS>ATOM
      1  N         47.0270   17.9030   41.1390 N.3   560  MET560     -0.1245
      2  CA        46.6850   18.8510   40.1180 C.3   560  MET560      0.1570
      3  C         45.7760   19.9610   40.6350 C.2   560  MET560      0.2261
      4  O         44.9900   19.7520   41.5640 O.2   560  MET560     -0.2867
      5  CB        46.1690   18.1450   38.8520 C.3   560  MET560      0.0387
      6  CG        47.2750   17.4550   38.0800 C.3   560  MET560      0.0595
      7  SD        46.6440   16.4810   36.7080 S.3   560  MET560     -0.1393
      8  CE        46.9830   14.9540   37.2650 C.3   560  MET560      0.0692
      9  N         43.0170   15.3360   41.5400 N.3   566  PRO566     -0.2116
     10  CA        43.5560   14.0830   41.0030 C.3   566  PRO566      0.1372
     11  C         45.0770   14.0960   41.0600 C.2   566  PRO566      0.2244
     12  O         45.7020   15.1280   40.7900 O.2   566  PRO566     -0.2868
     13  CB        43.0500   14.0680   39.5570 C.3   566  PRO566      0.0268
     14  CG        42.8710   15.4630   39.1810 C.3   566  PRO566      0.0207
     15  CD        42.5920   16.2360   40.4410 C.3   566  PRO566      0.0892
     16  N         49.0030   13.0740   39.9900 N.3   568  TRP568     -0.1241
     17  CA        49.7750   12.9280   38.7610 C.3   568  TRP568      0.1605
     18  C         50.9100   11.9610   39.1030 C.2   568  TRP568      0.2264
     19  O         51.9720   12.3610   39.5760 O.2   568  TRP568     -0.2867
     20  CB        50.2930   14.2950   38.2410 C.3   568  TRP568      0.0550
     21  CG        51.2340   14.1860   37.0780 C.ar  568  TRP568      0.0003
     22  CD1       52.5270   13.7500   37.1090 C.ar  568  TRP568      0.0946
     23  CD2       50.9840   14.5970   35.7300 C.ar  568  TRP568      0.0152
     24  NE1       53.0690   13.7890   35.8520 N.ar  568  TRP568     -0.2442
     25  CE2       52.1620   14.3460   34.9920 C.ar  568  TRP568      0.0810
     26  CE3       49.8800   15.1660   35.0700 C.ar  568  TRP568      0.0012
     27  CZ2       52.2660   14.6320   33.6270 C.ar  568  TRP568      0.0191
     28  CZ3       49.9830   15.4400   33.7160 C.ar  568  TRP568      0.0001
     29  CH2       51.1640   15.1740   33.0090 C.ar  568  TRP568      0.0015
     30  N         47.2730    9.3010   35.6410 N.3   587  ILE587     -0.1245
     31  CA        46.4660   10.3090   36.3520 C.3   587  ILE587      0.1561
     32  C         45.4240    9.5460   37.1600 C.2   587  ILE587      0.2260
     33  O         44.6240    8.8000   36.5930 O.2   587  ILE587     -0.2867
     34  CB        45.7760   11.3950   35.4550 C.3   587  ILE587      0.0252
     35  CG1       46.8120   12.2680   34.7220 C.3   587  ILE587      0.0019
     36  CG2       44.7850   12.2720   36.2810 C.3   587  ILE587      0.0019
     37  CD1       46.2440   13.3350   33.8170 C.3   587  ILE587      0.0001
     38  N         42.0810    9.6620   39.7050 N.3   589  LYS589     -0.1245
     39  CA        40.9920   10.5830   40.0320 C.3   589  LYS589      0.1561
     40  C         39.7240    9.9830   40.6190 C.2   589  LYS589      0.2260
     41  O         39.1780    9.0220   40.0830 O.2   589  LYS589     -0.2867
     42  CB        40.6090   11.4350   38.7980 C.3   589  LYS589      0.0271
     43  CG        39.6180   12.5800   39.0800 C.3   589  LYS589      0.0035
     44  CD        39.2100   13.3250   37.8170 C.3   589  LYS589      0.0206
     45  CE        38.5440   12.4460   36.7930 C.3   589  LYS589      0.1093
     46  NZ        37.9640   13.2590   35.7080 N.3   589  LYS589     -0.1314
     47  N         33.9490    7.7740   35.4120 N.3   594  LEU594     -0.1245
     48  CA        34.8970    7.5620   34.3160 C.3   594  LEU594      0.1561
     49  C         34.4160    6.6180   33.2170 C.2   594  LEU594      0.2260
     50  O         35.1200    6.4440   32.2200 O.2   594  LEU594     -0.2867
     51  CB        36.2390    7.0670   34.9110 C.3   594  LEU594      0.0270
     52  CG        37.3820    8.0770   34.9880 C.3   594  LEU594      0.0019
     53  CD1       36.9100    9.4360   35.4780 C.3   594  LEU594      0.0001
     54  CD2       38.4380    7.6110   35.9230 C.3   594  LEU594      0.0001
     55  N         33.6980    8.2640   29.7810 N.3   597  ASP597     -0.1239
     56  CA        35.0010    8.4370   29.1230 C.3   597  ASP597      0.1674
     57  C         35.4480    7.1840   28.4090 C.2   597  ASP597      0.2266
     58  O         35.8840    7.2850   27.2640 O.2   597  ASP597     -0.2867
     59  CB        36.0720    8.8860   30.1120 C.3   597  ASP597      0.1410
     60  CG        35.9310   10.3310   30.4860 C.2   597  ASP597      0.3668
     61  OD1       35.2070   10.6190   31.4590 O.co2 597  ASP597     -0.2456
     62  OD2       36.4800   11.1900   29.7600 O.co2 597  ASP597     -0.2456
     63  N         43.7440    7.4720   24.1710 N.3   623  TYR623     -0.1241
     64  CA        44.5460    7.1050   25.3440 C.3   623  TYR623      0.1605
     65  C         43.7340    6.2180   26.2930 C.2   623  TYR623      0.2264
     66  O         42.5030    6.3130   26.3220 O.2   623  TYR623     -0.2867
     67  CB        45.0240    8.3800   26.0920 C.3   623  TYR623      0.0534
     68  CG        43.8960    9.3100   26.4920 C.ar  623  TYR623     -0.0201
     69  CD1       43.3040    9.2210   27.7490 C.ar  623  TYR623     -0.0009
     70  CD2       43.4010   10.2600   25.6030 C.ar  623  TYR623     -0.0009
     71  CE1       42.2440   10.0510   28.1080 C.ar  623  TYR623      0.0417
     72  CE2       42.3420   11.0940   25.9500 C.ar  623  TYR623      0.0417
     73  CZ        41.7760   10.9970   27.2100 C.ar  623  TYR623      0.1957
     74  OH        40.7430   11.8260   27.5700 O.3   623  TYR623     -0.2866
     75  N         41.9100    4.6790   29.5080 N.3   625  CYS625     -0.1235
     76  CA        41.0870    5.2300   30.5850 C.3   625  CYS625      0.1677
     77  C         40.2490    4.1090   31.2080 C.2   625  CYS625      0.2270
     78  O         39.2970    3.6190   30.6010 O.2   625  CYS625     -0.2867
     79  CB        40.2230    6.3870   30.0920 C.3   625  CYS625      0.0956
     80  SG        39.0900    7.0280   31.3500 S.3   625  CYS625     -0.0801
     81  N         43.8420    7.2420   34.3170 N.3   635  ILE635     -0.1231
     82  CA        43.9490    7.8120   32.9770 C.3   635  ILE635      0.1692
     83  C         45.4080    7.8820   32.5270 C.2   635  ILE635      0.2592
     84  O         46.2380    8.5060   33.2030 O.2   635  ILE635     -0.2718
     85  CB        43.2400    9.2140   32.8980 C.3   635  ILE635      0.0266
     86  CG1       41.7590    9.1090   33.2790 C.3   635  ILE635      0.0019
     87  CG2       43.3750    9.8590   31.4990 C.3   635  ILE635      0.0020
     88  CD1       41.2100   10.2680   33.6410 C.3   635  ILE635      0.0001
     89  N         45.7180    7.2190   31.3910 N.am  636  GLU636     -0.1966
     90  CA        47.0420    7.2210   30.7610 C.3   636  GLU636      0.1733
     91  C         47.4620    8.6660   30.4740 C.2   636  GLU636      0.2616
     92  O         46.6080    9.4880   30.1460 O.2   636  GLU636     -0.2715
     93  CB        46.9730    6.4740   29.4170 C.3   636  GLU636      0.0429
     94  CG        48.3000    6.3570   28.6920 C.3   636  GLU636      0.1163
     95  CD        48.2370    5.8680   27.2660 C.2   636  GLU636      0.3649
     96  OE1       49.3140    5.7590   26.6400 O.co2 636  GLU636     -0.2457
     97  OE2       47.1220    5.5710   26.7800 O.co2 636  GLU636     -0.2457
     98  N         48.7540    8.9740   30.6280 N.am  637  ILE637     -0.1963
     99  CA        49.3030   10.2900   30.3050 C.3   637  ILE637      0.1727
    100  C         50.0580   10.1730   28.9820 C.2   637  ILE637      0.2616
    101  O         50.9610    9.3450   28.8650 O.2   637  ILE637     -0.2715
    102  CB        50.2160   10.8800   31.4300 C.3   637  ILE637      0.0290
    103  CG1       49.4070   11.2650   32.6740 C.3   637  ILE637      0.0022
    104  CG2       51.0940   12.0550   30.9220 C.3   637  ILE637      0.0023
    105  CD1       50.2130   11.5280   33.9140 C.3   637  ILE637      0.0001
    106  N         49.6740   10.9970   27.9860 N.am  638  VAL638     -0.1977
    107  CA        50.3550   11.0660   26.6980 C.3   638  VAL638      0.1596
    108  C         51.6730   11.8300   26.9560 C.2   638  VAL638      0.2287
    109  O         51.6660   12.9160   27.5460 O.2   638  VAL638     -0.2864
    110  CB        49.4900   11.6900   25.5500 C.3   638  VAL638      0.0276
    111  CG1       50.2750   11.7770   24.2470 C.3   638  VAL638      0.0022
    112  CG2       48.1930   10.9140   25.3300 C.3   638  VAL638      0.0022
    113  N         53.2120   16.3470   25.7410 N.3   641  ALA641     -0.1245
    114  CA        52.0040   17.0460   25.3260 C.3   641  ALA641      0.1562
    115  C         51.5310   18.1340   26.2750 C.2   641  ALA641      0.2260
    116  O         51.7320   18.0320   27.4820 O.2   641  ALA641     -0.2867
    117  CB        50.8850   16.0360   25.0870 C.3   641  ALA641      0.0290
    118  N         48.1660   21.2670   26.8080 N.3   643  THR643     -0.1218
    119  CA        46.8440   21.7850   26.5160 C.3   643  THR643      0.1862
    120  C         47.0450   22.9010   25.4540 C.2   643  THR643      0.2287
    121  O         48.0930   23.5560   25.4660 O.2   643  THR643     -0.2866
    122  CB        46.3050   22.3430   27.8370 C.3   643  THR643      0.1770
    123  OG1       46.0890   21.2780   28.7600 O.3   643  THR643     -0.2211
    124  CG2       45.0580   23.1430   27.6890 C.3   643  THR643      0.0375
    125  N         47.2190   26.1520   27.2970 N.3   646  LYS646     -0.1245
    126  CA        48.5330   26.3910   27.9040 C.3   646  LYS646      0.1561
    127  C         49.5090   27.0550   26.9140 C.2   646  LYS646      0.2260
    128  O         50.2610   27.9450   27.3220 O.2   646  LYS646     -0.2867
    129  CB        49.1160   25.1100   28.5430 C.3   646  LYS646      0.0271
    130  CG        48.4010   24.7060   29.8290 C.3   646  LYS646      0.0035
    131  CD        48.7250   23.2770   30.2140 C.3   646  LYS646      0.0206
    132  CE        47.9070   22.7780   31.3690 C.3   646  LYS646      0.1093
    133  NZ        48.4910   23.2120   32.6630 N.3   646  LYS646     -0.1314
    134  N         40.8210   24.3470   27.0200 N.3   706  ASP706     -0.1239
    135  CA        41.5890   23.6640   28.0760 C.3   706  ASP706      0.1674
    136  C         41.5920   22.1640   27.7710 C.2   706  ASP706      0.2266
    137  O         42.6260   21.5060   27.8370 O.2   706  ASP706     -0.2867
    138  CB        40.9600   23.9140   29.4840 C.3   706  ASP706      0.1410
    139  CG        41.5770   23.1540   30.6770 C.2   706  ASP706      0.3668
    140  OD1       41.7400   21.9090   30.5780 O.co2 706  ASP706     -0.2456
    141  OD2       41.7790   23.7790   31.7390 O.co2 706  ASP706     -0.2456
    142  N         44.4510   18.8540   23.6090 N.3   709  MET709     -0.1245
    143  CA        45.8800   18.7030   23.6770 C.3   709  MET709      0.1570
    144  C         46.5570   18.5140   22.3180 C.2   709  MET709      0.2261
    145  O         45.8890   18.3450   21.2960 O.2   709  MET709     -0.2867
    146  CB        46.2690   17.6480   24.7170 C.3   709  MET709      0.0387
    147  CG        45.7360   17.9380   26.1090 C.3   709  MET709      0.0595
    148  SD        46.4010   16.8230   27.3460 S.3   709  MET709     -0.1393
    149  CE        48.0310   17.3980   27.4460 C.3   709  MET709      0.0692
    150  N         44.6000   15.9010   19.9960 N.3   717  PHE717     -0.1241
    151  CA        43.6230   15.0220   20.6250 C.3   717  PHE717      0.1605
    152  C         42.8220   15.7320   21.7070 C.2   717  PHE717      0.2264
    153  O         43.3840   16.5160   22.4760 O.2   717  PHE717     -0.2867
    154  CB        44.2930   13.7410   21.1910 C.3   717  PHE717      0.0534
    155  CG        45.2360   13.9410   22.3500 C.ar  717  PHE717     -0.0203
    156  CD1       44.8070   13.7560   23.6570 C.ar  717  PHE717     -0.0042
    157  CD2       46.5620   14.2900   22.1360 C.ar  717  PHE717     -0.0042
    158  CE1       45.6800   13.9510   24.7340 C.ar  717  PHE717     -0.0003
    159  CE2       47.4360   14.4800   23.2140 C.ar  717  PHE717     -0.0003
    160  CZ        46.9910   14.3010   24.5070 C.ar  717  PHE717     -0.0000
    161  N         40.3720   15.5450   25.1860 N.3   719  ILE719     -0.1231
    162  CA        40.4470   14.8380   26.4560 C.3   719  ILE719      0.1692
    163  C         39.1790   15.1330   27.2290 C.2   719  ILE719      0.2592
    164  O         38.3220   15.8720   26.7500 O.2   719  ILE719     -0.2718
    165  CB        41.7050   15.2620   27.3090 C.3   719  ILE719      0.0266
    166  CG1       41.7240   16.7790   27.6510 C.3   719  ILE719      0.0019
    167  CG2       43.0280   14.7770   26.7220 C.3   719  ILE719      0.0020
    168  CD1       42.5960   17.1400   28.8200 C.3   719  ILE719      0.0001
    169  N         39.0960   14.5810   28.4520 N.am  720  ASP720     -0.1974
    170  CA        38.0660   14.8200   29.4490 C.3   720  ASP720      0.1709
    171  C         36.6620   14.8400   28.8530 C.2   720  ASP720      0.2293
    172  O         35.9740   15.8620   28.8760 O.2   720  ASP720     -0.2864
    173  CB        38.3990   16.1210   30.2100 C.3   720  ASP720      0.1436
    174  CG        38.1160   16.1070   31.6960 C.2   720  ASP720      0.3671
    175  OD1       37.0970   15.4980   32.1060 O.co2 720  ASP720     -0.2456
    176  OD2       38.9130   16.7030   32.4620 O.co2 720  ASP720     -0.2456
    177  N         34.2890   13.1470   29.9230 N.3   722  GLY722     -0.1225
    178  CA        33.4290   13.0450   31.0960 C.3   722  GLY722      0.1811
    179  C         32.7850   14.3530   31.5040 C.2   722  GLY722      0.2280
    180  O         31.7120   14.3450   32.1180 O.2   722  GLY722     -0.2866
@<TRIPOS>BOND
     1   150   151    1
     2   151   154    1
     3   151   152    1
     4   154   155    1
     5   145   144    2
     6   152   153    2
     7   157   155   ar
     8   157   159   ar
     9   144   143    1
    10   155   156   ar
    11   159   160   ar
    12   142   143    1
    13   156   158   ar
    14   143   146    1
    15    63    64    1
    16   111   110    1
    17   160   158   ar
    18   146   147    1
    19   117   114    1
    20   161   162    1
    21   114   113    1
    22   114   115    1
    23   112   110    1
    24    64    67    1
    25    64    65    1
    26   120   121    2
    27   120   119    1
    28   110   107    1
    29    70    72   ar
    30    70    68   ar
    31    72    73   ar
    32    67    68    1
    33   147   148    1
    34   115   116    2
    35    65    66    2
    36   162   163    1
    37   162   165    1
    38    68    69   ar
    39   119   118    1
    40   119   122    1
    41    96    95   ar
    42   107   108    1
    43   107   106    1
    44   167   165    1
    45   164   163    2
    46    97    95   ar
    47   127   128    2
    48   127   126    1
    49   108   109    2
    50   134   135    1
    51    73    74    1
    52    73    71   ar
    53   163   169   am
    54    58    57    2
    55    95    94    1
    56   125   126    1
    57   165   166    1
    58   148   149    1
    59   166   168    1
    60   124   122    1
    61    69    71   ar
    62   136   137    2
    63   136   135    1
    64   122   123    1
    65   126   129    1
    66   106   100   am
    67   135   138    1
    68    57    56    1
    69   169   170    1
    70   129   130    1
    71    94    93    1
    72   171   172    2
    73   171   170    1
    74   101   100    2
    75   100    99    1
    76    56    55    1
    77    56    59    1
    78    93    90    1
    79   170   173    1
    80   138   139    1
    81    75    76    1
    82    62    60   ar
    83   130   131    1
    84   177   178    1
    85    79    76    1
    86    79    80    1
    87    59    60    1
    88    92    91    2
    89   173   174    1
    90   131   132    1
    91    99    98    1
    92    99   102    1
    93    91    98   am
    94    91    90    1
    95    60    61   ar
    96   140   139   ar
    97    76    77    1
    98    78    77    2
    99   139   141   ar
   100    90    89    1
   101   104   102    1
   102   178   179    1
   103   132   133    1
   104    89    83   am
   105   102   103    1
   106    87    85    1
   107   179   180    2
   108   174   175   ar
   109   174   176   ar
   110    50    49    2
   111    83    82    1
   112    83    84    2
   113   103   105    1
   114    85    82    1
   115    85    86    1
   116    82    81    1
   117    29    27   ar
   118    29    28   ar
   119    49    48    1
   120    86    88    1
   121    27    25   ar
   122    28    26   ar
   123    37    35    1
   124    48    51    1
   125    48    47    1
   126    35    34    1
   127    51    52    1
   128    52    53    1
   129    52    54    1
   130    25    23   ar
   131    25    24   ar
   132    26    23   ar
   133    34    36    1
   134    34    31    1
   135    30    31    1
   136    46    45    1
   137    23    21   ar
   138    24    22   ar
   139    31    32    1
   140    33    32    2
   141     7     8    1
   142     7     6    1
   143    45    44    1
   144    21    22   ar
   145    21    20    1
   146    44    43    1
   147     6     5    1
   148    20    17    1
   149    17    18    1
   150    17    16    1
   151    42    43    1
   152    42    39    1
   153     5     2    1
   154    18    19    2
   155    14    13    1
   156    14    15    1
   157    13    10    1
   158    38    39    1
   159    39    40    1
   160    41    40    2
   161     2     3    1
   162     2     1    1
   163    15     9    1
   164     3     4    2
   165    12    11    2
   166    10    11    1
   167    10     9    1
