@<TRIPOS>MOLECULE
tmp/4faiB00.pdb
 149 149 0 0 0
SMALL
GASTEIGER

@<TRIPOS>ATOM
      1  N         -9.2610  -21.9880    1.3630 N.3   122  ASP122     -0.1239
      2  CA       -10.6300  -22.2700    1.8310 C.3   122  ASP122      0.1674
      3  C        -11.0410  -23.7100    1.4750 C.2   122  ASP122      0.2266
      4  O        -11.8840  -23.9360    0.5860 O.2   122  ASP122     -0.2867
      5  CB       -11.5530  -21.2430    1.1310 C.3   122  ASP122      0.1410
      6  CG       -13.0030  -21.2970    1.5700 C.2   122  ASP122      0.3668
      7  OD1      -13.3330  -22.0080    2.5190 O.co2 122  ASP122     -0.2456
      8  OD2      -13.8840  -20.6000    0.9630 O.co2 122  ASP122     -0.2456
      9  N        -19.0020  -27.8450    4.8090 N.3   159  GLU159     -0.1231
     10  CA       -18.9850  -26.4240    5.2300 C.3   159  GLU159      0.1699
     11  C        -19.6940  -25.4920    4.2420 C.2   159  GLU159      0.2592
     12  O        -20.4810  -24.6250    4.6470 O.2   159  GLU159     -0.2718
     13  CB       -17.5630  -25.9410    5.5210 C.3   159  GLU159      0.0402
     14  CG       -17.4710  -24.5920    6.2550 C.3   159  GLU159      0.1161
     15  CD       -17.3370  -23.3810    5.3470 C.2   159  GLU159      0.3649
     16  OE1      -17.3800  -23.5270    4.0970 O.co2 159  GLU159     -0.2457
     17  OE2      -17.1610  -22.2550    5.9090 O.co2 159  GLU159     -0.2457
     18  N        -19.4510  -25.6970    2.9530 N.am  160  GLU160     -0.1979
     19  CA       -19.8890  -24.7630    1.9170 C.3   160  GLU160      0.1602
     20  C        -21.3670  -24.9710    1.5170 C.2   160  GLU160      0.2287
     21  O        -21.8560  -26.0920    1.4730 O.2   160  GLU160     -0.2864
     22  CB       -18.9870  -24.9410    0.6960 C.3   160  GLU160      0.0415
     23  CG       -17.5240  -24.5910    0.9480 C.3   160  GLU160      0.1163
     24  CD       -17.2430  -23.1180    1.0620 C.2   160  GLU160      0.3649
     25  OE1      -16.0620  -22.7690    1.0930 O.co2 160  GLU160     -0.2457
     26  OE2      -18.1630  -22.2580    1.1790 O.co2 160  GLU160     -0.2457
     27  N        -25.7110  -19.4050    0.7850 N.3   165  TRP165     -0.1241
     28  CA       -25.3220  -19.5840    2.1850 C.3   165  TRP165      0.1605
     29  C        -26.4560  -19.1420    3.0820 C.2   165  TRP165      0.2264
     30  O        -26.9640  -18.0170    2.9500 O.2   165  TRP165     -0.2867
     31  CB       -24.0590  -18.7830    2.5250 C.3   165  TRP165      0.0550
     32  CG       -23.5920  -18.9390    3.9560 C.ar  165  TRP165      0.0003
     33  CD1      -24.0880  -18.2920    5.0520 C.ar  165  TRP165      0.0946
     34  CD2      -22.5200  -19.7730    4.4350 C.ar  165  TRP165      0.0152
     35  NE1      -23.4060  -18.6830    6.1830 N.ar  165  TRP165     -0.2442
     36  CE2      -22.4380  -19.5890    5.8310 C.ar  165  TRP165      0.0810
     37  CE3      -21.6340  -20.6620    3.8230 C.ar  165  TRP165      0.0012
     38  CZ2      -21.4920  -20.2600    6.6240 C.ar  165  TRP165      0.0191
     39  CZ3      -20.7040  -21.3300    4.6090 C.ar  165  TRP165      0.0001
     40  CH2      -20.6470  -21.1340    5.9940 C.ar  165  TRP165      0.0015
     41  N         -9.4910  -21.0800    9.1000 N.3   197  ASP197     -0.1225
     42  CA       -10.1720  -20.9120    7.8070 C.3   197  ASP197      0.1805
     43  C         -9.5600  -19.7160    7.0470 C.2   197  ASP197      0.2597
     44  O         -9.1570  -18.7200    7.6620 O.2   197  ASP197     -0.2718
     45  CB       -11.6730  -20.6630    8.0400 C.3   197  ASP197      0.1424
     46  CG       -12.5590  -21.0130    6.8190 C.2   197  ASP197      0.3668
     47  OD1      -12.0480  -21.2910    5.7070 O.co2 197  ASP197     -0.2456
     48  OD2      -13.8080  -21.0170    6.9620 O.co2 197  ASP197     -0.2456
     49  N         -9.5050  -19.8430    5.7180 N.am  198  LEU198     -0.1979
     50  CA        -9.0650  -18.7590    4.8100 C.3   198  LEU198      0.1596
     51  C         -7.5970  -18.3700    5.0680 C.2   198  LEU198      0.2287
     52  O         -7.2630  -17.1800    5.1970 O.2   198  LEU198     -0.2864
     53  CB        -9.9980  -17.5500    4.9090 C.3   198  LEU198      0.0297
     54  CG       -11.4960  -17.7680    4.6660 C.3   198  LEU198      0.0022
     55  CD1      -12.1570  -16.4310    4.5100 C.3   198  LEU198      0.0001
     56  CD2      -11.8100  -18.7230    3.4630 C.3   198  LEU198      0.0001
     57  N        -20.1890  -11.5350   14.0410 N.3   246  PHE246     -0.1227
     58  CA       -21.2020  -12.4910   13.5810 C.3   246  PHE246      0.1736
     59  C        -20.8160  -13.2500   12.2850 C.2   246  PHE246      0.2595
     60  O        -21.7080  -13.6230   11.4980 O.2   246  PHE246     -0.2718
     61  CB       -22.5580  -11.7890   13.4110 C.3   246  PHE246      0.0547
     62  CG       -23.0130  -11.0510   14.6400 C.ar  246  PHE246     -0.0202
     63  CD1      -23.6170  -11.7290   15.6860 C.ar  246  PHE246     -0.0042
     64  CD2      -22.8290   -9.6820   14.7510 C.ar  246  PHE246     -0.0042
     65  CE1      -24.0330  -11.0570   16.8170 C.ar  246  PHE246     -0.0003
     66  CE2      -23.2430   -9.0040   15.8820 C.ar  246  PHE246     -0.0003
     67  CZ       -23.8450   -9.6920   16.9150 C.ar  246  PHE246     -0.0000
     68  N        -19.5160  -13.5000   12.0820 N.am  247  ILE247     -0.1966
     69  CA       -19.0610  -14.3160   10.9310 C.3   247  ILE247      0.1727
     70  C        -19.5280  -15.7680   11.1180 C.2   247  ILE247      0.2616
     71  O        -19.2730  -16.3850   12.1660 O.2   247  ILE247     -0.2715
     72  CB       -17.5180  -14.3030   10.7280 C.3   247  ILE247      0.0290
     73  CG1      -17.0060  -12.8860   10.4850 C.3   247  ILE247      0.0022
     74  CG2      -17.1400  -15.1880    9.5190 C.3   247  ILE247      0.0023
     75  CD1      -15.4790  -12.7590   10.4370 C.3   247  ILE247      0.0001
     76  N        -20.2200  -16.3050   10.1160 N.am  248  GLU248     -0.1963
     77  CA       -20.7670  -17.6600   10.1760 C.3   248  GLU248      0.1733
     78  C        -19.7580  -18.6870    9.6210 C.2   248  GLU248      0.2616
     79  O        -19.0540  -18.4270    8.6360 O.2   248  GLU248     -0.2715
     80  CB       -22.0980  -17.7300    9.4440 C.3   248  GLU248      0.0429
     81  CG       -23.1800  -16.8760   10.1160 C.3   248  GLU248      0.1163
     82  CD       -24.5480  -17.0420    9.5020 C.2   248  GLU248      0.3649
     83  OE1      -24.6610  -17.5130    8.3440 O.co2 248  GLU248     -0.2457
     84  OE2      -25.5280  -16.6890   10.1870 O.co2 248  GLU248     -0.2457
     85  N        -19.6410  -19.8160   10.3070 N.am  249  ASP249     -0.1971
     86  CA       -18.6600  -20.8450    9.9460 C.3   249  ASP249      0.1709
     87  C        -18.9670  -22.1140   10.7630 C.2   249  ASP249      0.2293
     88  O        -19.9600  -22.1630   11.4960 O.2   249  ASP249     -0.2864
     89  CB       -17.2160  -20.3200   10.1650 C.3   249  ASP249      0.1436
     90  CG       -16.1840  -20.9820    9.2610 C.2   249  ASP249      0.3671
     91  OD1      -16.4790  -22.0340    8.6370 O.co2 249  ASP249     -0.2456
     92  OD2      -15.0320  -20.4720    9.2120 O.co2 249  ASP249     -0.2456
     93  N         -9.4850  -16.8200   11.4970 N.3   265  ILE265     -0.1245
     94  CA        -9.9000  -16.3930   10.1710 C.3   265  ILE265      0.1561
     95  C         -9.5430  -14.8960   10.0100 C.2   265  ILE265      0.2260
     96  O         -9.8420  -14.0940   10.9120 O.2   265  ILE265     -0.2867
     97  CB       -11.4240  -16.6230    9.9570 C.3   265  ILE265      0.0252
     98  CG1      -11.8370  -16.3430    8.5110 C.3   265  ILE265      0.0019
     99  CG2      -12.2550  -15.8060   10.9550 C.3   265  ILE265      0.0019
    100  CD1      -13.2060  -16.8610    8.1540 C.3   265  ILE265      0.0001
    101  N         -9.5660  -10.9210    8.7880 N.3   267  VAL267     -0.1231
    102  CA       -10.5390   -9.9060    8.4320 C.3   267  VAL267      0.1678
    103  C         -9.7040   -8.7170    7.9750 C.2   267  VAL267      0.2434
    104  O         -8.8530   -8.2390    8.7130 O.2   267  VAL267     -0.2733
    105  CB       -11.4810   -9.5140    9.6060 C.3   267  VAL267      0.0265
    106  CG1      -12.4500   -8.4100    9.1790 C.3   267  VAL267      0.0020
    107  CG2      -12.2760  -10.7660   10.1030 C.3   267  VAL267      0.0020
    108  N         -9.8660   -8.3030    6.7090 N.am  268  PRO268     -0.2718
    109  CA       -10.7630   -8.8290    5.6920 C.3   268  PRO268      0.1535
    110  C        -10.3590  -10.2100    5.1790 C.2   268  PRO268      0.2598
    111  O         -9.1990  -10.6120    5.2850 O.2   268  PRO268     -0.2715
    112  CB       -10.6530   -7.7880    4.5540 C.3   268  PRO268      0.0310
    113  CG        -9.3100   -7.2140    4.7310 C.3   268  PRO268      0.0237
    114  CD        -9.0810   -7.1600    6.2090 C.3   268  PRO268      0.0939
    115  N        -11.3290  -10.9050    4.6140 N.am  269  PHE269     -0.1974
    116  CA       -11.0890  -12.1720    3.9130 C.3   269  PHE269      0.1639
    117  C        -10.1840  -11.8960    2.7380 C.2   269  PHE269      0.2290
    118  O        -10.2230  -10.8000    2.1770 O.2   269  PHE269     -0.2864
    119  CB       -12.3820  -12.7340    3.3340 C.3   269  PHE269      0.0560
    120  CG       -13.3490  -13.3160    4.3410 C.ar  269  PHE269     -0.0200
    121  CD1      -13.1190  -13.2610    5.7290 C.ar  269  PHE269     -0.0042
    122  CD2      -14.5090  -13.8920    3.8870 C.ar  269  PHE269     -0.0042
    123  CE1      -14.0540  -13.7820    6.6110 C.ar  269  PHE269     -0.0003
    124  CE2      -15.4470  -14.4220    4.7630 C.ar  269  PHE269     -0.0003
    125  CZ       -15.2000  -14.3620    6.1400 C.ar  269  PHE269     -0.0000
    126  N        -11.4400  -14.6180   -2.2490 N.3   273  TRP273     -0.1227
    127  CA       -12.4940  -15.4190   -1.6140 C.3   273  TRP273      0.1737
    128  C        -13.6400  -15.7750   -2.5610 C.2   273  TRP273      0.2595
    129  O        -14.3270  -14.9020   -3.1220 O.2   273  TRP273     -0.2718
    130  CB       -13.0430  -14.7060   -0.3690 C.3   273  TRP273      0.0564
    131  CG       -14.0660  -15.4620    0.4150 C.ar  273  TRP273      0.0003
    132  CD1      -13.8470  -16.5050    1.2860 C.ar  273  TRP273      0.0946
    133  CD2      -15.4720  -15.2200    0.4310 C.ar  273  TRP273      0.0152
    134  NE1      -15.0370  -16.9190    1.8280 N.ar  273  TRP273     -0.2442
    135  CE2      -16.0480  -16.1370    1.3370 C.ar  273  TRP273      0.0810
    136  CE3      -16.3050  -14.2970   -0.2140 C.ar  273  TRP273      0.0012
    137  CZ2      -17.4100  -16.1740    1.5880 C.ar  273  TRP273      0.0191
    138  CZ3      -17.6590  -14.3310    0.0410 C.ar  273  TRP273      0.0001
    139  CH2      -18.2070  -15.2670    0.9310 C.ar  273  TRP273      0.0015
    140  N        -13.8450  -17.0820   -2.7190 N.am  274  HIS274     -0.1975
    141  CA       -14.9300  -17.6100   -3.5160 C.3   274  HIS274      0.1656
    142  C        -14.8350  -17.1950   -4.9870 C.2   274  HIS274      0.2291
    143  O        -15.8380  -16.9410   -5.6280 O.2   274  HIS274     -0.2864
    144  CB       -16.2720  -17.2590   -2.8840 C.3   274  HIS274      0.0771
    145  CG       -16.5940  -18.1160   -1.6950 C.ar  274  HIS274      0.0820
    146  ND1      -17.8550  -18.2080   -1.1420 N.ar  274  HIS274     -0.2267
    147  CD2      -15.8150  -18.9880   -1.0130 C.ar  274  HIS274      0.1154
    148  CE1      -17.8180  -19.0640   -0.1310 C.ar  274  HIS274      0.1986
    149  NE2      -16.6020  -19.5740   -0.0610 N.ar  274  HIS274     -0.2212
@<TRIPOS>BOND
     1   143   142    2
     2   142   141    1
     3   141   144    1
     4   141   140    1
     5   129   128    2
     6   144   145    1
     7   140   128   am
     8   128   127    1
     9   126   127    1
    10   145   146   ar
    11   145   147   ar
    12   127   130    1
    13   146   148   ar
    14   147   149   ar
    15   130   131    1
    16   136   138   ar
    17   136   133   ar
    18   148   149   ar
    19   138   139   ar
    20   131   133   ar
    21   131   132   ar
    22   133   135   ar
    23     4     3    2
    24    22    23    1
    25    22    19    1
    26    27    28    1
    27   139   137   ar
    28    23    24    1
    29     8     6   ar
    30    24    25   ar
    31    24    26   ar
    32     5     6    1
    33     5     2    1
    34   132   134   ar
    35   135   137   ar
    36   135   134   ar
    37     1     2    1
    38    21    20    2
    39     3     2    1
    40    20    19    1
    41     6     7   ar
    42    19    18    1
    43   118   117    2
    44    28    31    1
    45    28    29    1
    46    31    32    1
    47   117   116    1
    48    30    29    2
    49    18    11   am
    50   119   116    1
    51   119   120    1
    52    56    54    1
    53    37    34   ar
    54    37    39   ar
    55   122   120   ar
    56   122   124   ar
    57   116   115    1
    58    32    34   ar
    59    32    33   ar
    60    16    15   ar
    61    11    12    2
    62    11    10    1
    63   120   121   ar
    64    34    36   ar
    65    55    54    1
    66   112   113    1
    67   112   109    1
    68    39    40   ar
    69   115   110   am
    70    54    53    1
    71   113   114    1
    72   124   125   ar
    73     9    10    1
    74    50    53    1
    75    50    51    1
    76    50    49    1
    77    33    35   ar
    78    51    52    2
    79   110   111    2
    80   110   109    1
    81    10    13    1
    82    15    17   ar
    83    15    14    1
    84    13    14    1
    85   109   108    1
    86    47    46   ar
    87    49    43   am
    88   121   123   ar
    89    36    35   ar
    90    36    38   ar
    91    40    38   ar
    92   125   123   ar
    93   114   108    1
    94   108   103   am
    95    46    48   ar
    96    46    45    1
    97    43    44    2
    98    43    42    1
    99    42    45    1
   100    42    41    1
   101   103   102    1
   102   103   104    2
   103   100    98    1
   104    83    82   ar
   105   102   101    1
   106   102   105    1
   107    98    97    1
   108    79    78    2
   109    91    90   ar
   110   106   105    1
   111    92    90   ar
   112    90    89    1
   113    80    81    1
   114    80    77    1
   115    82    81    1
   116    82    84   ar
   117    74    72    1
   118   105   107    1
   119    78    77    1
   120    78    85   am
   121    86    89    1
   122    86    85    1
   123    86    87    1
   124    97    94    1
   125    97    99    1
   126    95    94    1
   127    95    96    2
   128    76    77    1
   129    76    70   am
   130    94    93    1
   131    75    73    1
   132    73    72    1
   133    72    69    1
   134    87    88    2
   135    69    70    1
   136    69    68    1
   137    70    71    2
   138    60    59    2
   139    68    59   am
   140    59    58    1
   141    61    58    1
   142    61    62    1
   143    58    57    1
   144    62    64   ar
   145    62    63   ar
   146    64    66   ar
   147    63    65   ar
   148    66    67   ar
   149    65    67   ar
