@<TRIPOS>MOLECULE
tmp/4fakA01.pdb
 92 88 0 0 0
SMALL
GASTEIGER

@<TRIPOS>ATOM
      1  N        -28.7950   -8.9250    8.2660 N.3    73  PRO73      -0.2102
      2  CA       -28.7840   -7.4670    8.4580 C.3    73  PRO73       0.1504
      3  C        -28.5780   -6.9830    9.8730 C.2    73  PRO73       0.2576
      4  O        -28.0960   -5.8800   10.0750 O.2    73  PRO73      -0.2718
      5  CB       -30.1360   -7.0180    7.8690 C.3    73  PRO73       0.0282
      6  CG       -31.0320   -8.2040    8.1100 C.3    73  PRO73       0.0208
      7  CD       -30.0980   -9.3600    7.7260 C.3    73  PRO73       0.0893
      8  N        -28.9160   -7.7830   10.8710 N.am   74  GLN74      -0.1966
      9  CA       -28.7330   -7.2680   12.2290 C.3    74  GLN74       0.1733
     10  C        -27.4010   -7.5690   12.8570 C.2    74  GLN74       0.2617
     11  O        -27.1120   -7.0490   13.9160 O.2    74  GLN74      -0.2715
     12  CB       -29.8400   -7.7410   13.1830 C.3    74  GLN74       0.0408
     13  CG       -31.1930   -7.2330   12.7550 C.3    74  GLN74       0.0908
     14  CD       -31.2030   -5.7240   12.5870 C.2    74  GLN74       0.2608
     15  OE1      -30.9800   -4.9860   13.5550 O.2    74  GLN74      -0.2717
     16  NE2      -31.4460   -5.2540   11.3600 N.am   74  GLN74      -0.0878
     17  N        -26.5710   -8.3840   12.2230 N.am   75  SER75      -0.1936
     18  CA       -25.2580   -8.6880   12.8340 C.3    75  SER75       0.2055
     19  C        -24.2770   -7.5280   12.8490 C.2    75  SER75       0.2643
     20  O        -24.2750   -6.7200   11.9510 O.2    75  SER75      -0.2714
     21  CB       -24.5970   -9.7990   12.0660 C.3    75  SER75       0.2130
     22  OG       -25.3850  -10.9560   12.1590 O.3    75  SER75      -0.2179
     23  N        -23.4470   -7.4440   13.8790 N.am   76  THR76      -0.1950
     24  CA       -22.3870   -6.4560   13.8940 C.3    76  THR76       0.1897
     25  C        -21.2470   -7.1300   13.0880 C.2    76  THR76       0.2313
     26  O        -20.7000   -8.1960   13.4730 O.2    76  THR76      -0.2863
     27  CB       -21.8830   -6.1530   15.3290 C.3    76  THR76       0.1794
     28  OG1      -22.9480   -5.5170   16.0650 O.3    76  THR76      -0.2208
     29  CG2      -20.6920   -5.1820   15.2700 C.3    76  THR76       0.0378
     30  N        -19.8840   -2.6710   22.8640 N.3    99  ARG99      -0.1245
     31  CA       -20.9540   -3.0340   21.9260 C.3    99  ARG99       0.1563
     32  C        -21.9190   -4.0150   22.6000 C.2    99  ARG99       0.2260
     33  O        -23.1340   -3.9840   22.3990 O.2    99  ARG99      -0.2867
     34  CB       -20.3330   -3.6500   20.6720 C.3    99  ARG99       0.0307
     35  CG       -19.9310   -2.5910   19.6580 C.3    99  ARG99       0.0489
     36  CD       -19.0320   -3.1230   18.5670 C.3    99  ARG99       0.2205
     37  NE       -18.5320   -2.0030   17.7750 N.pl3  99  ARG99      -0.0865
     38  CZ       -19.2250   -1.3690   16.8260 C.cat  99  ARG99       0.5346
     39  NH1      -20.4490   -1.7350   16.5060 N.pl3  99  ARG99       0.1354
     40  NH2      -18.6970   -0.3140   16.2260 N.pl3  99  ARG99       0.1354
     41  N        -24.1390   -2.3040   24.8200 N.3   102  GLN102     -0.1245
     42  CA       -25.1090   -1.5500   24.0230 C.3   102  GLN102      0.1566
     43  C        -26.1430   -2.4530   23.3850 C.2   102  GLN102      0.2260
     44  O        -26.9400   -1.9920   22.5700 O.2   102  GLN102     -0.2867
     45  CB       -24.4100   -0.7410   22.9250 C.3   102  GLN102      0.0367
     46  CG       -23.4440    0.3410   23.4290 C.3   102  GLN102      0.0905
     47  CD       -22.7890    1.1520   22.3130 C.2   102  GLN102      0.2608
     48  OE1      -23.0600    0.9660   21.1090 O.2   102  GLN102     -0.2717
     49  NE2      -21.9170    2.0660   22.7110 N.am  102  GLN102     -0.0878
     50  N        -25.4600   -5.3010   21.4500 N.3   104  GLN104     -0.1245
     51  CA       -25.0510   -6.1640   20.3180 C.3   104  GLN104      0.1566
     52  C        -24.5750   -7.5020   20.8640 C.2   104  GLN104      0.2260
     53  O        -23.8170   -7.5190   21.8070 O.2   104  GLN104     -0.2867
     54  CB       -23.9340   -5.4820   19.5170 C.3   104  GLN104      0.0367
     55  CG       -24.4310   -4.2350   18.8140 C.3   104  GLN104      0.0905
     56  CD       -23.3280   -3.2720   18.4520 C.2   104  GLN104      0.2608
     57  OE1      -23.3840   -2.1010   18.8240 O.2   104  GLN104     -0.2717
     58  NE2      -22.3240   -3.7450   17.7050 N.am  104  GLN104     -0.0878
     59  N        -18.2990   -2.2070    2.5170 N.3   123  GLN123     -0.1231
     60  CA       -19.3400   -1.2070    2.8360 C.3   123  GLN123      0.1698
     61  C        -20.2750   -1.6880    3.9540 C.2   123  GLN123      0.2592
     62  O        -20.7540   -0.9090    4.7690 O.2   123  GLN123     -0.2718
     63  CB       -20.1850   -0.8850    1.5860 C.3   123  GLN123      0.0381
     64  CG       -21.0200    0.3940    1.7990 C.3   123  GLN123      0.0905
     65  CD       -22.3240    0.1800    2.6270 C.2   123  GLN123      0.2608
     66  OE1      -22.8180    1.1180    3.2660 O.2   123  GLN123     -0.2717
     67  NE2      -22.8770   -1.0120    2.5940 N.am  123  GLN123     -0.0878
     68  N        -20.5690   -2.9820    3.9710 N.am  124  ARG124     -0.1966
     69  CA       -21.4470   -3.5540    5.0020 C.3   124  ARG124      0.1729
     70  C        -20.7630   -3.5850    6.3850 C.2   124  ARG124      0.2617
     71  O        -21.4310   -3.6440    7.4210 O.2   124  ARG124     -0.2715
     72  CB       -21.8270   -4.9760    4.5820 C.3   124  ARG124      0.0348
     73  CG       -22.5330   -5.8320    5.6480 C.3   124  ARG124      0.0492
     74  CD       -23.9020   -5.2750    6.0450 C.3   124  ARG124      0.2205
     75  NE       -24.5490   -6.1180    7.0720 N.pl3 124  ARG124     -0.0865
     76  CZ       -24.2880   -6.0340    8.3820 C.cat 124  ARG124      0.5346
     77  NH1      -23.3880   -5.1470    8.8210 N.pl3 124  ARG124      0.1354
     78  NH2      -24.9590   -6.7850    9.2630 N.pl3 124  ARG124      0.1354
     79  N        -19.4340   -3.5650    6.3990 N.am  125  SER125     -0.1936
     80  CA       -18.6630   -3.5890    7.6680 C.3   125  SER125      0.2055
     81  C        -19.1050   -2.5550    8.7060 C.2   125  SER125      0.2643
     82  O        -19.2890   -1.3760    8.3570 O.2   125  SER125     -0.2714
     83  CB       -17.1930   -3.3120    7.3460 C.3   125  SER125      0.2130
     84  OG       -16.4350   -3.0530    8.5240 O.3   125  SER125     -0.2179
     85  N        -19.2700   -2.9360    9.9760 N.am  126  ASN126     -0.1971
     86  CA       -19.5920   -1.8890   10.9760 C.3   126  ASN126      0.1688
     87  C        -18.3100   -1.4280   11.6780 C.2   126  ASN126      0.2292
     88  O        -18.3290   -0.4540   12.4460 O.2   126  ASN126     -0.2864
     89  CB       -20.5650   -2.4000   12.0220 C.3   126  ASN126      0.1181
     90  CG       -21.8750   -2.8320   11.4010 C.2   126  ASN126      0.2629
     91  OD1      -22.1690   -4.0160   11.3170 O.2   126  ASN126     -0.2716
     92  ND2      -22.6600   -1.8630   10.9500 N.am  126  ASN126     -0.0877
@<TRIPOS>BOND
     1    63    64    1
     2    63    60    1
     3    64    65    1
     4    59    60    1
     5    67    65   am
     6    65    66    2
     7    60    61    1
     8    61    68   am
     9    61    62    2
    10    68    69    1
    11    72    69    1
    12    72    73    1
    13    69    70    1
    14    73    74    1
    15    74    75    1
    16    70    79   am
    17    70    71    2
    18    79    80    1
    19    75    76    2
    20    83    80    1
    21    83    84    1
    22    80    81    1
    23     7     6    1
    24     7     1    1
    25     5     6    1
    26     5     2    1
    27     1     2    1
    28    82    81    2
    29    76    77    1
    30    76    78    1
    31     2     3    1
    32    81    85   am
    33     3     4    2
    34     3     8   am
    35    85    86    1
    36     8     9    1
    37    92    90   am
    38    86    87    1
    39    86    89    1
    40    91    90    2
    41    16    14   am
    42    90    89    1
    43    87    88    2
    44    20    19    2
    45    21    22    1
    46    21    18    1
    47    17    18    1
    48    17    10   am
    49     9    10    1
    50     9    12    1
    51    14    13    1
    52    14    15    2
    53    13    12    1
    54    18    19    1
    55    19    23   am
    56    10    11    2
    57    25    26    2
    58    25    24    1
    59    23    24    1
    60    24    27    1
    61    29    27    1
    62    27    28    1
    63    40    38    1
    64    39    38    1
    65    38    37    2
    66    58    56   am
    67    37    36    1
    68    56    55    1
    69    56    57    2
    70    36    35    1
    71    55    54    1
    72    54    51    1
    73    35    34    1
    74    51    52    1
    75    51    50    1
    76    34    31    1
    77    52    53    2
    78    48    47    2
    79    31    32    1
    80    31    30    1
    81    47    49   am
    82    47    46    1
    83    33    32    2
    84    44    43    2
    85    45    46    1
    86    45    42    1
    87    43    42    1
    88    42    41    1
