@<TRIPOS>MOLECULE
tmp/4fakA00.pdb
 143 141 0 0 0
SMALL
GASTEIGER

@<TRIPOS>ATOM
      1  N        -11.7430   -7.7450    8.8650 N.3    80  LEU80      -0.1231
      2  CA       -10.2930   -7.6750    9.0650 C.3    80  LEU80       0.1693
      3  C         -9.7550   -7.0480    7.7740 C.2    80  LEU80       0.2592
      4  O         -9.9250   -7.5960    6.6850 O.2    80  LEU80      -0.2718
      5  CB        -9.6880   -9.0940    9.2780 C.3    80  LEU80       0.0284
      6  CG        -9.6150   -9.5650   10.7570 C.3    80  LEU80       0.0019
      7  CD1      -11.0880   -9.7180   11.2940 C.3    80  LEU80       0.0001
      8  CD2       -8.8380  -10.9050   10.9000 C.3    80  LEU80       0.0001
      9  N         -9.1600   -5.8550    7.9210 N.am   81  GLU81      -0.1966
     10  CA        -8.5920   -5.0600    6.8480 C.3    81  GLU81       0.1733
     11  C         -7.1930   -4.5620    7.3120 C.2    81  GLU81       0.2616
     12  O         -7.0930   -3.8960    8.3430 O.2    81  GLU81      -0.2715
     13  CB        -9.4940   -3.8240    6.5770 C.3    81  GLU81       0.0429
     14  CG       -10.9070   -4.1520    6.0090 C.3    81  GLU81       0.1163
     15  CD       -11.7680   -2.9090    5.9090 C.2    81  GLU81       0.3649
     16  OE1      -11.2440   -1.9330    5.3590 O.co2  81  GLU81      -0.2457
     17  OE2      -12.9370   -2.8930    6.3680 O.co2  81  GLU81      -0.2457
     18  N         -6.1540   -4.8290    6.5350 N.am   82  ILE82      -0.1977
     19  CA        -4.8140   -4.3980    6.8880 C.3    82  ILE82       0.1596
     20  C         -4.8520   -2.9170    7.1940 C.2    82  ILE82       0.2287
     21  O         -4.2470   -2.4630    8.1720 O.2    82  ILE82      -0.2864
     22  CB        -3.8030   -4.6110    5.7410 C.3    82  ILE82       0.0276
     23  CG1       -3.5950   -6.1070    5.5100 C.3    82  ILE82       0.0022
     24  CG2       -2.3880   -3.9960    6.1280 C.3    82  ILE82       0.0022
     25  CD1       -3.0390   -6.4300    4.1200 C.3    82  ILE82       0.0001
     26  N        -12.8580  -12.5240    7.1330 N.3   111  ILE111     -0.1231
     27  CA       -11.4880  -12.6420    6.5750 C.3   111  ILE111      0.1692
     28  C        -11.5760  -12.8870    5.0870 C.2   111  ILE111      0.2593
     29  O        -12.1760  -13.8800    4.6390 O.2   111  ILE111     -0.2718
     30  CB       -10.6870  -13.8380    7.1850 C.3   111  ILE111      0.0266
     31  CG1      -10.6780  -13.7540    8.7360 C.3   111  ILE111      0.0019
     32  CG2       -9.2410  -13.7810    6.7020 C.3   111  ILE111      0.0020
     33  CD1       -9.9440  -14.9770    9.3730 C.3   111  ILE111      0.0001
     34  N        -10.9480  -12.0090    4.3290 N.am  112  GLY112     -0.1942
     35  CA       -10.9430  -12.1460    2.8930 C.3   112  GLY112      0.2014
     36  C        -10.0550  -13.2440    2.3450 C.2   112  GLY112      0.2639
     37  O         -9.2880  -13.8990    3.0790 O.2   112  GLY112     -0.2714
     38  N        -10.1480  -13.4700    1.0400 N.am  113  GLY113     -0.1939
     39  CA        -9.2640  -14.4630    0.4330 C.3   113  GLY113      0.2014
     40  C         -7.9310  -13.7780    0.1350 C.2   113  GLY113      0.2640
     41  O         -7.7530  -12.6350    0.4980 O.2   113  GLY113     -0.2714
     42  N         -7.0230  -14.4240   -0.5840 N.am  114  SER114     -0.1935
     43  CA        -5.7000  -13.8350   -0.8580 C.3   114  SER114      0.2055
     44  C         -5.6770  -12.4560   -1.4780 C.2   114  SER114      0.2643
     45  O         -4.7060  -11.7320   -1.3280 O.2   114  SER114     -0.2714
     46  CB        -4.8690  -14.7960   -1.7270 C.3   114  SER114      0.2130
     47  OG        -5.5440  -14.9910   -2.9400 O.3   114  SER114     -0.2179
     48  N         -6.7270  -12.0870   -2.2030 N.am  115  ASN115     -0.1957
     49  CA        -6.7660  -10.7740   -2.7940 C.3   115  ASN115      0.1819
     50  C         -7.5760   -9.7550   -2.0070 C.2   115  ASN115      0.2622
     51  O         -7.8280   -8.6300   -2.4750 O.2   115  ASN115     -0.2715
     52  CB        -7.2790  -10.8670   -4.2250 C.3   115  ASN115      0.1195
     53  CG        -6.1480  -11.2030   -5.2060 C.2   115  ASN115      0.2630
     54  OD1       -5.3570  -10.3460   -5.5700 O.2   115  ASN115     -0.2716
     55  ND2       -6.0590  -12.4450   -5.5990 N.am  115  ASN115     -0.0877
     56  N         -8.0070  -10.1360   -0.8160 N.am  116  GLY116     -0.1940
     57  CA        -8.7450   -9.1680   -0.0220 C.3   116  GLY116      0.2014
     58  C        -10.2530   -9.1960   -0.2040 C.2   116  GLY116      0.2638
     59  O        -10.8110  -10.1650   -0.7450 O.2   116  GLY116     -0.2714
     60  N        -10.8900   -8.0990    0.2110 N.am  117  LEU117     -0.1977
     61  CA       -12.3270   -7.9520    0.2150 C.3   117  LEU117      0.1596
     62  C        -12.9730   -6.9700   -0.7470 C.2   117  LEU117      0.2287
     63  O        -12.5250   -5.8430   -0.8910 O.2   117  LEU117     -0.2864
     64  CB       -12.7740   -7.6120    1.6500 C.3   117  LEU117      0.0297
     65  CG       -12.5870   -8.7210    2.6930 C.3   117  LEU117      0.0022
     66  CD1      -12.7900   -8.1800    4.1240 C.3   117  LEU117      0.0001
     67  CD2      -13.4940   -9.8840    2.4110 C.3   117  LEU117      0.0001
     68  N        -11.1740   -3.5970   11.1730 N.3   129  LEU129     -0.1245
     69  CA       -10.1370   -3.8930   12.1910 C.3   129  LEU129      0.1561
     70  C         -8.8210   -4.3750   11.5850 C.2   129  LEU129      0.2260
     71  O         -8.7720   -5.3490   10.8360 O.2   129  LEU129     -0.2867
     72  CB       -10.6860   -4.9520   13.1670 C.3   129  LEU129      0.0270
     73  CG        -9.7660   -5.5330   14.2500 C.3   129  LEU129      0.0019
     74  CD1       -9.3610   -4.4160   15.2190 C.3   129  LEU129      0.0001
     75  CD2      -10.4670   -6.6160   15.0220 C.3   129  LEU129      0.0001
     76  N         -4.9250   -5.8770   12.2380 N.3   131  PHE131     -0.1227
     77  CA        -4.1470   -6.5970   13.2520 C.3   131  PHE131      0.1736
     78  C         -2.6930   -6.2040   13.1440 C.2   131  PHE131      0.2596
     79  O         -1.8660   -6.6200   14.0170 O.2   131  PHE131     -0.2718
     80  CB        -4.2350   -8.1010   13.0060 C.3   131  PHE131      0.0547
     81  CG        -5.4210   -8.7400   13.6660 C.ar  131  PHE131     -0.0202
     82  CD1       -5.2480   -9.5880   14.7450 C.ar  131  PHE131     -0.0042
     83  CD2       -6.7210   -8.3970   13.2820 C.ar  131  PHE131     -0.0042
     84  CE1       -6.3330  -10.0870   15.4410 C.ar  131  PHE131     -0.0003
     85  CE2       -7.8500   -8.9020   13.9840 C.ar  131  PHE131     -0.0003
     86  CZ        -7.6480   -9.7470   15.0620 C.ar  131  PHE131     -0.0000
     87  N         -2.3760   -5.4060   12.1140 N.am  132  SER132     -0.1952
     88  CA        -0.9840   -5.0520   11.8580 C.3   132  SER132      0.1924
     89  C         -0.8280   -4.3120   10.5290 C.2   132  SER132      0.2314
     90  O         -1.7120   -4.3460    9.6540 O.2   132  SER132     -0.2863
     91  CB        -0.1390   -6.3650   11.7420 C.3   132  SER132      0.2116
     92  OG         1.2000   -6.1640   11.2950 O.3   132  SER132     -0.2180
     93  N          1.5330   -5.1890    8.6880 N.3   134  MET134     -0.1230
     94  CA         2.0300   -6.2680    7.8800 C.3   134  MET134      0.1702
     95  C          0.8650   -7.1050    7.3120 C.2   134  MET134      0.2593
     96  O         -0.2830   -7.1420    7.8360 O.2   134  MET134     -0.2718
     97  CB         2.9190   -7.1880    8.7120 C.3   134  MET134      0.0401
     98  CG         4.3180   -6.6260    8.9960 C.3   134  MET134      0.0596
     99  SD         4.9200   -7.3340   10.4690 S.3   134  MET134     -0.1393
    100  CE         6.5840   -6.6240   10.4140 C.3   134  MET134      0.0692
    101  N          1.2020   -7.8410    6.2740 N.am  135  THR135     -0.1939
    102  CA         0.2470   -8.6690    5.6000 C.3   135  THR135      0.2028
    103  C          0.3840  -10.0980    6.0810 C.2   135  THR135      0.2642
    104  O          1.4420  -10.7220    5.9360 O.2   135  THR135     -0.2714
    105  CB         0.4610   -8.6200    4.0400 C.3   135  THR135      0.1808
    106  OG1        0.2180   -7.2920    3.5930 O.3   135  THR135     -0.2208
    107  CG2       -0.4940   -9.5760    3.3180 C.3   135  THR135      0.0379
    108  N         -0.6960  -10.6170    6.6560 N.am  136  PHE136     -0.1960
    109  CA        -0.6750  -11.9980    7.1110 C.3   136  PHE136      0.1756
    110  C         -1.4100  -12.8810    6.0850 C.2   136  PHE136      0.2461
    111  O         -2.3950  -12.4670    5.4750 O.2   136  PHE136     -0.2730
    112  CB        -1.3590  -12.0890    8.4830 C.3   136  PHE136      0.0574
    113  CG        -0.6680  -11.2920    9.5760 C.ar  136  PHE136     -0.0200
    114  CD1       -1.4320  -10.6380   10.5550 C.ar  136  PHE136     -0.0042
    115  CD2        0.7380  -11.2100    9.6440 C.ar  136  PHE136     -0.0042
    116  CE1       -0.8290   -9.9110   11.5900 C.ar  136  PHE136     -0.0003
    117  CE2        1.3810  -10.4770   10.6690 C.ar  136  PHE136     -0.0003
    118  CZ         0.5800   -9.8170   11.6620 C.ar  136  PHE136     -0.0000
    119  N         -0.9280  -14.1090    5.8510 N.am  137  PRO137     -0.2716
    120  CA        -1.6240  -14.9830    4.8860 C.3   137  PRO137      0.1536
    121  C         -2.9620  -15.3920    5.5030 C.2   137  PRO137      0.2598
    122  O         -3.0470  -15.5430    6.7210 O.2   137  PRO137     -0.2715
    123  CB        -0.6950  -16.1740    4.7400 C.3   137  PRO137      0.0310
    124  CG         0.1550  -16.1640    6.0240 C.3   137  PRO137      0.0237
    125  CD         0.3540  -14.6610    6.3140 C.3   137  PRO137      0.0939
    126  N         -3.9930  -15.6420    4.6860 N.am  138  HIS138     -0.1974
    127  CA        -5.3290  -15.9180    5.2590 C.3   138  HIS138      0.1656
    128  C         -5.4670  -17.1030    6.2240 C.2   138  HIS138      0.2291
    129  O         -6.2470  -17.0180    7.1840 O.2   138  HIS138     -0.2864
    130  CB        -6.4240  -15.9810    4.1480 C.3   138  HIS138      0.0771
    131  CG        -6.3760  -17.2120    3.3050 C.ar  138  HIS138      0.0820
    132  ND1       -5.5830  -17.3030    2.1810 N.ar  138  HIS138     -0.2267
    133  CD2       -6.9790  -18.4160    3.4340 C.ar  138  HIS138      0.1154
    134  CE1       -5.6890  -18.5140    1.6570 C.ar  138  HIS138      0.1986
    135  NE2       -6.5280  -19.2070    2.3990 N.ar  138  HIS138     -0.2212
    136  N         -3.7940  -16.0150    9.5250 N.3   141  MET141     -0.1245
    137  CA        -4.6450  -14.9510   10.0280 C.3   141  MET141      0.1570
    138  C         -5.8260  -15.4520   10.8390 C.2   141  MET141      0.2261
    139  O         -6.2400  -14.8420   11.8270 O.2   141  MET141     -0.2867
    140  CB        -5.1790  -14.1310    8.8200 C.3   141  MET141      0.0387
    141  CG        -6.0330  -12.9330    9.1770 C.3   141  MET141      0.0595
    142  SD        -5.1180  -11.4960    9.8170 S.3   141  MET141     -0.1393
    143  CE        -5.1810  -11.7170   11.6220 C.3   141  MET141      0.0692
@<TRIPOS>BOND
     1    55    53   am
     2    54    53    2
     3    53    52    1
     4    52    49    1
     5    47    46    1
     6    49    48    1
     7    49    50    1
     8    51    50    2
     9    48    44   am
    10    50    56   am
    11    46    43    1
    12    44    45    2
    13    44    43    1
    14    63    62    2
    15    43    42    1
    16    56    57    1
    17    62    61    1
    18    59    58    2
    19    42    40   am
    20    58    57    1
    21    58    60   am
    22    40    39    1
    23    40    41    2
    24    60    61    1
    25    61    64    1
    26    39    38    1
    27    38    36   am
    28    64    65    1
    29   134   132   ar
    30   134   135   ar
    31   132   131   ar
    32    36    35    1
    33    36    37    2
    34   135   133   ar
    35    67    65    1
    36    65    66    1
    37    35    34    1
    38   131   133   ar
    39   131   130    1
    40   107   105    1
    41   106   105    1
    42   105   102    1
    43    25    23    1
    44   130   127    1
    45    34    28   am
    46    29    28    2
    47   126   127    1
    48   126   121   am
    49   123   120    1
    50   123   124    1
    51   120   121    1
    52   120   119    1
    53    28    27    1
    54   127   128    1
    55    16    15   ar
    56   111   110    2
    57   121   122    2
    58    23    22    1
    59   102   103    1
    60   102   101    1
    61    22    24    1
    62    22    19    1
    63   119   110   am
    64   119   125    1
    65    15    14    1
    66    15    17   ar
    67   104   103    2
    68    14    13    1
    69   124   125    1
    70   103   108   am
    71   110   109    1
    72   128   129    2
    73   101    95   am
    74    18    19    1
    75    18    11   am
    76    27    26    1
    77    27    30    1
    78    13    10    1
    79   108   109    1
    80     4     3    2
    81    32    30    1
    82    10    11    1
    83    10     9    1
    84    19    20    1
    85   109   112    1
    86    30    31    1
    87    20    21    2
    88    11    12    2
    89    95    96    2
    90    95    94    1
    91     3     9   am
    92     3     2    1
    93    94    93    1
    94    94    97    1
    95   112   113    1
    96    97    98    1
    97    31    33    1
    98   140   141    1
    99   140   137    1
   100     1     2    1
   101    98    99    1
   102     2     5    1
   103   141   142    1
   104     5     6    1
   105   136   137    1
   106   113   115   ar
   107   113   114   ar
   108   115   117   ar
   109    90    89    2
   110   142   143    1
   111   137   138    1
   112   100    99    1
   113    89    88    1
   114   114   116   ar
   115   117   118   ar
   116     6     8    1
   117     6     7    1
   118    71    70    2
   119   138   139    2
   120    68    69    1
   121    92    91    1
   122    70    69    1
   123   116   118   ar
   124    91    88    1
   125    88    87    1
   126    87    78   am
   127    69    72    1
   128    76    77    1
   129    80    77    1
   130    80    81    1
   131    78    77    1
   132    78    79    2
   133    72    73    1
   134    83    81   ar
   135    83    85   ar
   136    81    82   ar
   137    85    86   ar
   138    73    75    1
   139    73    74    1
   140    82    84   ar
   141    86    84   ar
