@<TRIPOS>MOLECULE
tmp/4falA01.pdb
 178 178 0 0 0
SMALL
GASTEIGER

@<TRIPOS>ATOM
      1  N          2.4380   -2.4870    9.0970 N.3    20  TYR20      -0.1241
      2  CA         1.0120   -2.4550    9.5170 C.3    20  TYR20       0.1605
      3  C          0.0630   -2.9820    8.4100 C.2    20  TYR20       0.2264
      4  O          0.1620   -2.5730    7.2400 O.2    20  TYR20      -0.2867
      5  CB         0.5100   -1.0950    9.9660 C.3    20  TYR20       0.0534
      6  CG        -0.9710   -1.2100   10.4360 C.ar   20  TYR20      -0.0201
      7  CD1       -1.2670   -1.8890   11.6180 C.ar   20  TYR20      -0.0009
      8  CD2       -2.0290   -0.7200    9.6720 C.ar   20  TYR20      -0.0009
      9  CE1       -2.5730   -2.0620   12.0570 C.ar   20  TYR20       0.0417
     10  CE2       -3.3500   -0.8660   10.0890 C.ar   20  TYR20       0.0417
     11  CZ        -3.6030   -1.5700   11.2950 C.ar   20  TYR20       0.1957
     12  OH        -4.8470   -1.7460   11.7750 O.3    20  TYR20      -0.2866
     13  N          0.8000   -1.8490   18.9060 N.3    50  LEU50      -0.1231
     14  CA        -0.5290   -1.6650   18.3040 C.3    50  LEU50       0.1693
     15  C         -0.8230   -2.5950   17.1110 C.2    50  LEU50       0.2592
     16  O         -1.9450   -3.0100   16.8840 O.2    50  LEU50      -0.2718
     17  CB        -0.6900   -0.2000   17.8340 C.3    50  LEU50       0.0284
     18  CG        -2.1140    0.2280   17.4040 C.3    50  LEU50       0.0019
     19  CD1       -3.2180    0.0490   18.5440 C.3    50  LEU50       0.0001
     20  CD2       -2.1690    1.6750   16.8260 C.3    50  LEU50       0.0001
     21  N          0.2050   -2.8840   16.3430 N.am   51  TYR51      -0.1976
     22  CA         0.0560   -3.5960   15.0580 C.3    51  TYR51       0.1639
     23  C         -0.2770   -5.0940   15.2200 C.2    51  TYR51       0.2290
     24  O         -0.6600   -5.7540   14.2100 O.2    51  TYR51      -0.2864
     25  CB         1.2630   -3.4170   14.1640 C.3    51  TYR51       0.0560
     26  CG         1.6320   -1.9610   13.8470 C.ar   51  TYR51      -0.0198
     27  CD1        0.7790   -0.9110   14.1720 C.ar   51  TYR51      -0.0009
     28  CD2        2.8620   -1.6390   13.2930 C.ar   51  TYR51      -0.0009
     29  CE1        1.1700    0.4080   13.9820 C.ar   51  TYR51       0.0417
     30  CE2        3.2430   -0.3410   13.0420 C.ar   51  TYR51       0.0417
     31  CZ         2.3810    0.6910   13.3930 C.ar   51  TYR51       0.1957
     32  OH         2.6790    2.0240   13.2330 O.3    51  TYR51      -0.2866
     33  N          2.6080    1.8680   23.1240 N.3    82  TRP82      -0.1227
     34  CA         1.2620    2.2660   22.8510 C.3    82  TRP82       0.1737
     35  C          0.7650    3.2580   23.9400 C.2    82  TRP82       0.2596
     36  O          1.3040    3.3280   25.0310 O.2    82  TRP82      -0.2718
     37  CB         0.3100    1.0290   22.6110 C.3    82  TRP82       0.0564
     38  CG        -1.0620    1.4820   22.2690 C.ar   82  TRP82       0.0003
     39  CD1       -2.1970    1.2110   22.9610 C.ar   82  TRP82       0.0946
     40  CD2       -1.4300    2.4650   21.2800 C.ar   82  TRP82       0.0152
     41  NE1       -3.2700    1.8630   22.4130 N.ar   82  TRP82      -0.2442
     42  CE2       -2.8190    2.6810   21.4060 C.ar   82  TRP82       0.0810
     43  CE3       -0.7410    3.1440   20.2920 C.ar   82  TRP82       0.0012
     44  CZ2       -3.5270    3.5410   20.5630 C.ar   82  TRP82       0.0191
     45  CZ3       -1.4750    4.0420   19.4430 C.ar   82  TRP82       0.0001
     46  CH2       -2.8340    4.2190   19.6170 C.ar   82  TRP82       0.0015
     47  N         -0.2220    4.0550   23.5880 N.am   83  SER83      -0.1952
     48  CA        -0.6420    5.2500   24.3500 C.3    83  SER83       0.1924
     49  C         -1.3570    4.9790   25.6960 C.2    83  SER83       0.2314
     50  O         -1.5070    5.8790   26.5100 O.2    83  SER83      -0.2863
     51  CB        -1.5040    6.1270   23.4130 C.3    83  SER83       0.2116
     52  OG        -0.7120    6.4850   22.2610 O.3    83  SER83      -0.2180
     53  N          4.6080    6.1100   20.6440 N.3   113  HIS113     -0.1226
     54  CA         3.8160    6.0250   19.4340 C.3   113  HIS113      0.1752
     55  C          3.0680    7.3450   19.1230 C.2   113  HIS113      0.2596
     56  O          2.8720    7.7020   17.9590 O.2   113  HIS113     -0.2718
     57  CB         2.8190    4.8540   19.5620 C.3   113  HIS113      0.0759
     58  CG         2.3190    4.3060   18.2680 C.ar  113  HIS113      0.0818
     59  ND1        2.0300    2.9640   18.1100 N.ar  113  HIS113     -0.2268
     60  CD2        1.9380    4.9140   17.1080 C.ar  113  HIS113      0.1154
     61  CE1        1.5630    2.7650   16.8870 C.ar  113  HIS113      0.1986
     62  NE2        1.5100    3.9270   16.2570 N.ar  113  HIS113     -0.2212
     63  N          2.6270    8.0500   20.1680 N.am  114  SER114     -0.1952
     64  CA         1.7260    9.1950   20.0300 C.3   114  SER114      0.1924
     65  C          1.7580    9.9700   21.3360 C.2   114  SER114      0.2314
     66  O          1.8860    9.3530   22.3990 O.2   114  SER114     -0.2863
     67  CB         0.3240    8.7050   19.7850 C.3   114  SER114      0.2116
     68  OG        -0.7070    9.6430   20.0630 O.3   114  SER114     -0.2180
     69  N         -0.8890   11.2910   22.4830 N.3   116  MET116     -0.1245
     70  CA        -2.2680   11.3320   22.9340 C.3   116  MET116      0.1570
     71  C         -2.5340   10.2010   23.9030 C.2   116  MET116      0.2261
     72  O         -3.0710    9.1200   23.5560 O.2   116  MET116     -0.2867
     73  CB        -3.2230   11.3930   21.7550 C.3   116  MET116      0.0387
     74  CG        -2.9930   12.6440   20.7990 C.3   116  MET116      0.0595
     75  SD        -4.1530   12.5740   19.4370 S.3   116  MET116     -0.1393
     76  CE        -3.3440   11.2860   18.4680 C.3   116  MET116      0.0692
     77  N          4.4250   11.2270   16.1190 N.3   150  ASN150     -0.1240
     78  CA         3.2780   12.0720   16.1290 C.3   150  ASN150      0.1653
     79  C          3.3860   13.3170   17.0540 C.2   150  ASN150      0.2266
     80  O          2.3740   13.8760   17.4400 O.2   150  ASN150     -0.2867
     81  CB         2.0300   11.2570   16.4240 C.3   150  ASN150      0.1155
     82  CG         1.7570   10.2790   15.3550 C.2   150  ASN150      0.2627
     83  OD1        1.5670   10.6780   14.1840 O.2   150  ASN150     -0.2716
     84  ND2        1.7060    8.9960   15.7130 N.am  150  ASN150     -0.0877
     85  N          5.7770    8.6150    7.7940 N.3   199  TYR199     -0.1241
     86  CA         4.8150    7.5320    7.5500 C.3   199  TYR199      0.1605
     87  C          3.6750    8.0150    6.6810 C.2   199  TYR199      0.2264
     88  O          3.4400    9.1990    6.5330 O.2   199  TYR199     -0.2867
     89  CB         4.2870    6.9380    8.8700 C.3   199  TYR199      0.0534
     90  CG         3.2930    7.7610    9.6800 C.ar  199  TYR199     -0.0201
     91  CD1        2.0220    7.9680    9.2570 C.ar  199  TYR199     -0.0009
     92  CD2        3.6240    8.2280   10.9490 C.ar  199  TYR199     -0.0009
     93  CE1        1.1340    8.6660    9.9970 C.ar  199  TYR199      0.0417
     94  CE2        2.7230    8.9260   11.6980 C.ar  199  TYR199      0.0417
     95  CZ         1.4880    9.1430   11.2510 C.ar  199  TYR199      0.1957
     96  OH         0.5120    9.8300   11.9880 O.3   199  TYR199     -0.2866
     97  N         -3.0700    3.7860    3.9880 N.3   205  GLN205     -0.1245
     98  CA        -3.8540    2.6400    3.4700 C.3   205  GLN205      0.1566
     99  C         -5.3500    2.9820    3.4530 C.2   205  GLN205      0.2260
    100  O         -6.1680    2.1360    3.1580 O.2   205  GLN205     -0.2867
    101  CB        -3.5850    1.3830    4.3030 C.3   205  GLN205      0.0367
    102  CG        -2.1060    1.1420    4.5090 C.3   205  GLN205      0.0905
    103  CD        -1.8450   -0.1400    5.2750 C.2   205  GLN205      0.2608
    104  OE1       -2.5230   -1.1280    5.0510 O.2   205  GLN205     -0.2717
    105  NE2       -0.8650   -0.1130    6.2000 N.am  205  GLN205     -0.0878
    106  N        -10.2050    5.6490   10.0370 N.3   210  TRP210     -0.1241
    107  CA        -9.4110    6.8550   10.3200 C.3   210  TRP210      0.1605
    108  C         -9.4030    7.8620    9.1730 C.2   210  TRP210      0.2264
    109  O         -9.0370    9.0320    9.4110 O.2   210  TRP210     -0.2867
    110  CB        -7.9310    6.4620   10.6230 C.3   210  TRP210      0.0550
    111  CG        -7.8130    5.5220   11.7620 C.ar  210  TRP210      0.0003
    112  CD1       -8.2450    5.7350   13.0140 C.ar  210  TRP210      0.0946
    113  CD2       -7.2200    4.2330   11.7420 C.ar  210  TRP210      0.0152
    114  NE1       -7.9780    4.6320   13.8070 N.ar  210  TRP210     -0.2442
    115  CE2       -7.3410    3.6940   13.0460 C.ar  210  TRP210      0.0810
    116  CE3       -6.5480    3.4990   10.7720 C.ar  210  TRP210      0.0012
    117  CZ2       -6.8420    2.4180   13.4030 C.ar  210  TRP210      0.0191
    118  CZ3       -6.0200    2.2010   11.1200 C.ar  210  TRP210      0.0001
    119  CH2       -6.1890    1.6830   12.4260 C.ar  210  TRP210      0.0015
    120  N         -5.0020   10.8740    8.5770 N.3   289  PHE289     -0.1241
    121  CA        -5.6010   10.5170    9.8650 C.3   289  PHE289      0.1605
    122  C         -6.4210   11.7150   10.3230 C.2   289  PHE289      0.2264
    123  O         -5.8710   12.7590   10.6630 O.2   289  PHE289     -0.2867
    124  CB        -4.5680   10.1520   10.9050 C.3   289  PHE289      0.0534
    125  CG        -4.0050    8.7500   10.7450 C.ar  289  PHE289     -0.0203
    126  CD1       -4.4270    7.7190   11.5920 C.ar  289  PHE289     -0.0042
    127  CD2       -3.1370    8.4500    9.7190 C.ar  289  PHE289     -0.0042
    128  CE1       -3.9220    6.4230   11.4410 C.ar  289  PHE289     -0.0003
    129  CE2       -2.6630    7.1410    9.5280 C.ar  289  PHE289     -0.0003
    130  CZ        -3.0390    6.1320   10.4120 C.ar  289  PHE289     -0.0000
    131  N         -9.8210   11.9050   12.5490 N.3   291  SER291     -0.1217
    132  CA       -10.9040   11.2320   13.2570 C.3   291  SER291      0.1889
    133  C        -11.3810   11.9530   14.5210 C.2   291  SER291      0.2288
    134  O        -10.5750   12.5270   15.2960 O.2   291  SER291     -0.2866
    135  CB       -10.4960    9.8010   13.5700 C.3   291  SER291      0.2089
    136  OG       -11.4660    9.1290   14.3220 O.3   291  SER291     -0.2183
    137  N         -9.5960   11.2340   17.9070 N.3   294  PHE294     -0.1241
    138  CA        -8.4810   12.0050   18.4030 C.3   294  PHE294      0.1605
    139  C         -8.4610   13.5270   18.2620 C.2   294  PHE294      0.2264
    140  O         -7.6220   14.1590   18.9090 O.2   294  PHE294     -0.2867
    141  CB        -7.2270   11.3850   17.8470 C.3   294  PHE294      0.0534
    142  CG        -6.8730   10.0430   18.5540 C.ar  294  PHE294     -0.0203
    143  CD1       -6.5800   10.0170   19.9540 C.ar  294  PHE294     -0.0042
    144  CD2       -6.8560    8.8460   17.8460 C.ar  294  PHE294     -0.0042
    145  CE1       -6.2420    8.8050   20.6190 C.ar  294  PHE294     -0.0003
    146  CE2       -6.5440    7.5900   18.5270 C.ar  294  PHE294     -0.0003
    147  CZ        -6.2010    7.5820   19.9080 C.ar  294  PHE294     -0.0000
    148  N         -3.6410   16.5120   21.0230 N.3   300  TYR300     -0.1228
    149  CA        -3.7050   16.4150   19.5420 C.3   300  TYR300      0.1721
    150  C         -2.5700   17.2130   18.8850 C.2   300  TYR300      0.2437
    151  O         -2.4430   18.3890   19.1270 O.2   300  TYR300     -0.2733
    152  CB        -5.0710   16.9110   19.1180 C.3   300  TYR300      0.0547
    153  CG        -5.3950   16.8010   17.6660 C.ar  300  TYR300     -0.0200
    154  CD1       -5.4750   15.5680   17.0640 C.ar  300  TYR300     -0.0009
    155  CD2       -5.7140   17.9370   16.9120 C.ar  300  TYR300     -0.0009
    156  CE1       -5.8540   15.4330   15.6890 C.ar  300  TYR300      0.0417
    157  CE2       -6.1240   17.8110   15.5290 C.ar  300  TYR300      0.0417
    158  CZ        -6.1490   16.5450   14.9430 C.ar  300  TYR300      0.1957
    159  OH        -6.4690   16.3450   13.6160 O.3   300  TYR300     -0.2866
    160  N         -1.7420   16.5550   18.0250 N.am  301  PRO301     -0.2718
    161  CA        -0.6320   17.2230   17.4640 C.3   301  PRO301      0.1535
    162  C         -0.9390   18.2780   16.4370 C.2   301  PRO301      0.2598
    163  O         -0.0850   19.0970   16.2010 O.2   301  PRO301     -0.2715
    164  CB         0.2040   16.0860   16.8120 C.3   301  PRO301      0.0310
    165  CG        -0.6680   15.0510   16.5700 C.3   301  PRO301      0.0237
    166  CD        -1.7590   15.1310   17.6340 C.3   301  PRO301      0.0939
    167  N         -2.1050   18.2420   15.8080 N.am  302  TYR302     -0.1974
    168  CA        -2.3500   19.1090   14.6900 C.3   302  TYR302      0.1639
    169  C         -3.1210   20.3570   15.0870 C.2   302  TYR302      0.2290
    170  O         -3.4960   21.1140   14.2180 O.2   302  TYR302     -0.2864
    171  CB        -3.0860   18.3720   13.5630 C.3   302  TYR302      0.0560
    172  CG        -2.3330   17.1750   13.0500 C.ar  302  TYR302     -0.0198
    173  CD1       -0.9460   17.1800   12.9280 C.ar  302  TYR302     -0.0009
    174  CD2       -3.0080   16.0480   12.6540 C.ar  302  TYR302     -0.0009
    175  CE1       -0.2520   16.0360   12.4570 C.ar  302  TYR302      0.0417
    176  CE2       -2.3170   14.9510   12.1540 C.ar  302  TYR302      0.0417
    177  CZ        -0.9670   14.9640   12.0620 C.ar  302  TYR302      0.1957
    178  OH        -0.3480   13.8290   11.5640 O.3   302  TYR302     -0.2866
@<TRIPOS>BOND
     1   100    99    2
     2    99    98    1
     3    98    97    1
     4    98   101    1
     5   101   102    1
     6   102   103    1
     7   104   103    2
     8   103   105   am
     9    88    87    2
    10    87    86    1
    11     4     3    2
    12    86    85    1
    13    86    89    1
    14     3     2    1
    15   120   121    1
    16    89    90    1
    17     1     2    1
    18   108   109    2
    19   108   107    1
    20    91    90   ar
    21    91    93   ar
    22     2     5    1
    23   129   127   ar
    24   129   130   ar
    25     8    10   ar
    26     8     6   ar
    27    90    92   ar
    28   127   125   ar
    29   121   122    1
    30   121   124    1
    31     5     6    1
    32    93    95   ar
    33   106   107    1
    34    10    11   ar
    35   107   110    1
    36   122   123    2
    37   130   128   ar
    38     6     7   ar
    39   110   111    1
    40   125   124    1
    41   125   126   ar
    42   116   118   ar
    43   116   113   ar
    44    92    94   ar
    45   118   119   ar
    46    95    94   ar
    47    95    96    1
    48    11    12    1
    49    11     9   ar
    50   128   126   ar
    51   178   177    1
    52     7     9   ar
    53   113   111   ar
    54   113   115   ar
    55   111   112   ar
    56   177   176   ar
    57   177   175   ar
    58   176   174   ar
    59   119   117   ar
    60   175   173   ar
    61   131   132    1
    62   174   172   ar
    63   173   172   ar
    64   112   114   ar
    65    30    28   ar
    66    30    31   ar
    67   115   117   ar
    68   115   114   ar
    69   172   171    1
    70    32    31    1
    71   132   135    1
    72   132   133    1
    73    28    26   ar
    74    31    29   ar
    75   171   168    1
    76   135   136    1
    77   159   158    1
    78    26    25    1
    79    26    27   ar
    80    29    27   ar
    81    25    22    1
    82    83    82    2
    83    24    23    2
    84   170   169    2
    85   133   134    2
    86   168   169    1
    87   168   167    1
    88   158   157   ar
    89   158   156   ar
    90    22    23    1
    91    22    21    1
    92    82    84   am
    93    82    81    1
    94   157   155   ar
    95   156   154   ar
    96   167   162   am
    97    77    78    1
    98    78    81    1
    99    78    79    1
   100   163   162    2
   101    62    61   ar
   102    62    60   ar
   103    21    15   am
   104   162   161    1
   105   165   164    1
   106   165   166    1
   107   164   161    1
   108    20    18    1
   109    16    15    2
   110    61    59   ar
   111   155   153   ar
   112    79    80    2
   113   154   153   ar
   114    60    58   ar
   115    15    14    1
   116    18    17    1
   117    18    19    1
   118   161   160    1
   119   166   160    1
   120   153   152    1
   121    17    14    1
   122   144   146   ar
   123   144   142   ar
   124   141   138    1
   125   141   142    1
   126   137   138    1
   127    56    55    2
   128   160   150   am
   129    59    58   ar
   130   139   138    1
   131   139   140    2
   132    58    57    1
   133    14    13    1
   134    76    75    1
   135   146   147   ar
   136   142   143   ar
   137   150   151    2
   138   150   149    1
   139   152   149    1
   140    55    54    1
   141    55    63   am
   142    54    57    1
   143    54    53    1
   144    75    74    1
   145    45    46   ar
   146    45    43   ar
   147   149   148    1
   148    46    44   ar
   149    67    64    1
   150    67    68    1
   151   147   145   ar
   152   143   145   ar
   153    64    63    1
   154    64    65    1
   155    43    40   ar
   156    44    42   ar
   157    74    73    1
   158    40    42   ar
   159    40    38   ar
   160    65    66    2
   161    42    41   ar
   162    73    70    1
   163    52    51    1
   164    38    37    1
   165    38    39   ar
   166    41    39   ar
   167    69    70    1
   168    37    34    1
   169    34    33    1
   170    34    35    1
   171    70    71    1
   172    51    48    1
   173    72    71    2
   174    47    35   am
   175    47    48    1
   176    35    36    2
   177    48    49    1
   178    49    50    2
