@<TRIPOS>MOLECULE
tmp/4famB01.pdb
 180 181 0 0 0
SMALL
GASTEIGER

@<TRIPOS>ATOM
      1  N        -25.3930    9.5520   33.2150 N.3    19  TYR19      -0.1241
      2  CA       -26.2140   10.4610   34.0150 C.3    19  TYR19       0.1605
      3  C        -25.3860   11.2830   34.9610 C.2    19  TYR19       0.2264
      4  O        -24.6220   10.7400   35.7190 O.2    19  TYR19      -0.2867
      5  CB       -27.3450    9.7540   34.7360 C.3    19  TYR19       0.0534
      6  CG       -28.1400   10.7210   35.5560 C.ar   19  TYR19      -0.0201
      7  CD1      -29.1180   11.5060   34.9690 C.ar   19  TYR19      -0.0009
      8  CD2      -27.8900   10.9140   36.9360 C.ar   19  TYR19      -0.0009
      9  CE1      -29.8610   12.3790   35.7120 C.ar   19  TYR19       0.0417
     10  CE2      -28.6140   11.8320   37.6700 C.ar   19  TYR19       0.0417
     11  CZ       -29.5970   12.5780   37.0530 C.ar   19  TYR19       0.1957
     12  OH       -30.3560   13.5460   37.7430 O.3    19  TYR19      -0.2866
     13  N        -34.3670   11.4790   29.7720 N.3    49  LEU49      -0.1231
     14  CA       -34.3040   11.9990   31.1320 C.3    49  LEU49       0.1693
     15  C        -33.0180   12.7700   31.4190 C.2    49  LEU49       0.2592
     16  O        -33.0050   13.7980   32.1700 O.2    49  LEU49      -0.2718
     17  CB       -34.4560   10.8630   32.1440 C.3    49  LEU49       0.0284
     18  CG       -34.3790   11.2800   33.6530 C.3    49  LEU49       0.0019
     19  CD1      -35.5520   12.1460   34.0670 C.3    49  LEU49       0.0001
     20  CD2      -34.3360   10.0700   34.6010 C.3    49  LEU49       0.0001
     21  N        -31.9130   12.3340   30.7930 N.am   50  TYR50      -0.1976
     22  CA       -30.6350   12.8390   31.2740 C.3    50  TYR50       0.1639
     23  C        -30.2890   14.2460   30.8080 C.2    50  TYR50       0.2290
     24  O        -29.3270   14.8070   31.3320 O.2    50  TYR50      -0.2864
     25  CB       -29.4990   11.8590   30.9280 C.3    50  TYR50       0.0560
     26  CG       -29.6570   10.4880   31.4300 C.ar   50  TYR50      -0.0198
     27  CD1      -30.6250   10.1640   32.3760 C.ar   50  TYR50      -0.0009
     28  CD2      -28.8110    9.4460   30.9350 C.ar   50  TYR50      -0.0009
     29  CE1      -30.7650    8.8260   32.8200 C.ar   50  TYR50       0.0417
     30  CE2      -28.9310    8.1310   31.3770 C.ar   50  TYR50       0.0417
     31  CZ       -29.9510    7.8190   32.2840 C.ar   50  TYR50       0.1957
     32  OH       -30.1380    6.5290   32.6830 O.3    50  TYR50      -0.2866
     33  N        -38.8600    8.1500   27.9410 N.3    81  TRP81      -0.1241
     34  CA       -39.2140    8.6230   29.3140 C.3    81  TRP81       0.1605
     35  C        -40.6970    8.3520   29.6050 C.2    81  TRP81       0.2264
     36  O        -41.4800    8.0660   28.7050 O.2    81  TRP81      -0.2867
     37  CB       -38.7720   10.0460   29.4920 C.3    81  TRP81       0.0550
     38  CG       -39.1070   10.5820   30.8480 C.ar   81  TRP81       0.0003
     39  CD1      -39.9550   11.6270   31.1360 C.ar   81  TRP81       0.0946
     40  CD2      -38.6580   10.0700   32.1360 C.ar   81  TRP81       0.0152
     41  NE1      -40.0920   11.7910   32.4640 N.ar   81  TRP81      -0.2442
     42  CE2      -39.3390   10.8740   33.1400 C.ar   81  TRP81       0.0810
     43  CE3      -37.8350    9.0300   32.5410 C.ar   81  TRP81       0.0012
     44  CZ2      -39.1390   10.6760   34.5090 C.ar   81  TRP81       0.0191
     45  CZ3      -37.6710    8.8010   33.9130 C.ar   81  TRP81       0.0001
     46  CH2      -38.2580    9.6500   34.8750 C.ar   81  TRP81       0.0015
     47  N        -37.7980    3.2400   29.9160 N.3   112  HIS112     -0.1226
     48  CA       -37.0060    3.6880   31.0700 C.3   112  HIS112      0.1752
     49  C        -37.5190    3.0940   32.3820 C.2   112  HIS112      0.2596
     50  O        -36.7210    2.7210   33.2510 O.2   112  HIS112     -0.2718
     51  CB       -36.9270    5.2220   31.1790 C.3   112  HIS112      0.0759
     52  CG       -35.6990    5.7570   31.8890 C.ar  112  HIS112      0.0818
     53  ND1      -35.0670    6.8840   31.4880 N.ar  112  HIS112     -0.2268
     54  CD2      -34.9730    5.2830   32.9780 C.ar  112  HIS112      0.1154
     55  CE1      -34.0440    7.1540   32.2750 C.ar  112  HIS112      0.1986
     56  NE2      -33.9370    6.1640   33.1820 N.ar  112  HIS112     -0.2212
     57  N        -38.8270    2.9520   32.5120 N.am  113  SER113     -0.1952
     58  CA       -39.4810    2.5690   33.7640 C.3   113  SER113      0.1924
     59  C        -40.9350    2.1710   33.5000 C.2   113  SER113      0.2314
     60  O        -41.5830    2.7510   32.6540 O.2   113  SER113     -0.2863
     61  CB       -39.4860    3.7580   34.7270 C.3   113  SER113      0.2116
     62  OG       -40.1960    3.5200   35.9230 O.3   113  SER113     -0.2180
     63  N        -43.2520    2.9910   35.3580 N.3   115  MET115     -0.1245
     64  CA       -44.0600    3.8830   36.2030 C.3   115  MET115      0.1570
     65  C        -44.5440    5.0940   35.4180 C.2   115  MET115      0.2261
     66  O        -44.0160    6.1850   35.4820 O.2   115  MET115     -0.2867
     67  CB       -43.3330    4.2790   37.4920 C.3   115  MET115      0.0387
     68  CG       -43.1870    3.1030   38.4230 C.3   115  MET115      0.0595
     69  SD       -42.3500    3.4700   39.9680 S.3   115  MET115     -0.1393
     70  CE       -40.6780    3.3880   39.3010 C.3   115  MET115      0.0692
     71  N        -36.1640   -1.3280   34.7060 N.3   162  ASN162     -0.1240
     72  CA       -36.8250   -1.2660   35.9870 C.3   162  ASN162      0.1653
     73  C        -38.1150   -2.1020   36.0160 C.2   162  ASN162      0.2266
     74  O        -39.0560   -1.7490   36.7380 O.2   162  ASN162     -0.2867
     75  CB       -37.1440    0.1590   36.3960 C.3   162  ASN162      0.1155
     76  CG       -35.9240    0.9570   36.7260 C.2   162  ASN162      0.2627
     77  OD1      -35.2170    0.6070   37.6870 O.2   162  ASN162     -0.2716
     78  ND2      -35.6570    2.0650   35.9400 N.am  162  ASN162     -0.0877
     79  N        -32.7230   -3.5260   32.1560 N.3   185  GLN185     -0.1245
     80  CA       -31.7520   -2.7250   32.8740 C.3   185  GLN185      0.1566
     81  C        -32.2940   -2.3490   34.2650 C.2   185  GLN185      0.2260
     82  O        -33.2660   -1.6020   34.3830 O.2   185  GLN185     -0.2867
     83  CB       -31.3650   -1.4840   32.0620 C.3   185  GLN185      0.0367
     84  CG       -30.2990   -0.6470   32.7530 C.3   185  GLN185      0.0905
     85  CD       -29.9080    0.6650   32.0460 C.2   185  GLN185      0.2608
     86  OE1      -29.9830    1.7670   32.6450 O.2   185  GLN185     -0.2717
     87  NE2      -29.5390    0.5610   30.7940 N.am  185  GLN185     -0.0878
     88  N        -27.4150   -1.3250   36.6690 N.3   211  TYR211     -0.1241
     89  CA       -27.1350    0.0590   37.0030 C.3   211  TYR211      0.1605
     90  C        -26.9200    0.2290   38.4870 C.2   211  TYR211      0.2264
     91  O        -27.2610   -0.6790   39.2620 O.2   211  TYR211     -0.2867
     92  CB       -28.2270    0.9950   36.4940 C.3   211  TYR211      0.0534
     93  CG       -29.5260    1.0550   37.1900 C.ar  211  TYR211     -0.0201
     94  CD1      -29.6400    1.6050   38.4620 C.ar  211  TYR211     -0.0009
     95  CD2      -30.7110    0.7230   36.5100 C.ar  211  TYR211     -0.0009
     96  CE1      -30.8890    1.7700   39.0600 C.ar  211  TYR211      0.0417
     97  CE2      -31.9340    0.8670   37.0900 C.ar  211  TYR211      0.0417
     98  CZ       -32.0500    1.4410   38.3470 C.ar  211  TYR211      0.1957
     99  OH       -33.3040    1.5990   38.9180 O.3   211  TYR211     -0.2866
    100  N        -32.7350   10.9640   46.0440 N.3   222  TRP222     -0.1241
    101  CA       -33.1660    9.5410   45.8030 C.3   222  TRP222      0.1605
    102  C        -32.6580    8.5660   46.8490 C.2   222  TRP222      0.2264
    103  O        -33.2560    7.5040   47.0790 O.2   222  TRP222     -0.2867
    104  CB       -32.6460    9.0380   44.4260 C.3   222  TRP222      0.0550
    105  CG       -33.1130    9.8860   43.2840 C.ar  222  TRP222      0.0003
    106  CD1      -32.3820   10.7660   42.5000 C.ar  222  TRP222      0.0946
    107  CD2      -34.4320    9.9660   42.8090 C.ar  222  TRP222      0.0152
    108  NE1      -33.1750   11.3880   41.5790 N.ar  222  TRP222     -0.2442
    109  CE2      -34.4170   10.9430   41.7040 C.ar  222  TRP222      0.0810
    110  CE3      -35.6070    9.3380   43.1510 C.ar  222  TRP222      0.0012
    111  CZ2      -35.5140   11.2440   41.0090 C.ar  222  TRP222      0.0191
    112  CZ3      -36.7410    9.6770   42.4550 C.ar  222  TRP222      0.0001
    113  CH2      -36.6850   10.5930   41.3870 C.ar  222  TRP222      0.0015
    114  N        -32.1980    3.4370   45.3250 N.3   301  PHE301     -0.1227
    115  CA       -33.2080    4.3930   44.8600 C.3   301  PHE301      0.1736
    116  C        -34.4450    4.1970   45.7320 C.2   301  PHE301      0.2595
    117  O        -34.9350    3.0980   45.8750 O.2   301  PHE301     -0.2718
    118  CB       -33.5460    4.2710   43.3350 C.3   301  PHE301      0.0547
    119  CG       -32.5440    4.9690   42.4510 C.ar  301  PHE301     -0.0202
    120  CD1      -32.7120    6.3150   42.0660 C.ar  301  PHE301     -0.0042
    121  CD2      -31.4000    4.3420   42.0840 C.ar  301  PHE301     -0.0042
    122  CE1      -31.7520    6.9610   41.3570 C.ar  301  PHE301     -0.0003
    123  CE2      -30.4240    5.0040   41.3360 C.ar  301  PHE301     -0.0003
    124  CZ       -30.5990    6.3180   40.9990 C.ar  301  PHE301     -0.0000
    125  N        -34.9230    5.2850   46.3080 N.am  302  ASN302     -0.1960
    126  CA       -36.2010    5.3200   47.0340 C.3   302  ASN302      0.1819
    127  C        -37.0200    6.5210   46.6970 C.2   302  ASN302      0.2622
    128  O        -36.4720    7.6160   46.4470 O.2   302  ASN302     -0.2715
    129  CB       -35.9890    5.3870   48.5630 C.3   302  ASN302      0.1195
    130  CG       -35.7350    4.0370   49.1360 C.2   302  ASN302      0.2630
    131  OD1      -36.6210    3.1700   49.1490 O.2   302  ASN302     -0.2716
    132  ND2      -34.5000    3.8000   49.5020 N.am  302  ASN302     -0.0877
    133  N        -38.3270    6.3300   46.6560 N.am  303  SER303     -0.1950
    134  CA       -39.2310    7.4330   46.4520 C.3   303  SER303      0.1924
    135  C        -40.5690    7.0260   47.0440 C.2   303  SER303      0.2314
    136  O        -41.1820    6.0470   46.5900 O.2   303  SER303     -0.2863
    137  CB       -39.4350    7.7710   44.9940 C.3   303  SER303      0.2116
    138  OG       -40.6430    8.5160   44.9190 O.3   303  SER303     -0.2180
    139  N        -43.0890    7.2120   44.2660 N.3   306  PHE306     -0.1241
    140  CA       -43.1460    6.0270   43.3900 C.3   306  PHE306      0.1605
    141  C        -43.5590    4.7240   44.0410 C.2   306  PHE306      0.2264
    142  O        -44.1490    3.8550   43.3800 O.2   306  PHE306     -0.2867
    143  CB       -41.7960    5.7960   42.6850 C.3   306  PHE306      0.0534
    144  CG       -41.3990    6.8990   41.7210 C.ar  306  PHE306     -0.0203
    145  CD1      -42.3330    7.7430   41.1500 C.ar  306  PHE306     -0.0042
    146  CD2      -40.0840    7.0860   41.3820 C.ar  306  PHE306     -0.0042
    147  CE1      -41.9580    8.7430   40.2910 C.ar  306  PHE306     -0.0003
    148  CE2      -39.7070    8.1130   40.5260 C.ar  306  PHE306     -0.0003
    149  CZ       -40.6460    8.9650   40.0050 C.ar  306  PHE306     -0.0000
    150  N        -44.9770    0.2400   40.4770 N.3   312  TYR312     -0.1228
    151  CA       -43.7580    0.2060   41.2720 C.3   312  TYR312      0.1721
    152  C        -43.1640   -1.2070   41.2710 C.2   312  TYR312      0.2437
    153  O        -43.8650   -2.1860   41.5270 O.2   312  TYR312     -0.2733
    154  CB       -44.0910    0.5960   42.7100 C.3   312  TYR312      0.0547
    155  CG       -42.9050    0.6910   43.6340 C.ar  312  TYR312     -0.0200
    156  CD1      -41.8840    1.5540   43.3600 C.ar  312  TYR312     -0.0009
    157  CD2      -42.7940   -0.1330   44.7720 C.ar  312  TYR312     -0.0009
    158  CE1      -40.7890    1.6920   44.2220 C.ar  312  TYR312      0.0417
    159  CE2      -41.7280    0.0150   45.6540 C.ar  312  TYR312      0.0417
    160  CZ       -40.7110    0.9030   45.3510 C.ar  312  TYR312      0.1957
    161  OH       -39.6250    1.1230   46.1750 O.3   312  TYR312     -0.2866
    162  N        -41.8770   -1.3210   40.9280 N.am  313  PRO313     -0.2718
    163  CA       -41.4320   -2.6480   40.6980 C.3   313  PRO313      0.1535
    164  C        -40.9620   -3.3880   41.9490 C.2   313  PRO313      0.2598
    165  O        -40.8470   -4.5690   41.8540 O.2   313  PRO313     -0.2715
    166  CB       -40.2840   -2.4760   39.6760 C.3   313  PRO313      0.0310
    167  CG       -39.7270   -1.1700   40.0270 C.3   313  PRO313      0.0237
    168  CD       -40.9560   -0.3380   40.3610 C.3   313  PRO313      0.0939
    169  N        -40.7510   -2.7580   43.0910 N.am  314  TYR314     -0.1974
    170  CA       -40.1650   -3.4900   44.2130 C.3   314  TYR314      0.1639
    171  C        -41.1880   -3.9440   45.2620 C.2   314  TYR314      0.2290
    172  O        -42.2330   -3.3140   45.3940 O.2   314  TYR314     -0.2864
    173  CB       -39.1500   -2.6080   44.8590 C.3   314  TYR314      0.0560
    174  CG       -38.0120   -2.1690   43.9700 C.ar  314  TYR314     -0.0198
    175  CD1      -37.3490   -3.0790   43.1500 C.ar  314  TYR314     -0.0009
    176  CD2      -37.5100   -0.8840   44.0500 C.ar  314  TYR314     -0.0009
    177  CE1      -36.2350   -2.7100   42.3960 C.ar  314  TYR314      0.0417
    178  CE2      -36.4010   -0.5000   43.2650 C.ar  314  TYR314      0.0417
    179  CZ       -35.7750   -1.4360   42.4180 C.ar  314  TYR314      0.1957
    180  OH       -34.6400   -1.0990   41.6350 O.3   314  TYR314     -0.2866
@<TRIPOS>BOND
     1    33    34    1
     2    36    35    2
     3    34    37    1
     4    34    35    1
     5    37    38    1
     6    13    14    1
     7    47    48    1
     8    21    22    1
     9    21    15   am
    10    87    85   am
    11    23    22    1
    12    23    24    2
    13    38    39   ar
    14    38    40   ar
    15    25    22    1
    16    25    26    1
    17    28    30   ar
    18    28    26   ar
    19    48    51    1
    20    48    49    1
    21    14    15    1
    22    14    17    1
    23    39    41   ar
    24    51    52    1
    25    30    31   ar
    26    15    16    2
    27    26    27   ar
    28    53    52   ar
    29    53    55   ar
    30    52    54   ar
    31    85    86    2
    32    85    84    1
    33    83    84    1
    34    83    80    1
    35    40    43   ar
    36    40    42   ar
    37    17    18    1
    38    79    80    1
    39    55    56   ar
    40    31    32    1
    41    31    29   ar
    42    27    29   ar
    43    49    57   am
    44    49    50    2
    45    41    42   ar
    46    57    58    1
    47    43    45   ar
    48    60    59    2
    49    80    81    1
    50    54    56   ar
    51    42    44   ar
    52     1     2    1
    53    59    58    1
    54    18    19    1
    55    18    20    1
    56    58    61    1
    57    45    46   ar
    58     2     5    1
    59     2     3    1
    60    81    82    2
    61    44    46   ar
    62    71    72    1
    63    61    62    1
    64     5     6    1
    65     3     4    2
    66     7     6   ar
    67     7     9   ar
    68    63    64    1
    69    65    66    2
    70    65    64    1
    71     6     8   ar
    72     9    11   ar
    73    78    76   am
    74    72    73    1
    75    72    75    1
    76    73    74    2
    77    64    67    1
    78    75    76    1
    79    92    89    1
    80    92    93    1
    81    95    97   ar
    82    95    93   ar
    83    88    89    1
    84    76    77    2
    85     8    10   ar
    86    89    90    1
    87    11    10   ar
    88    11    12    1
    89    97    98   ar
    90    93    94   ar
    91    67    68    1
    92    98    99    1
    93    98    96   ar
    94    68    69    1
    95    94    96   ar
    96    90    91    2
    97    70    69    1
    98   166   167    1
    99   166   163    1
   100   149   147   ar
   101   149   148   ar
   102   167   168    1
   103   147   145   ar
   104   168   162    1
   105   150   151    1
   106   148   146   ar
   107   163   162    1
   108   163   164    1
   109   162   152   am
   110   124   123   ar
   111   124   122   ar
   112   111   113   ar
   113   111   109   ar
   114   145   144   ar
   115   152   151    1
   116   152   153    2
   117   151   154    1
   118   123   121   ar
   119   122   120   ar
   120   146   144   ar
   121   113   112   ar
   122   108   109   ar
   123   108   106   ar
   124   180   179    1
   125   109   107   ar
   126   144   143    1
   127   165   164    2
   128   164   169   am
   129   120   119   ar
   130   121   119   ar
   131   177   179   ar
   132   177   175   ar
   133   179   178   ar
   134   119   118    1
   135   112   110   ar
   136   106   105   ar
   137   143   140    1
   138   154   155    1
   139   107   110   ar
   140   107   105   ar
   141   169   170    1
   142   175   174   ar
   143   178   176   ar
   144   105   104    1
   145   118   115    1
   146   156   155   ar
   147   156   158   ar
   148   142   141    2
   149   140   141    1
   150   140   139    1
   151   155   157   ar
   152   174   176   ar
   153   174   173    1
   154   170   173    1
   155   170   171    1
   156   158   160   ar
   157   104   101    1
   158   157   159   ar
   159   115   114    1
   160   115   116    1
   161   138   137    1
   162   137   134    1
   163   171   172    2
   164   160   159   ar
   165   160   161    1
   166   116   117    2
   167   116   125   am
   168   101   100    1
   169   101   102    1
   170   125   126    1
   171   128   127    2
   172   134   133    1
   173   134   135    1
   174   136   135    2
   175   133   127   am
   176   127   126    1
   177   102   103    2
   178   126   129    1
   179   129   130    1
   180   130   131    2
   181   130   132   am
