@<TRIPOS>MOLECULE
tmp/4faoR00.pdb
 97 95 0 0 0
SMALL
GASTEIGER

@<TRIPOS>ATOM
      1  N        109.3970   46.6530   61.0410 N.3    37  TRP37      -0.1241
      2  CA       110.5550   47.2330   60.3820 C.3    37  TRP37       0.1605
      3  C        111.7370   46.2930   60.5010 C.2    37  TRP37       0.2264
      4  O        111.7460   45.3930   61.3430 O.2    37  TRP37      -0.2867
      5  CB       110.9050   48.5490   61.0440 C.3    37  TRP37       0.0550
      6  CG       111.2350   48.4050   62.5020 C.ar   37  TRP37       0.0003
      7  CD1      112.4800   48.3130   63.0600 C.ar   37  TRP37       0.0946
      8  CD2      110.3050   48.3420   63.5910 C.ar   37  TRP37       0.0152
      9  NE1      112.3830   48.2080   64.4280 N.ar   37  TRP37      -0.2442
     10  CE2      111.0580   48.2220   64.7800 C.ar   37  TRP37       0.0810
     11  CE3      108.9070   48.3840   63.6780 C.ar   37  TRP37       0.0012
     12  CZ2      110.4590   48.1330   66.0400 C.ar   37  TRP37       0.0191
     13  CZ3      108.3130   48.2910   64.9330 C.ar   37  TRP37       0.0001
     14  CH2      109.0900   48.1640   66.0950 C.ar   37  TRP37       0.0015
     15  N        115.9820   45.8390   61.0970 N.3    39  ASN39      -0.1240
     16  CA       117.0590   46.5570   61.7830 C.3    39  ASN39       0.1653
     17  C        118.4420   45.9760   61.5050 C.2    39  ASN39       0.2266
     18  O        118.8520   44.9940   62.1340 O.2    39  ASN39      -0.2867
     19  CB       116.8020   46.6530   63.2910 C.3    39  ASN39       0.1155
     20  CG       117.5050   47.8440   63.9200 C.2    39  ASN39       0.2627
     21  OD1      117.2470   48.9900   63.5450 O.2    39  ASN39      -0.2716
     22  ND2      118.4110   47.5770   64.8710 N.am   39  ASN39      -0.0877
     23  N        121.7060   46.5170   62.2260 N.3    41  SER41      -0.1202
     24  CA       122.6460   47.1830   63.1160 C.3    41  SER41       0.2020
     25  C        122.4400   48.7020   63.1430 C.2    41  SER41       0.2619
     26  O        123.2820   49.4650   62.6460 O.2    41  SER41      -0.2717
     27  CB       124.0970   46.8500   62.7290 C.3    41  SER41       0.2103
     28  OG       125.0190   47.4660   63.4790 O.3    41  SER41      -0.2182
     29  N        121.3240   49.1380   63.7240 N.am   42  GLY42      -0.1956
     30  CA       121.1140   50.5570   63.9660 C.3    42  GLY42       0.1869
     31  C        120.4060   51.3230   62.8530 C.2    42  GLY42       0.2309
     32  O        119.7440   52.3390   63.1030 O.2    42  GLY42      -0.2863
     33  N        117.4550   51.7580   60.4750 N.3    44  ILE44      -0.1245
     34  CA       116.0570   51.2960   60.5030 C.3    44  ILE44       0.1561
     35  C        115.3450   51.4320   59.1680 C.2    44  ILE44       0.2260
     36  O        115.1190   52.5530   58.6870 O.2    44  ILE44      -0.2867
     37  CB       115.2040   52.0730   61.5420 C.3    44  ILE44       0.0252
     38  CG1      115.8880   52.0930   62.9140 C.3    44  ILE44       0.0019
     39  CG2      113.8100   51.4600   61.6360 C.3    44  ILE44       0.0019
     40  CD1      115.2600   53.0640   63.8990 C.3    44  ILE44       0.0001
     41  N        113.8720   39.7260   71.3210 N.3    69  GLU69      -0.1231
     42  CA       115.2930   39.9700   71.5930 C.3    69  GLU69       0.1699
     43  C        116.0340   40.4770   70.3630 C.2    69  GLU69       0.2592
     44  O        116.3740   41.6590   70.2750 O.2    69  GLU69      -0.2718
     45  CB       115.9720   38.7090   72.1300 C.3    69  GLU69       0.0402
     46  CG       115.6550   38.3470   73.5840 C.3    69  GLU69       0.1161
     47  CD       114.4360   37.5160   73.7440 C.2    69  GLU69       0.3649
     48  OE1      113.7340   37.2780   72.7570 O.co2  69  GLU69      -0.2457
     49  OE2      114.1810   37.0810   74.8370 O.co2  69  GLU69      -0.2457
     50  N        116.2920   39.5720   69.4220 N.am   70  ASN70      -0.1974
     51  CA       116.8970   39.9490   68.1490 C.3    70  ASN70       0.1688
     52  C        116.2100   39.2570   66.9810 C.2    70  ASN70       0.2292
     53  O        116.5340   38.1120   66.6500 O.2    70  ASN70      -0.2864
     54  CB       118.3920   39.6420   68.1370 C.3    70  ASN70       0.1181
     55  CG       119.0880   40.1860   66.9020 C.2    70  ASN70       0.2629
     56  OD1      118.7970   41.2950   66.4400 O.2    70  ASN70      -0.2716
     57  ND2      120.0060   39.4010   66.3550 N.am   70  ASN70      -0.0877
     58  N        111.2630   43.1540   63.0930 N.3    74  TYR74      -0.1241
     59  CA       110.7520   43.7490   64.3210 C.3    74  TYR74       0.1605
     60  C        109.2620   44.0670   64.1350 C.2    74  TYR74       0.2264
     61  O        108.8370   44.6180   63.0890 O.2    74  TYR74      -0.2867
     62  CB       111.5450   45.0010   64.7190 C.3    74  TYR74       0.0534
     63  CG       113.0240   44.7540   65.0310 C.ar   74  TYR74      -0.0201
     64  CD1      113.6540   45.4030   66.1030 C.ar   74  TYR74      -0.0009
     65  CD2      113.7990   43.8980   64.2420 C.ar   74  TYR74      -0.0009
     66  CE1      115.0100   45.1990   66.3780 C.ar   74  TYR74       0.0417
     67  CE2      115.1510   43.6890   64.5120 C.ar   74  TYR74       0.0417
     68  CZ       115.7460   44.3370   65.5780 C.ar   74  TYR74       0.1957
     69  OH       117.0790   44.1160   65.8340 O.3    74  TYR74      -0.2866
     70  N        107.6210   54.4110   66.9970 N.3    87  PHE87      -0.1227
     71  CA       107.8040   53.0960   67.6120 C.3    87  PHE87       0.1736
     72  C        109.2430   52.9510   68.1000 C.2    87  PHE87       0.2596
     73  O        110.1170   53.7120   67.6760 O.2    87  PHE87      -0.2718
     74  CB       107.4830   51.9900   66.6080 C.3    87  PHE87       0.0547
     75  CG       108.3440   52.0260   65.3650 C.ar   87  PHE87      -0.0202
     76  CD1      109.4800   51.2140   65.2600 C.ar   87  PHE87      -0.0042
     77  CD2      108.0210   52.8780   64.3030 C.ar   87  PHE87      -0.0042
     78  CE1      110.2700   51.2490   64.1200 C.ar   87  PHE87      -0.0003
     79  CE2      108.8040   52.9190   63.1580 C.ar   87  PHE87      -0.0003
     80  CZ       109.9300   52.1020   63.0640 C.ar   87  PHE87      -0.0000
     81  N        109.4870   51.9770   68.9800 N.am   88  THR88      -0.1939
     82  CA       110.8170   51.7620   69.5490 C.3    88  THR88       0.2028
     83  C        111.0470   50.2900   69.8700 C.2    88  THR88       0.2642
     84  O        110.1740   49.4550   69.6300 O.2    88  THR88      -0.2714
     85  CB       111.0310   52.5950   70.8360 C.3    88  THR88       0.1808
     86  OG1      109.9910   52.3010   71.7800 O.3    88  THR88      -0.2208
     87  CG2      111.0170   54.1020   70.5270 C.3    88  THR88       0.0379
     88  N        112.2260   49.9930   70.4200 N.am   89  HIS89      -0.1973
     89  CA       112.6540   48.6360   70.7990 C.3    89  HIS89       0.1656
     90  C        113.2020   48.4680   72.2130 C.2    89  HIS89       0.2291
     91  O        114.0240   49.2710   72.6550 O.2    89  HIS89      -0.2864
     92  CB       113.7000   48.1250   69.7930 C.3    89  HIS89       0.0771
     93  CG       114.2030   46.7460   70.0910 C.ar   89  HIS89       0.0820
     94  ND1      113.6610   45.5990   69.5560 N.ar   89  HIS89      -0.2267
     95  CD2      115.2920   46.3520   70.7970 C.ar   89  HIS89       0.1154
     96  CE1      114.3410   44.5520   69.9930 C.ar   89  HIS89       0.1986
     97  NE2      115.3440   44.9840   70.7340 N.ar   89  HIS89      -0.2212
@<TRIPOS>BOND
     1    36    35    2
     2    35    34    1
     3     2     3    1
     4     2     1    1
     5     2     5    1
     6    33    34    1
     7     3     4    2
     8    34    37    1
     9     5     6    1
    10    15    16    1
    11    17    16    1
    12    17    18    2
    13    37    39    1
    14    37    38    1
    15    16    19    1
    16    23    24    1
    17     6     7   ar
    18     6     8   ar
    19    26    25    2
    20    27    24    1
    21    27    28    1
    22    31    32    2
    23    31    30    1
    24    38    40    1
    25     7     9   ar
    26    80    79   ar
    27    80    78   ar
    28    61    60    2
    29    58    59    1
    30    24    25    1
    31    25    29   am
    32    79    77   ar
    33    19    20    1
    34    21    20    2
    35     8    11   ar
    36     8    10   ar
    37    11    13   ar
    38    29    30    1
    39    20    22   am
    40    78    76   ar
    41    60    59    1
    42    65    67   ar
    43    65    63   ar
    44    77    75   ar
    45    59    62    1
    46     9    10   ar
    47    67    68   ar
    48    62    63    1
    49    10    12   ar
    50    13    14   ar
    51    63    64   ar
    52    76    75   ar
    53    75    74    1
    54    68    69    1
    55    68    66   ar
    56    12    14   ar
    57    64    66   ar
    58    57    55   am
    59    56    55    2
    60    74    71    1
    61    53    52    2
    62    55    54    1
    63    52    51    1
    64    70    71    1
    65    71    72    1
    66    73    72    2
    67    72    81   am
    68    54    51    1
    69    51    50    1
    70    81    82    1
    71    50    43   am
    72    82    83    1
    73    82    85    1
    74    94    96   ar
    75    94    93   ar
    76    84    83    2
    77    92    93    1
    78    92    89    1
    79    83    88   am
    80    96    97   ar
    81    93    95   ar
    82    44    43    2
    83    43    42    1
    84    88    89    1
    85    87    85    1
    86    97    95   ar
    87    89    90    1
    88    85    86    1
    89    41    42    1
    90    42    45    1
    91    45    46    1
    92    90    91    2
    93    48    47   ar
    94    46    47    1
    95    47    49   ar
