@<TRIPOS>MOLECULE
tmp/4fapA00.pdb
 158 156 0 0 0
SMALL
GASTEIGER

@<TRIPOS>ATOM
      1  N        -11.4410   16.8070   45.4070 N.3    26  TYR26      -0.1241
      2  CA       -10.8750   17.7540   46.3620 C.3    26  TYR26       0.1605
      3  C        -11.9540   18.5860   47.0350 C.2    26  TYR26       0.2264
      4  O        -13.1160   18.6130   46.6090 O.2    26  TYR26      -0.2867
      5  CB        -9.9050   18.7090   45.6630 C.3    26  TYR26       0.0534
      6  CG       -10.6230   19.6980   44.7700 C.ar   26  TYR26      -0.0201
      7  CD1      -11.1020   20.9250   45.2710 C.ar   26  TYR26      -0.0009
      8  CD2      -10.8980   19.3750   43.4360 C.ar   26  TYR26      -0.0009
      9  CE1      -11.8360   21.7900   44.4650 C.ar   26  TYR26       0.0417
     10  CE2      -11.6280   20.2320   42.6270 C.ar   26  TYR26       0.0417
     11  CZ       -12.0910   21.4300   43.1440 C.ar   26  TYR26       0.1957
     12  OH       -12.7970   22.2500   42.3060 O.3    26  TYR26      -0.2866
     13  N        -14.9930   26.6680   50.1290 N.3    36  PHE36      -0.1227
     14  CA       -15.3000   27.5140   48.9880 C.3    36  PHE36       0.1736
     15  C        -15.4990   26.7080   47.7120 C.2    36  PHE36       0.2595
     16  O        -15.8010   27.2710   46.6580 O.2    36  PHE36      -0.2718
     17  CB       -14.2030   28.5680   48.7700 C.3    36  PHE36       0.0547
     18  CG       -12.8240   28.0080   48.5160 C.ar   36  PHE36      -0.0202
     19  CD1      -12.4650   27.5480   47.2600 C.ar   36  PHE36      -0.0042
     20  CD2      -11.8630   28.0060   49.5230 C.ar   36  PHE36      -0.0042
     21  CE1      -11.1580   27.0980   47.0040 C.ar   36  PHE36      -0.0003
     22  CE2      -10.5450   27.5580   49.2800 C.ar   36  PHE36      -0.0003
     23  CZ       -10.1930   27.1060   48.0200 C.ar   36  PHE36      -0.0000
     24  N        -15.3490   25.3880   47.8090 N.am   37  ASP37      -0.1974
     25  CA       -15.4990   24.5100   46.6470 C.3    37  ASP37       0.1709
     26  C        -15.1910   23.0480   46.9800 C.2    37  ASP37       0.2293
     27  O        -14.4050   22.7440   47.8850 O.2    37  ASP37      -0.2864
     28  CB       -14.5630   24.9900   45.5260 C.3    37  ASP37       0.1436
     29  CG       -14.8410   24.3170   44.2040 C.2    37  ASP37       0.3671
     30  OD1      -15.9000   23.6650   44.0850 O.co2  37  ASP37      -0.2456
     31  OD2      -14.0120   24.4540   43.2800 O.co2  37  ASP37      -0.2456
     32  N        -20.2630   18.0800   44.1350 N.3    42  ARG42      -0.1245
     33  CA       -20.8280   17.9410   42.8010 C.3    42  ARG42       0.1563
     34  C        -20.8870   16.4760   42.3920 C.2    42  ARG42       0.2260
     35  O        -21.4920   16.1260   41.3760 O.2    42  ARG42      -0.2867
     36  CB       -19.9970   18.7230   41.7850 C.3    42  ARG42       0.0307
     37  CG       -20.2000   20.2170   41.8440 C.3    42  ARG42       0.0489
     38  CD       -19.4980   20.8910   40.6860 C.3    42  ARG42       0.2205
     39  NE       -18.0500   20.7300   40.7570 N.pl3  42  ARG42      -0.0865
     40  CZ       -17.2920   21.2230   41.7330 C.cat  42  ARG42       0.5346
     41  NH1      -17.8460   21.9050   42.7280 N.pl3  42  ARG42       0.1354
     42  NH2      -15.9810   21.0320   41.7160 N.pl3  42  ARG42       0.1354
     43  N        -12.4890   15.3970   39.4810 N.3    46  PHE46      -0.1227
     44  CA       -11.8390   16.4790   38.7610 C.3    46  PHE46       0.1736
     45  C        -10.6260   15.9490   38.0430 C.2    46  PHE46       0.2595
     46  O         -9.7890   15.2810   38.6490 O.2    46  PHE46      -0.2718
     47  CB       -11.4170   17.5900   39.7270 C.3    46  PHE46       0.0547
     48  CG       -10.7080   18.7370   39.0640 C.ar   46  PHE46      -0.0202
     49  CD1      -11.4220   19.7000   38.3620 C.ar   46  PHE46      -0.0042
     50  CD2       -9.3290   18.8650   39.1530 C.ar   46  PHE46      -0.0042
     51  CE1      -10.7730   20.7760   37.7610 C.ar   46  PHE46      -0.0003
     52  CE2       -8.6690   19.9400   38.5560 C.ar   46  PHE46      -0.0003
     53  CZ        -9.3940   20.8960   37.8600 C.ar   46  PHE46      -0.0000
     54  N        -10.5360   16.2500   36.7520 N.am   47  LYS47      -0.1980
     55  CA        -9.4240   15.8010   35.9320 C.3    47  LYS47       0.1596
     56  C         -8.5980   16.9860   35.4480 C.2    47  LYS47       0.2287
     57  O         -9.1360   18.0620   35.2090 O.2    47  LYS47      -0.2864
     58  CB        -9.9490   15.0460   34.7190 C.3    47  LYS47       0.0298
     59  CG       -10.6900   13.7570   35.0050 C.3    47  LYS47       0.0038
     60  CD       -11.1880   13.1710   33.6830 C.3    47  LYS47       0.0206
     61  CE       -11.5100   11.6870   33.7710 C.3    47  LYS47       0.1093
     62  NZ       -12.6160   11.3950   34.7280 N.3    47  LYS47      -0.1314
     63  N          0.6230   23.7650   33.5620 N.3    53  GLN53      -0.1231
     64  CA         0.2950   25.0290   34.2160 C.3    53  GLN53       0.1698
     65  C         -1.2100   25.3130   34.1810 C.2    53  GLN53       0.2592
     66  O         -1.6340   26.4700   34.1710 O.2    53  GLN53      -0.2718
     67  CB         1.0610   26.1900   33.5540 C.3    53  GLN53       0.0381
     68  CG         2.5130   26.3870   34.0100 C.3    53  GLN53       0.0905
     69  CD         3.3390   25.1130   33.9590 C.2    53  GLN53       0.2608
     70  OE1        3.1370   24.1950   34.7560 O.2    53  GLN53      -0.2717
     71  NE2        4.2740   25.0490   33.0180 N.am   53  GLN53      -0.0878
     72  N         -2.0110   24.2510   34.1580 N.am   54  GLU54      -0.1966
     73  CA        -3.4660   24.3860   34.1380 C.3    54  GLU54       0.1733
     74  C         -3.9910   24.8000   35.5110 C.2    54  GLU54       0.2616
     75  O         -4.9860   25.5100   35.6190 O.2    54  GLU54      -0.2715
     76  CB        -4.1320   23.0610   33.7480 C.3    54  GLU54       0.0429
     77  CG        -3.9430   22.6330   32.3100 C.3    54  GLU54       0.1163
     78  CD        -4.7980   21.4280   31.9410 C.2    54  GLU54       0.3649
     79  OE1       -5.5590   20.9320   32.8070 O.co2  54  GLU54      -0.2457
     80  OE2       -4.7070   20.9770   30.7790 O.co2  54  GLU54      -0.2457
     81  N         -3.3110   24.3480   36.5570 N.am   55  VAL55      -0.1963
     82  CA        -3.7090   24.6410   37.9200 C.3    55  VAL55       0.1727
     83  C         -2.6010   25.3660   38.6720 C.2    55  VAL55       0.2616
     84  O         -1.4430   25.2840   38.2820 O.2    55  VAL55      -0.2715
     85  CB        -4.0280   23.3520   38.6360 C.3    55  VAL55       0.0290
     86  CG1       -5.0970   22.6020   37.8650 C.3    55  VAL55       0.0023
     87  CG2       -2.7620   22.5050   38.7550 C.3    55  VAL55       0.0023
     88  N         -2.9630   26.0610   39.7520 N.am   56  ILE56      -0.1977
     89  CA        -2.0060   26.8280   40.5680 C.3    56  ILE56       0.1596
     90  C         -0.7510   26.0500   40.9580 C.2    56  ILE56       0.2287
     91  O         -0.7690   24.8320   41.0210 O.2    56  ILE56      -0.2864
     92  CB        -2.6680   27.3490   41.8650 C.3    56  ILE56       0.0276
     93  CG1       -3.2820   26.1880   42.6330 C.3    56  ILE56       0.0022
     94  CG2       -3.7430   28.3620   41.5350 C.3    56  ILE56       0.0022
     95  CD1       -3.9110   26.6210   43.9240 C.3    56  ILE56       0.0001
     96  N         -0.6630   23.1510   43.7400 N.3    59  TRP59      -0.1241
     97  CA        -1.1810   21.8650   43.2810 C.3    59  TRP59       0.1605
     98  C         -0.1830   21.1790   42.3700 C.2    59  TRP59       0.2264
     99  O          0.0040   19.9640   42.4430 O.2    59  TRP59      -0.2867
    100  CB        -2.4780   22.0540   42.4930 C.3    59  TRP59       0.0550
    101  CG        -3.7380   21.9770   43.3020 C.ar   59  TRP59       0.0003
    102  CD1       -4.0810   22.7590   44.3620 C.ar   59  TRP59       0.0946
    103  CD2       -4.8410   21.0790   43.0900 C.ar   59  TRP59       0.0152
    104  NE1       -5.3260   22.4080   44.8250 N.ar   59  TRP59      -0.2442
    105  CE2       -5.8170   21.3810   44.0630 C.ar   59  TRP59       0.0810
    106  CE3       -5.0990   20.0520   42.1690 C.ar   59  TRP59       0.0012
    107  CZ2       -7.0420   20.6890   44.1450 C.ar   59  TRP59       0.0191
    108  CZ3       -6.3220   19.3620   42.2500 C.ar   59  TRP59       0.0001
    109  CH2       -7.2750   19.6900   43.2330 C.ar   59  TRP59       0.0015
    110  N         -3.1740   32.2350   45.0470 N.3    82  TYR82      -0.1241
    111  CA        -3.6050   33.4250   44.3130 C.3    82  TYR82       0.1605
    112  C         -2.9830   34.7850   44.6530 C.2    82  TYR82       0.2264
    113  O         -3.5360   35.8290   44.3060 O.2    82  TYR82      -0.2867
    114  CB        -5.1320   33.5050   44.3710 C.3    82  TYR82       0.0534
    115  CG        -5.7570   32.2960   43.7250 C.ar   82  TYR82      -0.0201
    116  CD1       -5.4270   31.9410   42.4190 C.ar   82  TYR82      -0.0009
    117  CD2       -6.6040   31.4600   44.4360 C.ar   82  TYR82      -0.0009
    118  CE1       -5.9140   30.7810   41.8390 C.ar   82  TYR82       0.0417
    119  CE2       -7.1020   30.2870   43.8620 C.ar   82  TYR82       0.0417
    120  CZ        -6.7490   29.9530   42.5630 C.ar   82  TYR82       0.1957
    121  OH        -7.2090   28.7850   41.9950 O.3    82  TYR82      -0.2866
    122  N         -8.8360   35.8420   44.2610 N.3    87  HIS87      -0.1241
    123  CA        -9.7900   35.6490   43.1780 C.3    87  HIS87       0.1621
    124  C        -11.0920   36.3480   43.5500 C.2    87  HIS87       0.2264
    125  O        -11.9190   35.8130   44.2840 O.2    87  HIS87      -0.2867
    126  CB       -10.0390   34.1650   42.9210 C.3    87  HIS87       0.0745
    127  CG       -10.6050   33.8850   41.5650 C.ar   87  HIS87       0.0817
    128  ND1       -9.9480   34.2330   40.4040 N.ar   87  HIS87      -0.2268
    129  CD2      -11.7810   33.3340   41.1840 C.ar   87  HIS87       0.1154
    130  CE1      -10.6980   33.9120   39.3650 C.ar   87  HIS87       0.1986
    131  NE2      -11.8160   33.3650   39.8110 N.ar   87  HIS87      -0.2212
    132  N        -14.2280   35.3260   45.6480 N.3    90  ILE90      -0.1231
    133  CA       -14.0800   33.9460   46.1080 C.3    90  ILE90       0.1692
    134  C        -12.9090   33.7830   47.0790 C.2    90  ILE90       0.2591
    135  O        -13.1000   33.4210   48.2370 O.2    90  ILE90      -0.2718
    136  CB       -13.8750   32.9760   44.9190 C.3    90  ILE90       0.0266
    137  CG1      -14.9230   33.2410   43.8410 C.3    90  ILE90       0.0019
    138  CG2      -14.0150   31.5160   45.3930 C.3    90  ILE90       0.0020
    139  CD1      -14.8070   32.3190   42.6570 C.3    90  ILE90       0.0001
    140  N        -11.7020   34.0540   46.5920 N.am   91  ILE91      -0.1980
    141  CA       -10.4690   33.9480   47.3760 C.3    91  ILE91       0.1595
    142  C         -9.9110   35.3450   47.6200 C.2    91  ILE91       0.2287
    143  O         -9.6410   36.0720   46.6700 O.2    91  ILE91      -0.2864
    144  CB        -9.3800   33.1710   46.6140 C.3    91  ILE91       0.0276
    145  CG1       -9.9900   31.9600   45.9140 C.3    91  ILE91       0.0022
    146  CG2       -8.2920   32.7430   47.5660 C.3    91  ILE91       0.0022
    147  CD1      -10.6610   31.0060   46.8460 C.3    91  ILE91       0.0001
    148  N         -6.3020   22.4640   50.8530 N.3    99  PHE99      -0.1241
    149  CA        -7.0700   21.5410   50.0250 C.3    99  PHE99       0.1605
    150  C         -6.9720   20.1100   50.5280 C.2    99  PHE99       0.2264
    151  O         -5.8920   19.6320   50.8880 O.2    99  PHE99      -0.2867
    152  CB        -6.5860   21.5480   48.5740 C.3    99  PHE99       0.0534
    153  CG        -6.9820   22.7670   47.7930 C.ar   99  PHE99      -0.0203
    154  CD1       -6.2790   23.9610   47.9260 C.ar   99  PHE99      -0.0042
    155  CD2       -8.0580   22.7200   46.9170 C.ar   99  PHE99      -0.0042
    156  CE1       -6.6490   25.0900   47.1900 C.ar   99  PHE99      -0.0003
    157  CE2       -8.4320   23.8450   46.1840 C.ar   99  PHE99      -0.0003
    158  CZ        -7.7300   25.0250   46.3190 C.ar   99  PHE99      -0.0000
@<TRIPOS>BOND
     1    80    78   ar
     2    78    77    1
     3    78    79   ar
     4    77    76    1
     5    71    69   am
     6    67    68    1
     7    67    64    1
     8    63    64    1
     9    60    61    1
    10    60    59    1
    11    76    73    1
    12    61    62    1
    13    69    68    1
    14    69    70    2
    15    73    72    1
    16    73    74    1
    17    72    65   am
    18    66    65    2
    19    65    64    1
    20    58    59    1
    21    58    55    1
    22    57    56    2
    23    56    55    1
    24    74    75    2
    25    74    81   am
    26    55    54    1
    27    81    82    1
    28    54    45   am
    29    51    53   ar
    30    51    49   ar
    31    53    52   ar
    32    86    85    1
    33    82    85    1
    34    82    83    1
    35    45    46    2
    36    45    44    1
    37    84    83    2
    38    49    48   ar
    39    52    50   ar
    40    85    87    1
    41    83    88   am
    42    44    43    1
    43    44    47    1
    44    48    50   ar
    45    48    47    1
    46   130   131   ar
    47   130   128   ar
    48    88    89    1
    49   131   129   ar
    50   128   127   ar
    51    89    90    1
    52    89    92    1
    53    38    39    1
    54    38    37    1
    55    39    40    2
    56    90    91    2
    57   129   127   ar
    58    35    34    2
    59    94    92    1
    60   127   126    1
    61    42    40    1
    62    40    41    1
    63    36    37    1
    64    36    33    1
    65   118   116   ar
    66   118   120   ar
    67    92    93    1
    68   121   120    1
    69   106   108   ar
    70   106   103   ar
    71   108   109   ar
    72    12    11    1
    73    98    99    2
    74    98    97    1
    75    34    33    1
    76   116   115   ar
    77   100    97    1
    78   100   101    1
    79   120   119   ar
    80    10    11   ar
    81    10     8   ar
    82    93    95    1
    83   139   137    1
    84    33    32    1
    85   126   123    1
    86   103   101   ar
    87   103   105   ar
    88    11     9   ar
    89   123   124    1
    90   123   122    1
    91   109   107   ar
    92    31    29   ar
    93    97    96    1
    94   101   102   ar
    95     8     6   ar
    96   124   125    2
    97   115   114    1
    98   115   117   ar
    99   137   136    1
   100   119   117   ar
   101   105   107   ar
   102   105   104   ar
   103    30    29   ar
   104    29    28    1
   105   113   112    2
   106   111   114    1
   107   111   112    1
   108   111   110    1
   109   102   104   ar
   110     9     7   ar
   111     6     7   ar
   112     6     5    1
   113   136   138    1
   114   136   133    1
   115     1     2    1
   116    28    25    1
   117   132   133    1
   118     5     2    1
   119   145   144    1
   120   145   147    1
   121   133   134    1
   122   157   158   ar
   123   157   155   ar
   124   158   156   ar
   125     2     3    1
   126   140   134   am
   127   140   141    1
   128     4     3    2
   129   144   141    1
   130   144   146    1
   131    25    26    1
   132    25    24    1
   133    16    15    2
   134   143   142    2
   135   155   153   ar
   136    26    27    2
   137    21    19   ar
   138    21    23   ar
   139   134   135    2
   140   156   154   ar
   141    19    18   ar
   142   141   142    1
   143    15    24   am
   144    15    14    1
   145   153   154   ar
   146   153   152    1
   147    23    22   ar
   148    18    17    1
   149    18    20   ar
   150   152   149    1
   151    17    14    1
   152    14    13    1
   153    22    20   ar
   154   149   150    1
   155   149   148    1
   156   150   151    2
