@<TRIPOS>MOLECULE
tmp/4fapB00.pdb
 131 129 0 0 0
SMALL
GASTEIGER

@<TRIPOS>ATOM
      1  N        -13.0820   29.2390   24.0180 N.3    13  LEU13      -0.1231
      2  CA       -13.2410   28.9930   25.4410 C.3    13  LEU13       0.1693
      3  C        -11.9130   29.0250   26.1750 C.2    13  LEU13       0.2591
      4  O        -11.8610   29.3280   27.3630 O.2    13  LEU13      -0.2718
      5  CB       -13.9010   27.6400   25.6550 C.3    13  LEU13       0.0284
      6  CG       -15.3730   27.5530   25.2700 C.3    13  LEU13       0.0019
      7  CD1      -15.8560   26.1330   25.4820 C.3    13  LEU13       0.0001
      8  CD2      -16.1880   28.5180   26.1210 C.3    13  LEU13       0.0001
      9  N        -10.8360   28.6910   25.4730 N.am   14  GLU14      -0.1979
     10  CA        -9.5170   28.6890   26.0790 C.3    14  GLU14       0.1602
     11  C         -9.0910   30.1460   26.2840 C.2    14  GLU14       0.2287
     12  O         -8.6060   30.5190   27.3590 O.2    14  GLU14      -0.2864
     13  CB        -8.5390   27.9620   25.1620 C.3    14  GLU14       0.0415
     14  CG        -7.2670   27.5210   25.8330 C.3    14  GLU14       0.1163
     15  CD        -6.5210   26.5040   25.0050 C.2    14  GLU14       0.3649
     16  OE1       -6.0740   26.8560   23.8950 O.co2  14  GLU14      -0.2457
     17  OE2       -6.3930   25.3480   25.4590 O.co2  14  GLU14      -0.2457
     18  N        -11.3610   31.7940   29.1070 N.3    17  SER17      -0.1202
     19  CA       -10.9230   31.3960   30.4500 C.3    17  SER17       0.2020
     20  C         -9.5960   32.0000   30.8820 C.2    17  SER17       0.2618
     21  O         -9.4080   32.2900   32.0570 O.2    17  SER17      -0.2717
     22  CB       -10.8420   29.8670   30.5810 C.3    17  SER17       0.2103
     23  OG        -9.8900   29.3110   29.7000 O.3    17  SER17      -0.2182
     24  N         -8.6770   32.1920   29.9400 N.am   18  ARG18      -0.1979
     25  CA        -7.3840   32.7700   30.2670 C.3    18  ARG18       0.1597
     26  C         -7.5490   34.2330   30.7090 C.2    18  ARG18       0.2287
     27  O         -6.9670   34.6450   31.7070 O.2    18  ARG18      -0.2864
     28  CB        -6.4480   32.6770   29.0660 C.3    18  ARG18       0.0334
     29  CG        -4.9810   32.8700   29.4190 C.3    18  ARG18       0.0492
     30  CD        -4.2550   33.6010   28.3120 C.3    18  ARG18       0.2205
     31  NE        -4.8010   34.9440   28.1520 N.pl3  18  ARG18      -0.0865
     32  CZ        -4.5090   35.7590   27.1450 C.cat  18  ARG18       0.5346
     33  NH1       -3.6740   35.3640   26.1940 N.pl3  18  ARG18       0.1354
     34  NH2       -5.0590   36.9660   27.0880 N.pl3  18  ARG18       0.1354
     35  N         -9.7680   33.9420   34.3680 N.3    21  PHE21      -0.1227
     36  CA        -8.9840   33.3330   35.4420 C.3    21  PHE21       0.1736
     37  C         -7.5330   33.8270   35.5030 C.2    21  PHE21       0.2596
     38  O         -7.0140   34.1260   36.5740 O.2    21  PHE21      -0.2718
     39  CB        -8.9960   31.8110   35.2980 C.3    21  PHE21       0.0547
     40  CG       -10.3540   31.1990   35.4910 C.ar   21  PHE21      -0.0202
     41  CD1      -10.9000   31.0730   36.7670 C.ar   21  PHE21      -0.0042
     42  CD2      -11.1000   30.7640   34.3970 C.ar   21  PHE21      -0.0042
     43  CE1      -12.1690   30.5240   36.9500 C.ar   21  PHE21      -0.0003
     44  CE2      -12.3670   30.2160   34.5670 C.ar   21  PHE21      -0.0003
     45  CZ       -12.9040   30.0950   35.8440 C.ar   21  PHE21      -0.0000
     46  N         -6.8850   33.9200   34.3510 N.am   22  GLY22      -0.1957
     47  CA        -5.5070   34.3570   34.3160 C.3    22  GLY22       0.1869
     48  C         -5.2950   35.8400   34.5400 C.2    22  GLY22       0.2309
     49  O         -4.4070   36.2240   35.3010 O.2    22  GLY22      -0.2863
     50  N        -20.7300   34.0120   41.6910 N.3    77  LYS77      -0.1245
     51  CA       -21.1450   32.6100   41.7050 C.3    77  LYS77       0.1561
     52  C        -21.9460   32.2070   40.4680 C.2    77  LYS77       0.2260
     53  O        -21.9030   31.0440   40.0480 O.2    77  LYS77      -0.2867
     54  CB       -21.9600   32.3060   42.9650 C.3    77  LYS77       0.0271
     55  CG       -21.2760   31.3330   43.9100 C.3    77  LYS77       0.0035
     56  CD       -19.9100   31.8520   44.3410 C.3    77  LYS77       0.0206
     57  CE       -19.1260   30.8140   45.1460 C.3    77  LYS77       0.1093
     58  NZ       -18.6840   29.6480   44.3240 N.3    77  LYS77      -0.1314
     59  N        -19.5380   31.5570   37.6670 N.3    80  THR80      -0.1203
     60  CA       -18.8760   30.2600   37.7820 C.3    80  THR80       0.1994
     61  C        -19.7840   29.1020   37.3830 C.2    80  THR80       0.2617
     62  O        -19.3010   28.0350   37.0120 O.2    80  THR80      -0.2717
     63  CB       -18.3380   30.0080   39.2030 C.3    80  THR80       0.1784
     64  OG1      -19.3860   30.1910   40.1630 O.3    80  THR80      -0.2211
     65  CG2      -17.1840   30.9490   39.4950 C.3    80  THR80       0.0376
     66  N        -21.0960   29.2970   37.4700 N.am   81  GLN81      -0.1979
     67  CA       -22.0280   28.2460   37.0670 C.3    81  GLN81       0.1601
     68  C        -21.9120   28.0960   35.5620 C.2    81  GLN81       0.2287
     69  O        -22.1040   27.0190   35.0100 O.2    81  GLN81      -0.2864
     70  CB       -23.4710   28.6100   37.4430 C.3    81  GLN81       0.0394
     71  CG       -23.8430   28.1560   38.8270 C.3    81  GLN81       0.0908
     72  CD       -23.6350   26.6700   38.9720 C.2    81  GLN81       0.2608
     73  OE1      -23.3370   26.1700   40.0550 O.2    81  GLN81      -0.2717
     74  NE2      -23.7930   25.9480   37.8690 N.am   81  GLN81      -0.0878
     75  N        -19.0530   28.8030   33.7790 N.3    83  TRP83      -0.1227
     76  CA       -17.7810   28.1430   33.5190 C.3    83  TRP83       0.1737
     77  C        -17.7530   26.6430   33.7930 C.2    83  TRP83       0.2595
     78  O        -16.8850   25.9320   33.2930 O.2    83  TRP83      -0.2718
     79  CB       -16.6520   28.8530   34.2720 C.3    83  TRP83       0.0564
     80  CG       -16.1330   29.9960   33.4580 C.ar   83  TRP83       0.0003
     81  CD1      -16.3820   31.3360   33.6420 C.ar   83  TRP83       0.0946
     82  CD2      -15.4200   29.8880   32.2150 C.ar   83  TRP83       0.0152
     83  NE1      -15.8790   32.0570   32.5800 N.ar   83  TRP83      -0.2442
     84  CE2      -15.2860   31.1950   31.6920 C.ar   83  TRP83       0.0810
     85  CE3      -14.8910   28.8080   31.4860 C.ar   83  TRP83       0.0012
     86  CZ2      -14.6440   31.4490   30.4780 C.ar   83  TRP83       0.0191
     87  CZ3      -14.2540   29.0660   30.2800 C.ar   83  TRP83       0.0001
     88  CH2      -14.1380   30.3740   29.7890 C.ar   83  TRP83       0.0015
     89  N        -18.7030   26.1580   34.5810 N.am   84  ASP84      -0.1974
     90  CA       -18.7810   24.7370   34.8830 C.3    84  ASP84       0.1709
     91  C        -19.2460   24.0310   33.5990 C.2    84  ASP84       0.2293
     92  O        -18.8370   22.9000   33.3020 O.2    84  ASP84      -0.2864
     93  CB       -19.7990   24.5040   36.0050 C.3    84  ASP84       0.1436
     94  CG       -19.8860   23.0530   36.4260 C.2    84  ASP84       0.3671
     95  OD1      -18.8550   22.3510   36.3330 O.co2  84  ASP84      -0.2456
     96  OD2      -20.9800   22.6220   36.8610 O.co2  84  ASP84      -0.2456
     97  N        -19.0320   25.5220   30.3510 N.3    86  TYR86      -0.1227
     98  CA       -18.0810   25.7910   29.2780 C.3    86  TYR86       0.1736
     99  C        -16.9580   24.7670   29.3930 C.2    86  TYR86       0.2595
    100  O        -16.4360   24.2900   28.3860 O.2    86  TYR86      -0.2718
    101  CB       -17.4910   27.1970   29.4080 C.3    86  TYR86       0.0548
    102  CG       -18.4010   28.3320   28.9840 C.ar   86  TYR86      -0.0200
    103  CD1      -19.1810   28.2440   27.8280 C.ar   86  TYR86      -0.0009
    104  CD2      -18.4220   29.5240   29.7010 C.ar   86  TYR86      -0.0009
    105  CE1      -19.9440   29.3170   27.3980 C.ar   86  TYR86       0.0417
    106  CE2      -19.1810   30.5930   29.2810 C.ar   86  TYR86       0.0417
    107  CZ       -19.9330   30.4880   28.1310 C.ar   86  TYR86       0.1957
    108  OH       -20.6440   31.5770   27.7070 O.3    86  TYR86      -0.2866
    109  N        -16.5830   24.4430   30.6280 N.am   87  TYR87      -0.1976
    110  CA       -15.5360   23.4580   30.8810 C.3    87  TYR87       0.1639
    111  C        -15.9810   22.1220   30.3080 C.2    87  TYR87       0.2290
    112  O        -15.2550   21.4550   29.5770 O.2    87  TYR87      -0.2864
    113  CB       -15.3010   23.2950   32.3900 C.3    87  TYR87       0.0560
    114  CG       -14.1400   22.3760   32.7350 C.ar   87  TYR87      -0.0198
    115  CD1      -13.0350   22.2830   31.8880 C.ar   87  TYR87      -0.0009
    116  CD2      -14.0980   21.6850   33.9450 C.ar   87  TYR87      -0.0009
    117  CE1      -11.9130   21.5470   32.2330 C.ar   87  TYR87       0.0417
    118  CE2      -12.9730   20.9390   34.3060 C.ar   87  TYR87       0.0417
    119  CZ       -11.8810   20.8840   33.4410 C.ar   87  TYR87       0.1957
    120  OH       -10.7260   20.2190   33.7890 O.3    87  TYR87      -0.2866
    121  N        -15.9440   22.0400   26.5810 N.3    90  PHE90      -0.1241
    122  CA       -14.5190   22.0460   26.2370 C.3    90  PHE90       0.1605
    123  C        -13.8480   20.6760   26.4060 C.2    90  PHE90       0.2264
    124  O        -13.0520   20.2620   25.5690 O.2    90  PHE90      -0.2867
    125  CB       -13.7920   23.0720   27.1080 C.3    90  PHE90       0.0534
    126  CG       -12.3340   23.2180   26.7920 C.ar   90  PHE90      -0.0203
    127  CD1      -11.9220   23.8600   25.6310 C.ar   90  PHE90      -0.0042
    128  CD2      -11.3700   22.7200   27.6590 C.ar   90  PHE90      -0.0042
    129  CE1      -10.5700   24.0070   25.3360 C.ar   90  PHE90      -0.0003
    130  CE2      -10.0160   22.8620   27.3710 C.ar   90  PHE90      -0.0003
    131  CZ        -9.6170   23.5080   26.2040 C.ar   90  PHE90      -0.0000
@<TRIPOS>BOND
     1    16    15   ar
     2     1     2    1
     3    15    17   ar
     4    15    14    1
     5    13    14    1
     6    13    10    1
     7     6     7    1
     8     6     5    1
     9     6     8    1
    10   129   127   ar
    11   129   131   ar
    12     2     5    1
    13     2     3    1
    14     9    10    1
    15     9     3   am
    16   124   123    2
    17   127   126   ar
    18    10    11    1
    19     3     4    2
    20    33    32    1
    21   131   130   ar
    22   122   123    1
    23   122   121    1
    24   122   125    1
    25    11    12    2
    26   126   125    1
    27   126   128   ar
    28    34    32    1
    29    32    31    2
    30   130   128   ar
    31   105   103   ar
    32   105   107   ar
    33   108   107    1
    34   103   102   ar
    35   107   106   ar
    36    31    30    1
    37    30    29    1
    38   100    99    2
    39   102   101    1
    40   102   104   ar
    41    28    29    1
    42    28    25    1
    43    18    19    1
    44    98    99    1
    45    98   101    1
    46    98    97    1
    47   106   104   ar
    48    99   109   am
    49   112   111    2
    50    23    22    1
    51    88    87   ar
    52    88    86   ar
    53    24    25    1
    54    24    20   am
    55    25    26    1
    56    87    85   ar
    57   111   110    1
    58    19    22    1
    59    19    20    1
    60    86    84   ar
    61   109   110    1
    62    26    27    2
    63   110   113    1
    64    20    21    2
    65    85    82   ar
    66    84    82   ar
    67    84    83   ar
    68   115   117   ar
    69   115   114   ar
    70    82    80   ar
    71   117   119   ar
    72   113   114    1
    73    83    81   ar
    74   114   116   ar
    75    78    77    2
    76    92    91    2
    77   119   120    1
    78   119   118   ar
    79    80    81   ar
    80    80    79    1
    81    76    75    1
    82    76    77    1
    83    76    79    1
    84    91    90    1
    85    77    89   am
    86   116   118   ar
    87    47    46    1
    88    47    48    1
    89    46    37   am
    90    35    36    1
    91    42    44   ar
    92    42    40   ar
    93    48    49    2
    94    44    45   ar
    95    89    90    1
    96    90    93    1
    97    69    68    2
    98    39    36    1
    99    39    40    1
   100    36    37    1
   101    40    41   ar
   102    37    38    2
   103    68    67    1
   104    45    43   ar
   105    93    94    1
   106    95    94   ar
   107    94    96   ar
   108    41    43   ar
   109    62    61    2
   110    67    70    1
   111    67    66    1
   112    61    66   am
   113    61    60    1
   114    70    71    1
   115    59    60    1
   116    60    63    1
   117    74    72   am
   118    71    72    1
   119    72    73    2
   120    63    65    1
   121    63    64    1
   122    53    52    2
   123    52    51    1
   124    50    51    1
   125    51    54    1
   126    54    55    1
   127    55    56    1
   128    58    57    1
   129    56    57    1
