@<TRIPOS>MOLECULE
tmp/4fasB00.pdb
 86 78 0 0 0
SMALL
GASTEIGER

@<TRIPOS>ATOM
      1  N         22.3230   57.0370   -3.8770 N.3    95  LYS95      -0.1231
      2  CA        22.7210   56.8270   -5.2940 C.3    95  LYS95       0.1693
      3  C         22.9390   55.3660   -5.6000 C.2    95  LYS95       0.2591
      4  O         22.6740   54.8690   -6.6940 O.2    95  LYS95      -0.2718
      5  CB        24.0250   57.5720   -5.5780 C.3    95  LYS95       0.0285
      6  CG        24.0580   58.2870   -6.8510 C.3    95  LYS95       0.0035
      7  CD        25.4930   58.2320   -7.4020 C.3    95  LYS95       0.0206
      8  CE        25.7150   59.2320   -8.5510 C.3    95  LYS95       0.1093
      9  NZ        27.1900   59.5500   -8.7090 N.3    95  LYS95      -0.1314
     10  N         23.4370   54.6480   -4.6260 N.am   96  ARG96      -0.1980
     11  CA        23.5660   53.2160   -4.8230 C.3    96  ARG96       0.1597
     12  C         22.3220   52.4130   -4.4480 C.2    96  ARG96       0.2287
     13  O         22.3400   51.2100   -4.6050 O.2    96  ARG96      -0.2864
     14  CB        24.8560   52.6460   -4.1890 C.3    96  ARG96       0.0334
     15  CG        24.8800   52.4980   -2.7170 C.3    96  ARG96       0.0492
     16  CD        26.3550   52.2240   -2.3170 C.3    96  ARG96       0.2205
     17  NE        26.6380   52.7570   -0.9770 N.pl3  96  ARG96      -0.0865
     18  CZ        27.6480   53.5850   -0.6620 C.cat  96  ARG96       0.5346
     19  NH1       27.7470   54.0150    0.5970 N.pl3  96  ARG96       0.1354
     20  NH2       28.5610   53.9890   -1.5670 N.pl3  96  ARG96       0.1354
     21  N         18.2120   51.0610   -4.8060 N.3    98  THR98      -0.1218
     22  CA        17.1700   50.7720   -5.7530 C.3    98  THR98       0.1862
     23  C         16.3430   52.0080   -5.9850 C.2    98  THR98       0.2287
     24  O         15.9850   52.2920   -7.0960 O.2    98  THR98      -0.2866
     25  CB        16.3440   49.6240   -5.1860 C.3    98  THR98       0.1770
     26  OG1       17.1740   48.4530   -5.1290 O.3    98  THR98      -0.2211
     27  CG2       15.0480   49.3640   -5.9690 C.3    98  THR98       0.0375
     28  N         17.7330   53.7990   -8.7030 N.3   101  ASN101     -0.1240
     29  CA        18.0900   53.0500   -9.9010 C.3   101  ASN101      0.1653
     30  C         16.9350   52.2580  -10.4840 C.2   101  ASN101      0.2266
     31  O         17.0860   51.0580  -10.7310 O.2   101  ASN101     -0.2867
     32  CB        19.2340   52.0740   -9.6080 C.3   101  ASN101      0.1155
     33  CG        20.5490   52.7710   -9.3680 C.2   101  ASN101      0.2627
     34  OD1       21.3180   52.9320  -10.3110 O.2   101  ASN101     -0.2716
     35  ND2       20.8450   53.1420   -8.1160 N.am  101  ASN101     -0.0877
     36  N         17.3410   49.8440  -13.6080 N.3   104  LYS104     -0.1231
     37  CA        17.8950   48.5260  -13.2810 C.3   104  LYS104      0.1693
     38  C         16.7330   47.5270  -13.0220 C.2   104  LYS104      0.2591
     39  O         16.7190   46.4140  -13.5480 O.2   104  LYS104     -0.2718
     40  CB        18.8690   48.6830  -12.0850 C.3   104  LYS104      0.0285
     41  CG        19.8700   47.6030  -11.7500 C.3   104  LYS104      0.0035
     42  CD        21.0930   48.3040  -11.1290 C.3   104  LYS104      0.0206
     43  CE        22.1610   47.3860  -10.4500 C.3   104  LYS104      0.1093
     44  NZ        21.6020   46.2570   -9.6760 N.3   104  LYS104     -0.1314
     45  N         15.7460   47.9500  -12.2380 N.am  105  ILE105     -0.1980
     46  CA        14.6760   47.0680  -11.8830 C.3   105  ILE105      0.1595
     47  C         13.8140   46.7100  -13.0850 C.2   105  ILE105      0.2287
     48  O         13.5380   45.5330  -13.3000 O.2   105  ILE105     -0.2864
     49  CB        13.8050   47.6830  -10.8000 C.3   105  ILE105      0.0276
     50  CG1       14.6600   48.0340   -9.5760 C.3   105  ILE105      0.0022
     51  CG2       12.6710   46.7260  -10.4820 C.3   105  ILE105      0.0022
     52  CD1       15.5040   46.8280   -8.9450 C.3   105  ILE105      0.0001
     53  N         15.1380   43.7220  -15.1890 N.3   108  LEU108     -0.1245
     54  CA        15.3450   42.3890  -14.7130 C.3   108  LEU108      0.1561
     55  C         14.7390   41.3520  -15.6670 C.2   108  LEU108      0.2260
     56  O         13.7080   41.6010  -16.2600 O.2   108  LEU108     -0.2867
     57  CB        14.7400   42.2800  -13.3210 C.3   108  LEU108      0.0270
     58  CG        15.5130   43.1460  -12.3070 C.3   108  LEU108      0.0019
     59  CD1       14.7860   43.3250  -10.9300 C.3   108  LEU108      0.0001
     60  CD2       16.8080   42.4900  -12.0850 C.3   108  LEU108      0.0001
     61  N         15.6900   37.9550   -8.4170 N.3   114  LEU114     -0.1245
     62  CA        15.2130   39.3160   -8.0500 C.3   114  LEU114      0.1561
     63  C         14.1080   39.9030   -8.9800 C.2   114  LEU114      0.2260
     64  O         13.7950   41.0480   -8.8640 O.2   114  LEU114     -0.2867
     65  CB        16.3620   40.3320   -7.9820 C.3   114  LEU114      0.0270
     66  CG        17.5870   39.9110   -7.1890 C.3   114  LEU114      0.0019
     67  CD1       18.5370   41.0130   -7.0590 C.3   114  LEU114      0.0001
     68  CD2       17.2340   39.3780   -5.7680 C.3   114  LEU114      0.0001
     69  N         11.0240   42.2290   -8.0450 N.3   117  LYS117     -0.1245
     70  CA        11.0700   43.6510   -7.7120 C.3   117  LYS117      0.1561
     71  C         10.4590   44.3910   -8.8360 C.2   117  LYS117      0.2260
     72  O         10.0530   45.4810   -8.7040 O.2   117  LYS117     -0.2867
     73  CB        12.4960   44.1520   -7.4780 C.3   117  LYS117      0.0271
     74  CG        13.0890   43.6100   -6.1950 C.3   117  LYS117      0.0035
     75  CD        14.6370   43.8580   -6.1680 C.3   117  LYS117      0.0206
     76  CE        15.2990   43.0910   -5.0020 C.3   117  LYS117      0.1093
     77  NZ        15.0120   43.8900   -3.7240 N.3   117  LYS117     -0.1314
     78  N         19.6200   38.7170   -0.9410 N.3   293  GLU293     -0.1245
     79  CA        18.8580   39.5860   -1.8380 C.3   293  GLU293      0.1567
     80  C         17.5380   38.9680   -2.2970 C.2   293  GLU293      0.2260
     81  O         16.6210   39.7200   -2.7850 O.2   293  GLU293     -0.2867
     82  CB        19.7070   39.9550   -3.0630 C.3   293  GLU293      0.0388
     83  CG        20.9160   40.8880   -2.6940 C.3   293  GLU293      0.1160
     84  CD        20.5050   42.3140   -2.3510 C.2   293  GLU293      0.3649
     85  OE1       19.3310   42.7330   -2.5690 O.co2 293  GLU293     -0.2457
     86  OE2       21.3740   43.0360   -1.8530 O.co2 293  GLU293     -0.2457
@<TRIPOS>BOND
     1    56    55    2
     2    55    54    1
     3    53    54    1
     4    54    57    1
     5    36    37    1
     6    39    38    2
     7    57    58    1
     8    48    47    2
     9    37    38    1
    10    37    40    1
    11    47    46    1
    12    38    45   am
    13    58    60    1
    14    58    59    1
    15    45    46    1
    16    40    41    1
    17    46    49    1
    18    41    42    1
    19    42    43    1
    20    49    51    1
    21    49    50    1
    22    31    30    2
    23    30    29    1
    24    43    44    1
    25    34    33    2
    26    29    32    1
    27    29    28    1
    28    32    33    1
    29    50    52    1
    30    33    35   am
    31    63    64    2
    32    63    62    1
    33    71    72    2
    34    71    70    1
    35     9     8    1
    36     8     7    1
    37    61    62    1
    38    62    65    1
    39    69    70    1
    40    65    66    1
    41    70    73    1
    42    73    74    1
    43     7     6    1
    44    66    67    1
    45    66    68    1
    46    24    23    2
    47     6     5    1
    48     4     3    2
    49    74    75    1
    50    75    76    1
    51    23    22    1
    52    27    25    1
    53    22    25    1
    54    22    21    1
    55     3     2    1
    56     3    10   am
    57     5     2    1
    58     2     1    1
    59    25    26    1
    60    76    77    1
    61    11    10    1
    62    11    12    1
    63    11    14    1
    64    13    12    2
    65    14    15    1
    66    82    83    1
    67    82    79    1
    68    81    80    2
    69    15    16    1
    70    83    84    1
    71    85    84   ar
    72    84    86   ar
    73    16    17    1
    74    80    79    1
    75    79    78    1
    76    20    18    1
    77    17    18    2
    78    18    19    1
