@<TRIPOS>MOLECULE
tmp/4fasB03.pdb
 104 102 0 0 0
SMALL
GASTEIGER

@<TRIPOS>ATOM
      1  N          4.5200   36.2000   33.0700 N.3   336  PHE336     -0.1241
      2  CA         3.7480   36.4600   34.2840 C.3   336  PHE336      0.1605
      3  C          2.5530   37.4120   34.0530 C.2   336  PHE336      0.2264
      4  O          1.7850   37.6900   34.9720 O.2   336  PHE336     -0.2867
      5  CB         4.7020   37.0630   35.2970 C.3   336  PHE336      0.0534
      6  CG         5.3450   38.3390   34.7990 C.ar  336  PHE336     -0.0203
      7  CD1        4.6620   39.5470   34.8450 C.ar  336  PHE336     -0.0042
      8  CD2        6.6220   38.3250   34.2750 C.ar  336  PHE336     -0.0042
      9  CE1        5.2650   40.7480   34.3800 C.ar  336  PHE336     -0.0003
     10  CE2        7.2420   39.5070   33.8130 C.ar  336  PHE336     -0.0003
     11  CZ         6.5720   40.6980   33.8710 C.ar  336  PHE336     -0.0000
     12  N          9.1980   32.0230   40.4460 N.3   387  TYR387     -0.1241
     13  CA         8.9590   33.4320   40.7340 C.3   387  TYR387      0.1605
     14  C          7.6670   33.5490   41.5610 C.2   387  TYR387      0.2264
     15  O          7.5860   34.3840   42.4960 O.2   387  TYR387     -0.2867
     16  CB         8.7620   34.1960   39.4340 C.3   387  TYR387      0.0534
     17  CG         7.9020   35.4460   39.5770 C.ar  387  TYR387     -0.0201
     18  CD1        8.4100   36.5750   40.2130 C.ar  387  TYR387     -0.0009
     19  CD2        6.5700   35.4900   39.0990 C.ar  387  TYR387     -0.0009
     20  CE1        7.6340   37.7180   40.4000 C.ar  387  TYR387      0.0417
     21  CE2        5.7850   36.6510   39.2600 C.ar  387  TYR387      0.0417
     22  CZ         6.3390   37.7720   39.8830 C.ar  387  TYR387      0.1957
     23  OH         5.6170   38.9600   40.0650 O.3   387  TYR387     -0.2866
     24  N          7.2720   35.7050   44.8590 N.3   391  ASN391     -0.1240
     25  CA         6.4380   36.8670   44.9350 C.3   391  ASN391      0.1653
     26  C          5.4570   36.7040   46.0940 C.2   391  ASN391      0.2266
     27  O          5.0590   37.7160   46.6990 O.2   391  ASN391     -0.2867
     28  CB         5.6520   37.0660   43.6390 C.3   391  ASN391      0.1155
     29  CG         4.9130   38.4450   43.5750 C.2   391  ASN391      0.2627
     30  OD1        3.7010   38.5130   43.4020 O.2   391  ASN391     -0.2716
     31  ND2        5.6570   39.5260   43.7170 N.am  391  ASN391     -0.0877
     32  N          5.0870   39.8320   48.3690 N.3   395  HIS395     -0.1241
     33  CA         3.7950   40.4250   48.2760 C.3   395  HIS395      0.1621
     34  C          3.1190   40.4460   49.6440 C.2   395  HIS395      0.2264
     35  O          2.5440   41.4640   50.0250 O.2   395  HIS395     -0.2867
     36  CB         2.9020   39.7020   47.2730 C.3   395  HIS395      0.0745
     37  CG         1.7200   40.5180   46.9060 C.ar  395  HIS395      0.0817
     38  ND1        1.6910   41.3090   45.7780 N.ar  395  HIS395     -0.2268
     39  CD2        0.5750   40.7730   47.5760 C.ar  395  HIS395      0.1154
     40  CE1        0.5590   41.9860   45.7460 C.ar  395  HIS395      0.1986
     41  NE2       -0.1320   41.6850   46.8310 N.ar  395  HIS395     -0.2212
     42  N          2.6140   48.1960   44.4970 N.3   421  PHE421     -0.1227
     43  CA         3.6300   47.2220   44.7640 C.3   421  PHE421      0.1736
     44  C          4.2460   46.6710   43.5080 C.2   421  PHE421      0.2596
     45  O          3.5370   46.1490   42.6620 O.2   421  PHE421     -0.2718
     46  CB         3.0500   46.0110   45.4710 C.3   421  PHE421      0.0547
     47  CG         4.0650   44.8840   45.6600 C.ar  421  PHE421     -0.0202
     48  CD1        5.2120   45.0740   46.4340 C.ar  421  PHE421     -0.0042
     49  CD2        3.8620   43.6550   45.0730 C.ar  421  PHE421     -0.0042
     50  CE1        6.1460   44.0220   46.6190 C.ar  421  PHE421     -0.0003
     51  CE2        4.7880   42.6130   45.2310 C.ar  421  PHE421     -0.0003
     52  CZ         5.9410   42.7970   46.0170 C.ar  421  PHE421     -0.0000
     53  N          5.5680   46.6560   43.4420 N.am  422  GLY422     -0.1942
     54  CA         6.2540   45.9860   42.3430 C.3   422  GLY422      0.2014
     55  C          5.7620   46.4470   40.9830 C.2   422  GLY422      0.2639
     56  O          5.4010   45.6430   40.1680 O.2   422  GLY422     -0.2714
     57  N          5.7450   47.7660   40.7670 N.am  423  ILE423     -0.1963
     58  CA         5.1300   48.3530   39.5810 C.3   423  ILE423      0.1727
     59  C          6.1870   48.7640   38.5710 C.2   423  ILE423      0.2616
     60  O          7.2940   49.1510   38.9290 O.2   423  ILE423     -0.2715
     61  CB         4.1870   49.5550   39.9430 C.3   423  ILE423      0.0290
     62  CG1        4.8860   50.6240   40.8380 C.3   423  ILE423      0.0022
     63  CG2        2.8950   49.0160   40.5960 C.3   423  ILE423      0.0023
     64  CD1        4.2640   52.0080   40.7340 C.3   423  ILE423      0.0001
     65  N          5.8560   48.6910   37.2950 N.am  424  PHE424     -0.1974
     66  CA         6.8570   49.0110   36.2810 C.3   424  PHE424      0.1639
     67  C          7.5980   50.3290   36.6180 C.2   424  PHE424      0.2290
     68  O          8.8190   50.4310   36.5010 O.2   424  PHE424     -0.2864
     69  CB         6.2380   49.0390   34.8640 C.3   424  PHE424      0.0560
     70  CG         7.2340   49.2490   33.8090 C.ar  424  PHE424     -0.0200
     71  CD1        8.0260   48.1910   33.3720 C.ar  424  PHE424     -0.0042
     72  CD2        7.4560   50.5330   33.3020 C.ar  424  PHE424     -0.0042
     73  CE1        9.0350   48.4150   32.3190 C.ar  424  PHE424     -0.0003
     74  CE2        8.4790   50.7880   32.2790 C.ar  424  PHE424     -0.0003
     75  CZ         9.2360   49.7430   31.7950 C.ar  424  PHE424     -0.0000
     76  N         12.2640   41.0880   43.4950 N.3   442  VAL442     -0.1231
     77  CA        11.2290   40.2200   42.9590 C.3   442  VAL442      0.1692
     78  C         10.6100   40.7740   41.6660 C.2   442  VAL442      0.2591
     79  O         10.1090   40.0110   40.8400 O.2   442  VAL442     -0.2718
     80  CB        10.1620   39.8930   44.0610 C.3   442  VAL442      0.0266
     81  CG1        9.0910   41.0020   44.1380 C.3   442  VAL442      0.0020
     82  CG2        9.5600   38.5150   43.8450 C.3   442  VAL442      0.0020
     83  N         10.5800   42.0880   41.5040 N.am  443  LEU443     -0.1980
     84  CA        10.0330   42.7310   40.3130 C.3   443  LEU443      0.1596
     85  C         11.0150   42.3590   39.1960 C.2   443  LEU443      0.2287
     86  O         10.6080   41.9090   38.1380 O.2   443  LEU443     -0.2864
     87  CB        10.0520   44.2550   40.4640 C.3   443  LEU443      0.0297
     88  CG         9.1100   45.1790   39.6970 C.3   443  LEU443      0.0022
     89  CD1        9.6140   46.5970   39.8130 C.3   443  LEU443      0.0001
     90  CD2        8.8750   44.7410   38.2400 C.3   443  LEU443      0.0001
     91  N         10.8570   38.6350   37.8670 N.3   446  ALA446     -0.1231
     92  CA         9.8300   38.3820   36.8560 C.3   446  ALA446      0.1694
     93  C         10.1840   39.1370   35.5480 C.2   446  ALA446      0.2591
     94  O         10.2960   38.5330   34.4730 O.2   446  ALA446     -0.2718
     95  CB         8.4730   38.7970   37.3840 C.3   446  ALA446      0.0304
     96  N         10.3760   40.4370   35.6610 N.am  447  GLU447     -0.1979
     97  CA        10.5220   41.3110   34.4940 C.3   447  GLU447      0.1602
     98  C         11.7820   41.0220   33.7000 C.2   447  GLU447      0.2287
     99  O         11.8070   41.2300   32.4930 O.2   447  GLU447     -0.2864
    100  CB        10.6100   42.7710   34.9410 C.3   447  GLU447      0.0415
    101  CG        10.6970   43.7420   33.7860 C.3   447  GLU447      0.1163
    102  CD         9.3180   44.2210   33.3470 C.2   447  GLU447      0.3649
    103  OE1        9.2420   45.0960   32.4430 O.co2 447  GLU447     -0.2457
    104  OE2        8.3070   43.7220   33.9060 O.co2 447  GLU447     -0.2457
@<TRIPOS>BOND
     1    75    74   ar
     2    75    73   ar
     3    74    72   ar
     4    73    71   ar
     5   103   102   ar
     6    99    98    2
     7     1     2    1
     8    72    70   ar
     9   102   101    1
    10   102   104   ar
    11    71    70   ar
    12    98    97    1
    13   101   100    1
    14    70    69    1
    15    10    11   ar
    16    10     8   ar
    17    11     9   ar
    18     3     2    1
    19     3     4    2
    20     8     6   ar
    21     2     5    1
    22     9     7   ar
    23    94    93    2
    24    97   100    1
    25    97    96    1
    26     6     7   ar
    27     6     5    1
    28    69    66    1
    29    93    96   am
    30    93    92    1
    31    66    67    1
    32    66    65    1
    33    68    67    2
    34    92    95    1
    35    92    91    1
    36    65    59   am
    37    86    85    2
    38    90    88    1
    39    59    60    2
    40    59    58    1
    41    19    21   ar
    42    19    17   ar
    43    85    84    1
    44    21    22   ar
    45    16    17    1
    46    16    13    1
    47    17    18   ar
    48    58    61    1
    49    58    57    1
    50    88    89    1
    51    88    87    1
    52    22    23    1
    53    22    20   ar
    54    61    63    1
    55    61    62    1
    56    56    55    2
    57    18    20   ar
    58    84    87    1
    59    84    83    1
    60    12    13    1
    61    64    62    1
    62    13    14    1
    63    57    55   am
    64    79    78    2
    65    55    54    1
    66    83    78   am
    67    14    15    2
    68    78    77    1
    69    54    53    1
    70    45    44    2
    71    77    76    1
    72    77    80    1
    73    30    29    2
    74    53    44   am
    75    44    43    1
    76    29    28    1
    77    29    31   am
    78    28    25    1
    79    82    80    1
    80    80    81    1
    81    42    43    1
    82    43    46    1
    83    24    25    1
    84    25    26    1
    85    49    51   ar
    86    49    47   ar
    87    51    52   ar
    88    46    47    1
    89    47    48   ar
    90    40    38   ar
    91    40    41   ar
    92    38    37   ar
    93    52    50   ar
    94    26    27    2
    95    48    50   ar
    96    41    39   ar
    97    37    36    1
    98    37    39   ar
    99    36    33    1
   100    33    32    1
   101    33    34    1
   102    34    35    2
