@<TRIPOS>MOLECULE
tmp/4fasB04.pdb
 123 117 0 0 0
SMALL
GASTEIGER

@<TRIPOS>ATOM
      1  N         -7.2610   44.6440   -4.6990 N.3     1  ASP1       -0.1225
      2  CA        -7.2580   43.7530   -3.4830 C.3     1  ASP1        0.1805
      3  C         -5.8100   43.5020   -3.0880 C.2     1  ASP1        0.2597
      4  O         -5.0410   42.9660   -3.9060 O.2     1  ASP1       -0.2718
      5  CB        -7.9710   42.4220   -3.7830 C.3     1  ASP1        0.1424
      6  CG        -8.1400   41.5090   -2.5500 C.2     1  ASP1        0.3668
      7  OD1       -7.4360   41.6980   -1.5450 O.co2   1  ASP1       -0.2456
      8  OD2       -9.0020   40.5760   -2.5680 O.co2   1  ASP1       -0.2456
      9  N         -5.4370   43.8680   -1.8520 N.am    2  ILE2       -0.1980
     10  CA        -4.1320   43.3760   -1.3230 C.3     2  ILE2        0.1595
     11  C         -4.3340   41.9870   -0.6990 C.2     2  ILE2        0.2287
     12  O         -4.8030   41.8690    0.4500 O.2     2  ILE2       -0.2864
     13  CB        -3.4330   44.4010   -0.3750 C.3     2  ILE2        0.0276
     14  CG1       -3.5750   45.8170   -0.9520 C.3     2  ILE2        0.0022
     15  CG2       -1.9730   43.9750   -0.1580 C.3     2  ILE2        0.0022
     16  CD1       -3.2470   46.9240   -0.0500 C.3     2  ILE2        0.0001
     17  N         -6.4950   51.4450   -4.8800 N.3    22  PRO22      -0.2116
     18  CA        -5.3490   51.7450   -3.9930 C.3    22  PRO22       0.1372
     19  C         -5.4840   53.1060   -3.1970 C.2    22  PRO22       0.2244
     20  O         -5.1580   53.2110   -2.0060 O.2    22  PRO22      -0.2868
     21  CB        -4.1630   51.7400   -4.9850 C.3    22  PRO22       0.0268
     22  CG        -4.5470   50.6530   -5.9540 C.3    22  PRO22       0.0207
     23  CD        -6.0710   50.8360   -6.1470 C.3    22  PRO22       0.0892
     24  N         16.4590   35.6200   -9.6700 N.3   113  PRO113     -0.2116
     25  CA        15.6960   35.4900   -8.4270 C.3   113  PRO113      0.1372
     26  C         15.1460   36.8420   -7.9220 C.2   113  PRO113      0.2244
     27  O         14.2320   36.8500   -7.0830 O.2   113  PRO113     -0.2868
     28  CB        16.7120   34.8920   -7.4590 C.3   113  PRO113      0.0268
     29  CG        18.1270   35.2640   -8.1120 C.3   113  PRO113      0.0207
     30  CD        17.8580   35.1540   -9.5440 C.3   113  PRO113      0.0892
     31  N         13.5630   39.1130   -9.8880 N.3   115  TYR115     -0.1227
     32  CA        12.5820   39.6070  -10.8350 C.3   115  TYR115      0.1736
     33  C         11.3400   40.1220  -10.1410 C.2   115  TYR115      0.2595
     34  O         10.6640   41.0020  -10.6420 O.2   115  TYR115     -0.2718
     35  CB        12.2420   38.5130  -11.8830 C.3   115  TYR115      0.0548
     36  CG        11.2510   39.0080  -12.8800 C.ar  115  TYR115     -0.0200
     37  CD1       11.6340   39.8800  -13.9150 C.ar  115  TYR115     -0.0009
     38  CD2        9.9050   38.6550  -12.7800 C.ar  115  TYR115     -0.0009
     39  CE1       10.6910   40.3820  -14.8210 C.ar  115  TYR115      0.0417
     40  CE2        8.9390   39.1530  -13.6710 C.ar  115  TYR115      0.0417
     41  CZ         9.3320   40.0090  -14.6830 C.ar  115  TYR115      0.1957
     42  OH         8.3760   40.4940  -15.5540 O.3   115  TYR115     -0.2866
     43  N         11.0410   39.5880   -8.9710 N.am  116  TYR116     -0.1976
     44  CA         9.8680   40.0370   -8.2370 C.3   116  TYR116      0.1639
     45  C          9.8610   41.5720   -8.0090 C.2   116  TYR116      0.2290
     46  O          8.7980   42.1650   -7.8880 O.2   116  TYR116     -0.2864
     47  CB         9.7330   39.2930   -6.9230 C.3   116  TYR116      0.0560
     48  CG        10.6440   39.8710   -5.8320 C.ar  116  TYR116     -0.0198
     49  CD1       11.9620   39.4300   -5.6740 C.ar  116  TYR116     -0.0009
     50  CD2       10.1730   40.8310   -4.9340 C.ar  116  TYR116     -0.0009
     51  CE1       12.8280   39.9570   -4.6700 C.ar  116  TYR116      0.0417
     52  CE2       11.0170   41.3800   -3.9270 C.ar  116  TYR116      0.0417
     53  CZ        12.3420   40.9300   -3.8040 C.ar  116  TYR116      0.1957
     54  OH        13.1620   41.4240   -2.7850 O.3   116  TYR116     -0.2866
     55  N          7.8650   43.4140  -10.4890 N.3   119  GLY119     -0.1225
     56  CA         6.4040   43.3980  -10.1440 C.3   119  GLY119      0.1811
     57  C          6.0450   44.4280   -9.0760 C.2   119  GLY119      0.2280
     58  O          5.0530   45.1740   -9.1740 O.2   119  GLY119     -0.2866
     59  N          5.9800   47.9640  -10.5030 N.3   122  GLU122     -0.1231
     60  CA         4.7830   48.1970  -11.2580 C.3   122  GLU122      0.1699
     61  C          3.5590   48.2760  -10.3410 C.2   122  GLU122      0.2592
     62  O          2.6810   49.0910  -10.5480 O.2   122  GLU122     -0.2718
     63  CB         4.6650   47.1330  -12.3060 C.3   122  GLU122      0.0402
     64  CG         5.5840   47.3980  -13.4550 C.3   122  GLU122      0.1161
     65  CD         5.4690   46.3170  -14.4540 C.2   122  GLU122      0.3649
     66  OE1        4.4160   45.6720  -14.4220 O.co2 122  GLU122     -0.2457
     67  OE2        6.4110   46.0580  -15.2150 O.co2 122  GLU122     -0.2457
     68  N          3.5390   47.4810   -9.2940 N.am  123  GLU123     -0.1979
     69  CA         2.5580   47.6770   -8.2680 C.3   123  GLU123      0.1602
     70  C          2.6390   49.1300   -7.7070 C.2   123  GLU123      0.2287
     71  O          1.6090   49.8480   -7.6120 O.2   123  GLU123     -0.2864
     72  CB         2.7580   46.6110   -7.2090 C.3   123  GLU123      0.0415
     73  CG         1.7600   46.6410   -6.0560 C.3   123  GLU123      0.1163
     74  CD         2.2520   45.8050   -4.8800 C.2   123  GLU123      0.3649
     75  OE1        3.4250   45.9110   -4.4190 O.co2 123  GLU123     -0.2457
     76  OE2        1.4790   44.9790   -4.4200 O.co2 123  GLU123     -0.2457
     77  N          1.1970   51.4880  -10.1670 N.3   126  ASN126     -0.1225
     78  CA        -0.2410   51.3500  -10.2010 C.3   126  ASN126      0.1785
     79  C         -0.8950   52.1060   -9.0250 C.2   126  ASN126      0.2597
     80  O         -1.8370   52.8780   -9.2020 O.2   126  ASN126     -0.2718
     81  CB        -0.6160   49.8820  -10.2280 C.3   126  ASN126      0.1169
     82  CG        -2.0210   49.6390  -10.8160 C.2   126  ASN126      0.2627
     83  OD1       -2.9120   49.1080  -10.1380 O.2   126  ASN126     -0.2716
     84  ND2       -2.2100   50.0030  -12.0750 N.am  126  ASN126     -0.0877
     85  N         -0.3340   51.9500   -7.8440 N.am  127  ASN127     -0.1974
     86  CA        -0.7920   52.7070   -6.6780 C.3   127  ASN127      0.1688
     87  C         -0.7720   54.2120   -6.8900 C.2   127  ASN127      0.2292
     88  O         -1.7060   54.9070   -6.5220 O.2   127  ASN127     -0.2864
     89  CB         0.0250   52.3630   -5.4230 C.3   127  ASN127      0.1181
     90  CG        -0.1230   50.9270   -4.9900 C.2   127  ASN127      0.2629
     91  OD1       -1.0840   50.2440   -5.2960 O.2   127  ASN127     -0.2716
     92  ND2        0.8770   50.4590   -4.2680 N.am  127  ASN127     -0.0877
     93  N          1.0340   47.9580    0.0160 N.3   178  ARG178     -0.1245
     94  CA         1.0280   46.5790    0.5380 C.3   178  ARG178      0.1563
     95  C          1.7180   46.4670    1.9410 C.2   178  ARG178      0.2260
     96  O          1.1110   46.0450    2.9460 O.2   178  ARG178     -0.2867
     97  CB         1.6700   45.5880   -0.4540 C.3   178  ARG178      0.0307
     98  CG         1.6320   44.1980    0.0900 C.3   178  ARG178      0.0489
     99  CD         2.4000   43.1940   -0.7240 C.3   178  ARG178      0.2205
    100  NE         1.9390   43.1760   -2.0940 N.pl3 178  ARG178     -0.0865
    101  CZ         0.9870   42.3640   -2.5680 C.cat 178  ARG178      0.5346
    102  NH1        0.3620   41.4850   -1.7930 N.pl3 178  ARG178      0.1354
    103  NH2        0.6480   42.4820   -3.8450 N.pl3 178  ARG178      0.1354
    104  N         13.8700   37.1090   -1.8730 N.3   295  ARG295     -0.1245
    105  CA        12.8100   37.3450   -0.9200 C.3   295  ARG295      0.1563
    106  C         12.7260   36.2330    0.0630 C.2   295  ARG295      0.2260
    107  O         13.2040   35.1040   -0.1950 O.2   295  ARG295     -0.2867
    108  CB        11.4480   37.6490   -1.5910 C.3   295  ARG295      0.0307
    109  CG        11.0130   36.6220   -2.4760 C.3   295  ARG295      0.0489
    110  CD         9.8530   37.0560   -3.4000 C.3   295  ARG295      0.2205
    111  NE         9.6500   35.8510   -4.1930 N.pl3 295  ARG295     -0.0865
    112  CZ         8.5290   35.4250   -4.7610 C.cat 295  ARG295      0.5346
    113  NH1        7.3890   36.1260   -4.6910 N.pl3 295  ARG295      0.1354
    114  NH2        8.5820   34.2630   -5.4310 N.pl3 295  ARG295      0.1354
    115  N         16.1720   29.2430   -3.2350 N.3   302  LYS302     -0.1245
    116  CA        17.1030   30.0810   -3.9630 C.3   302  LYS302      0.1561
    117  C         18.1580   30.7930   -3.0890 C.2   302  LYS302      0.2260
    118  O         19.1950   31.0960   -3.5820 O.2   302  LYS302     -0.2867
    119  CB        16.3390   31.1140   -4.8070 C.3   302  LYS302      0.0271
    120  CG        15.4080   30.5220   -5.8500 C.3   302  LYS302      0.0035
    121  CD        14.2630   31.4850   -6.1110 C.3   302  LYS302      0.0206
    122  CE        13.1820   30.8810   -7.0190 C.3   302  LYS302      0.1093
    123  NZ        12.6540   31.9190   -7.9780 N.3   302  LYS302     -0.1314
@<TRIPOS>BOND
     1    42    41    1
     2    67    65   ar
     3    39    41   ar
     4    39    37   ar
     5    41    40   ar
     6    65    66   ar
     7    65    64    1
     8    37    36   ar
     9    40    38   ar
    10    64    63    1
    11    36    38   ar
    12    36    35    1
    13    63    60    1
    14    84    82   am
    15    35    32    1
    16    60    59    1
    17    60    61    1
    18    32    33    1
    19    32    31    1
    20    82    81    1
    21    82    83    2
    22    34    33    2
    23    62    61    2
    24    55    56    1
    25    61    68   am
    26    81    78    1
    27    78    77    1
    28    78    79    1
    29    56    57    1
    30    33    43   am
    31    24    30    1
    32    24    25    1
    33    30    29    1
    34    68    69    1
    35    80    79    2
    36    58    57    2
    37    79    85   am
    38    43    44    1
    39    25    26    1
    40    25    28    1
    41    69    70    1
    42    69    72    1
    43    44    45    1
    44    44    47    1
    45    29    28    1
    46    45    46    2
    47   123   122    1
    48    26    27    2
    49    85    86    1
    50    70    71    2
    51    72    73    1
    52   122   121    1
    53    47    48    1
    54    87    86    1
    55    87    88    2
    56    86    89    1
    57    23    22    1
    58    23    17    1
    59   121   120    1
    60    73    74    1
    61    22    21    1
    62   120   119    1
    63    48    49   ar
    64    48    50   ar
    65    49    51   ar
    66   114   112    1
    67    89    90    1
    68    91    90    2
    69    90    92   am
    70    21    18    1
    71    50    52   ar
    72    74    76   ar
    73    74    75   ar
    74    17    18    1
    75   119   116    1
    76   112   113    1
    77   112   111    2
    78     1     2    1
    79    51    53   ar
    80   111   110    1
    81    18    19    1
    82   116   115    1
    83   116   117    1
    84    52    53   ar
    85     4     3    2
    86   103   101    1
    87    53    54    1
    88     5     2    1
    89     5     6    1
    90   118   117    2
    91     2     3    1
    92   110   109    1
    93    19    20    2
    94     3     9   am
    95   101   100    2
    96   101   102    1
    97     8     6   ar
    98     6     7   ar
    99   109   108    1
   100   100    99    1
   101   104   105    1
   102     9    10    1
   103   108   105    1
   104    10    11    1
   105    10    13    1
   106    14    13    1
   107    14    16    1
   108   105   106    1
   109    99    98    1
   110    11    12    2
   111    97    98    1
   112    97    94    1
   113    13    15    1
   114   107   106    2
   115    93    94    1
   116    94    95    1
   117    95    96    2
