@<TRIPOS>MOLECULE
tmp/4fasA16.pdb
 95 90 0 0 0
SMALL
GASTEIGER

@<TRIPOS>ATOM
      1  N         62.4050   59.8840   31.9300 N.3    36  PRO36      -0.2102
      2  CA        61.6240   59.5830   33.1380 C.3    36  PRO36       0.1504
      3  C         60.6870   60.7500   33.5360 C.2    36  PRO36       0.2576
      4  O         59.5010   60.5060   33.8380 O.2    36  PRO36      -0.2718
      5  CB        62.7130   59.2750   34.1910 C.3    36  PRO36       0.0282
      6  CG        63.7690   58.5830   33.3690 C.3    36  PRO36       0.0208
      7  CD        63.8070   59.3900   32.0470 C.3    36  PRO36       0.0893
      8  N         61.1730   61.9940   33.4590 N.am   37  ALA37      -0.1966
      9  CA        60.3600   63.1350   33.8820 C.3    37  ALA37       0.1728
     10  C         59.1300   63.2550   33.0280 C.2    37  ALA37       0.2616
     11  O         58.1680   63.8560   33.4190 O.2    37  ALA37      -0.2715
     12  CB        61.1690   64.4350   33.8180 C.3    37  ALA37       0.0334
     13  N         59.1500   62.6560   31.8520 N.am   38  HIS38      -0.1959
     14  CA        57.9870   62.6970   30.9700 C.3    38  HIS38       0.1787
     15  C         57.1770   61.4190   30.9080 C.2    38  HIS38       0.2620
     16  O         56.3780   61.2580   29.9820 O.2    38  HIS38      -0.2715
     17  CB        58.3970   63.1220   29.5720 C.3    38  HIS38       0.0785
     18  CG        58.6220   64.5890   29.4650 C.ar   38  HIS38       0.0821
     19  ND1       59.7930   65.1890   29.8830 N.ar   38  HIS38      -0.2267
     20  CD2       57.8140   65.5850   29.0490 C.ar   38  HIS38       0.1154
     21  CE1       59.7200   66.4860   29.6700 C.ar   38  HIS38       0.1986
     22  NE2       58.5230   66.7560   29.1860 N.ar   38  HIS38      -0.2212
     23  N         57.3620   60.5170   31.8810 N.am   39  GLY39      -0.1954
     24  CA        56.6120   59.2350   31.8780 C.3    39  GLY39       0.1869
     25  C         57.3430   57.9190   31.5860 C.2    39  GLY39       0.2309
     26  O         56.8520   56.8490   32.0110 O.2    39  GLY39      -0.2863
     27  N         58.4510   54.8440   36.6770 N.3    43  GLY43      -0.1210
     28  CA        57.5420   55.8540   37.2170 C.3    43  GLY43       0.1956
     29  C         57.7970   56.0620   38.7030 C.2    43  GLY43       0.2612
     30  O         58.7590   55.4760   39.2480 O.2    43  GLY43      -0.2717
     31  N         56.9030   56.7980   39.3880 N.am   44  THR44      -0.1952
     32  CA        57.2410   57.3400   40.7180 C.3    44  THR44       0.1897
     33  C         57.1740   56.2800   41.8080 C.2    44  THR44       0.2313
     34  O         57.7390   56.4590   42.8810 O.2    44  THR44      -0.2863
     35  CB        56.3580   58.5390   41.0960 C.3    44  THR44       0.1794
     36  OG1       55.0060   58.0850   41.3050 O.3    44  THR44      -0.2208
     37  CG2       56.4190   59.6220   39.9860 C.3    44  THR44       0.0378
     38  N         50.2720   64.3490   23.9070 N.3   187  ARG187     -0.1245
     39  CA        50.8860   64.9310   25.1110 C.3   187  ARG187      0.1563
     40  C         50.6660   66.4480   25.1140 C.2   187  ARG187      0.2260
     41  O         50.4760   67.0480   26.1690 O.2   187  ARG187     -0.2867
     42  CB        52.3960   64.7270   25.1340 C.3   187  ARG187      0.0307
     43  CG        52.8930   63.3170   25.3330 C.3   187  ARG187      0.0489
     44  CD        54.3840   63.3030   25.0640 C.3   187  ARG187      0.2205
     45  NE        54.9730   62.0270   25.4010 N.pl3 187  ARG187     -0.0865
     46  CZ        55.3920   61.7010   26.6170 C.cat 187  ARG187      0.5346
     47  NH1       55.2910   62.5400   27.6130 N.pl3 187  ARG187      0.1354
     48  NH2       55.8750   60.5250   26.8370 N.pl3 187  ARG187      0.1354
     49  N         45.4300   65.0080   34.3630 N.3   198  PRO198     -0.2102
     50  CA        46.8100   65.4530   34.1360 C.3   198  PRO198      0.1504
     51  C         47.0260   65.7320   32.6290 C.2   198  PRO198      0.2575
     52  O         46.3590   65.0980   31.7770 O.2   198  PRO198     -0.2718
     53  CB        47.6290   64.2800   34.6540 C.3   198  PRO198      0.0282
     54  CG        46.7400   63.6070   35.6750 C.3   198  PRO198      0.0208
     55  CD        45.4000   63.6610   34.9690 C.3   198  PRO198      0.0893
     56  N         47.8720   66.7340   32.3250 N.am  199  ALA199     -0.1980
     57  CA        48.1740   67.1970   30.9640 C.3   199  ALA199      0.1597
     58  C         48.5720   65.9860   30.1610 C.2   199  ALA199      0.2287
     59  O         49.3960   65.2120   30.6090 O.2   199  ALA199     -0.2864
     60  CB        49.3360   68.2000   30.9810 C.3   199  ALA199      0.0319
     61  N         46.6040   63.6160   29.2160 N.3   201  ARG201     -0.1245
     62  CA        45.6780   62.5300   29.5130 C.3   201  ARG201      0.1563
     63  C         44.1720   62.8440   29.4220 C.2   201  ARG201      0.2260
     64  O         43.7600   64.0040   29.5550 O.2   201  ARG201     -0.2867
     65  CB        46.0580   61.8970   30.8370 C.3   201  ARG201      0.0307
     66  CG        47.2790   60.9520   30.5700 C.3   201  ARG201      0.0489
     67  CD        48.0880   60.6470   31.7910 C.3   201  ARG201      0.2205
     68  NE        47.2490   60.0360   32.8060 N.pl3 201  ARG201     -0.0865
     69  CZ        47.6250   59.8840   34.0760 C.cat 201  ARG201      0.5346
     70  NH1       48.8620   60.2590   34.4690 N.pl3 201  ARG201      0.1354
     71  NH2       46.7600   59.3640   34.9460 N.pl3 201  ARG201      0.1354
     72  N         50.2910   58.2530   26.7410 N.3   206  LEU206     -0.1245
     73  CA        50.6160   58.1280   28.1590 C.3   206  LEU206      0.1561
     74  C         49.8560   57.0000   28.8700 C.2   206  LEU206      0.2260
     75  O         49.7970   56.9870   30.1050 O.2   206  LEU206     -0.2867
     76  CB        50.3090   59.4380   28.9050 C.3   206  LEU206      0.0270
     77  CG        51.2730   60.5580   28.5230 C.3   206  LEU206      0.0019
     78  CD1       50.8230   61.9020   29.0910 C.3   206  LEU206      0.0001
     79  CD2       52.7970   60.2380   28.8780 C.3   206  LEU206      0.0001
     80  N         52.1920   55.0920   31.2810 N.3   209  THR209     -0.1218
     81  CA        52.4970   55.9790   32.4120 C.3   209  THR209      0.1862
     82  C         51.3100   55.9770   33.3530 C.2   209  THR209      0.2287
     83  O         51.4770   55.7100   34.5700 O.2   209  THR209     -0.2866
     84  CB        52.8980   57.3810   31.9340 C.3   209  THR209      0.1770
     85  OG1       54.1610   57.2510   31.2480 O.3   209  THR209     -0.2211
     86  CG2       53.1160   58.3250   33.0960 C.3   209  THR209      0.0375
     87  N         51.3730   54.6310   37.2350 N.3   213  GLU213     -0.1245
     88  CA        51.2430   55.6740   38.1950 C.3   213  GLU213      0.1567
     89  C         49.9050   55.5120   38.8760 C.2   213  GLU213      0.2260
     90  O         49.4490   56.4500   39.4740 O.2   213  GLU213     -0.2867
     91  CB        51.2800   57.0840   37.5380 C.3   213  GLU213      0.0388
     92  CG        52.6290   57.5560   37.0760 C.3   213  GLU213      0.1160
     93  CD        53.7680   57.6190   38.1430 C.2   213  GLU213      0.3649
     94  OE1       53.5350   57.6420   39.3960 O.co2 213  GLU213     -0.2457
     95  OE2       54.9370   57.6580   37.6860 O.co2 213  GLU213     -0.2457
@<TRIPOS>BOND
     1    38    39    1
     2    44    43    1
     3    44    45    1
     4    39    40    1
     5    39    42    1
     6    40    41    2
     7    42    43    1
     8    45    46    2
     9    46    48    1
    10    46    47    1
    11    72    73    1
    12    73    74    1
    13    73    76    1
    14    77    79    1
    15    77    76    1
    16    77    78    1
    17    74    75    2
    18    20    22   ar
    19    20    18   ar
    20    22    21   ar
    21    61    62    1
    22    63    62    1
    23    63    64    2
    24    18    17    1
    25    18    19   ar
    26    62    65    1
    27    17    14    1
    28    21    19   ar
    29    16    15    2
    30    58    59    2
    31    58    57    1
    32    66    65    1
    33    66    67    1
    34    15    14    1
    35    15    23   am
    36    57    60    1
    37    57    56    1
    38    14    13    1
    39    85    84    1
    40    80    81    1
    41    25    24    1
    42    25    26    2
    43    52    51    2
    44    67    68    1
    45    13    10   am
    46    24    23    1
    47     1     7    1
    48     1     2    1
    49    84    81    1
    50    84    86    1
    51     7     6    1
    52    56    51   am
    53    81    82    1
    54    51    50    1
    55    68    69    2
    56    10    11    2
    57    10     9    1
    58     2     3    1
    59     2     5    1
    60    82    83    2
    61     6     5    1
    62     8     3   am
    63     8     9    1
    64     3     4    2
    65    12     9    1
    66    69    70    1
    67    69    71    1
    68    50    49    1
    69    50    53    1
    70    49    55    1
    71    53    54    1
    72    55    54    1
    73    27    28    1
    74    92    91    1
    75    92    93    1
    76    28    29    1
    77    87    88    1
    78    91    88    1
    79    95    93   ar
    80    93    94   ar
    81    88    89    1
    82    29    30    2
    83    29    31   am
    84    89    90    2
    85    31    32    1
    86    37    35    1
    87    32    35    1
    88    32    33    1
    89    35    36    1
    90    33    34    2
