@<TRIPOS>MOLECULE
tmp/4fasA04.pdb
 83 77 0 0 0
SMALL
GASTEIGER

@<TRIPOS>ATOM
      1  N         55.9150   37.7470    5.3610 N.3    95  LYS95      -0.1231
      2  CA        55.9760   37.6340    3.9160 C.3    95  LYS95       0.1693
      3  C         54.7370   38.1840    3.2540 C.2    95  LYS95       0.2592
      4  O         54.7920   38.6700    2.0970 O.2    95  LYS95      -0.2718
      5  CB        56.1970   36.1730    3.4880 C.3    95  LYS95       0.0285
      6  CG        57.6650   35.8050    3.5060 C.3    95  LYS95       0.0035
      7  CD        57.9200   34.4090    2.9770 C.3    95  LYS95       0.0206
      8  CE        58.4330   34.5150    1.5880 C.3    95  LYS95       0.1093
      9  NZ        57.9250   33.3940    0.8160 N.3    95  LYS95      -0.1314
     10  N         53.6040   38.0790    3.9570 N.am   96  ARG96      -0.1966
     11  CA        52.3580   38.6290    3.4000 C.3    96  ARG96       0.1729
     12  C         52.2540   40.1540    3.5840 C.2    96  ARG96       0.2617
     13  O         51.3460   40.7770    3.0520 O.2    96  ARG96      -0.2715
     14  CB        51.0840   37.9140    3.9240 C.3    96  ARG96       0.0348
     15  CG        50.9260   36.4290    3.4120 C.3    96  ARG96       0.0492
     16  CD        49.5600   35.7140    3.9330 C.3    96  ARG96       0.2205
     17  NE        49.3920   35.9600    5.3760 N.pl3  96  ARG96      -0.0865
     18  CZ        49.3930   35.0360    6.3510 C.cat  96  ARG96       0.5346
     19  NH1       49.4810   33.7110    6.0660 N.pl3  96  ARG96       0.1354
     20  NH2       49.3040   35.4580    7.6330 N.pl3  96  ARG96       0.1354
     21  N         53.1400   40.7690    4.3440 N.am   97  SER97      -0.1936
     22  CA        52.9310   42.1500    4.6680 C.3    97  SER97       0.2055
     23  C         53.4360   43.1300    3.5880 C.2    97  SER97       0.2643
     24  O         54.2890   42.8170    2.7130 O.2    97  SER97      -0.2714
     25  CB        53.5610   42.5060    6.0210 C.3    97  SER97       0.2130
     26  OG        54.9770   42.4320    5.9230 O.3    97  SER97      -0.2179
     27  N         52.8920   44.3370    3.6590 N.am   98  THR98      -0.1950
     28  CA        53.4590   45.4460    2.9460 C.3    98  THR98       0.1897
     29  C         54.9560   45.5960    3.2390 C.2    98  THR98       0.2313
     30  O         55.7940   45.6930    2.3030 O.2    98  THR98      -0.2863
     31  CB        52.6470   46.6760    3.2410 C.3    98  THR98       0.1794
     32  OG1       51.4160   46.5540    2.5220 O.3    98  THR98      -0.2208
     33  CG2       53.3760   48.0010    2.8080 C.3    98  THR98       0.0378
     34  N         57.0650   43.6720    0.9800 N.3   101  ASN101     -0.1240
     35  CA        56.7320   43.7490   -0.4530 C.3   101  ASN101      0.1653
     36  C         56.7110   45.1860   -0.9280 C.2   101  ASN101      0.2266
     37  O         55.7650   45.6010   -1.6310 O.2   101  ASN101     -0.2867
     38  CB        55.3620   43.1440   -0.7580 C.3   101  ASN101      0.1155
     39  CG        55.2980   41.6350   -0.4880 C.2   101  ASN101      0.2627
     40  OD1       55.6430   40.8110   -1.3450 O.2   101  ASN101     -0.2716
     41  ND2       54.8570   41.2710    0.7060 N.am  101  ASN101     -0.0877
     42  N         55.9580   46.2110   -4.6350 N.3   104  LYS104     -0.1231
     43  CA        54.5400   46.3580   -4.9560 C.3   104  LYS104      0.1693
     44  C         54.0310   47.7600   -4.8030 C.2   104  LYS104      0.2591
     45  O         53.3830   48.2660   -5.7010 O.2   104  LYS104     -0.2718
     46  CB        53.7040   45.4860   -4.0730 C.3   104  LYS104      0.0285
     47  CG        53.1610   44.3130   -4.8010 C.3   104  LYS104      0.0035
     48  CD        51.7290   44.0570   -4.2650 C.3   104  LYS104      0.0206
     49  CE        51.3780   42.5490   -4.1210 C.3   104  LYS104      0.1093
     50  NZ        50.0770   42.3870   -3.3950 N.3   104  LYS104     -0.1314
     51  N         54.2660   48.3570   -3.6320 N.am  105  ILE105     -0.1980
     52  CA        53.8340   49.7260   -3.3530 C.3   105  ILE105      0.1595
     53  C         54.4220   50.7200   -4.3340 C.2   105  ILE105      0.2287
     54  O         53.7580   51.6680   -4.7860 O.2   105  ILE105     -0.2864
     55  CB        54.3350   50.1710   -1.9950 C.3   105  ILE105      0.0276
     56  CG1       53.9550   49.1900   -0.8860 C.3   105  ILE105      0.0022
     57  CG2       53.8640   51.5820   -1.7000 C.3   105  ILE105      0.0022
     58  CD1       52.3440   48.8720   -0.7260 C.3   105  ILE105      0.0001
     59  N         52.6040   50.9500   -7.6180 N.3   108  LEU108     -0.1245
     60  CA        51.1920   51.3910   -7.6000 C.3   108  LEU108      0.1561
     61  C         50.9230   52.4880   -8.6260 C.2   108  LEU108      0.2260
     62  O         51.7040   53.4240   -8.7430 O.2   108  LEU108     -0.2867
     63  CB        50.7610   51.8570   -6.2000 C.3   108  LEU108      0.0270
     64  CG        50.5380   50.7810   -5.1470 C.3   108  LEU108      0.0019
     65  CD1       50.5090   51.3560   -3.7930 C.3   108  LEU108      0.0001
     66  CD2       49.2490   50.0650   -5.4400 C.3   108  LEU108      0.0001
     67  N         44.7660   52.4670   -3.5860 N.3   114  LEU114     -0.1245
     68  CA        45.8740   52.3630   -2.5840 C.3   114  LEU114      0.1561
     69  C         47.0870   53.2620   -2.9420 C.2   114  LEU114      0.2260
     70  O         48.1160   53.2580   -2.2640 O.2   114  LEU114     -0.2867
     71  CB        46.3290   50.9100   -2.3570 C.3   114  LEU114      0.0270
     72  CG        45.1860   49.9290   -2.0490 C.3   114  LEU114      0.0019
     73  CD1       45.6760   48.7090   -1.4390 C.3   114  LEU114      0.0001
     74  CD2       44.1260   50.5650   -1.1400 C.3   114  LEU114      0.0001
     75  N         49.7450   55.0440   -0.8110 N.3   117  LYS117     -0.1245
     76  CA        50.8020   54.3500   -0.1020 C.3   117  LYS117      0.1561
     77  C         52.2210   54.6200   -0.6650 C.2   117  LYS117      0.2260
     78  O         53.2140   54.5560    0.0720 O.2   117  LYS117     -0.2867
     79  CB        50.5410   52.8430   -0.0650 C.3   117  LYS117      0.0271
     80  CG        49.3960   52.3970    0.9190 C.3   117  LYS117      0.0035
     81  CD        49.0400   50.9180    0.7470 C.3   117  LYS117      0.0206
     82  CE        47.7570   50.6490    1.5070 C.3   117  LYS117      0.1093
     83  NZ        48.1010   50.4810    2.9630 N.3   117  LYS117     -0.1314
@<TRIPOS>BOND
     1    62    61    2
     2    61    60    1
     3    59    60    1
     4    60    63    1
     5    63    64    1
     6    45    44    2
     7    66    64    1
     8    64    65    1
     9    43    44    1
    10    43    42    1
    11    43    46    1
    12    44    51   am
    13    47    48    1
    14    47    46    1
    15    54    53    2
    16    53    52    1
    17    48    49    1
    18    49    50    1
    19    51    52    1
    20    67    68    1
    21    52    55    1
    22    69    68    1
    23    69    70    2
    24    68    71    1
    25    71    72    1
    26    72    73    1
    27    72    74    1
    28    55    57    1
    29    55    56    1
    30    37    36    2
    31    40    39    2
    32    36    35    1
    33    56    58    1
    34    75    76    1
    35    38    39    1
    36    38    35    1
    37    77    76    1
    38    77    78    2
    39    39    41   am
    40    35    34    1
    41    76    79    1
    42    79    80    1
    43    81    80    1
    44    81    82    1
    45     9     8    1
    46    82    83    1
    47     8     7    1
    48     4     3    2
    49    30    29    2
    50    32    31    1
    51    24    23    2
    52    33    31    1
    53    28    29    1
    54    28    31    1
    55    28    27    1
    56     7     6    1
    57    13    12    2
    58     3     2    1
    59     3    10   am
    60    11    12    1
    61    11    14    1
    62    11    10    1
    63    15    14    1
    64    15    16    1
    65     5     6    1
    66     5     2    1
    67    12    21   am
    68    23    27   am
    69    23    22    1
    70     2     1    1
    71    16    17    1
    72    21    22    1
    73    22    25    1
    74    17    18    2
    75    26    25    1
    76    19    18    1
    77    18    20    1
