@<TRIPOS>MOLECULE
tmp/4favF00.pdb
 65 61 0 0 0
SMALL
GASTEIGER

@<TRIPOS>ATOM
      1  N         20.8680   59.8480  -23.7920 N.3   137  PRO137     -0.2116
      2  CA        20.3210   60.6830  -24.9190 C.3   137  PRO137      0.1372
      3  C         21.0330   60.5880  -26.2920 C.2   137  PRO137      0.2244
      4  O         20.3730   60.7460  -27.3160 O.2   137  PRO137     -0.2868
      5  CB        20.3080   62.1370  -24.3740 C.3   137  PRO137      0.0268
      6  CG        20.5570   62.0690  -22.9750 C.3   137  PRO137      0.0207
      7  CD        21.1160   60.6240  -22.5760 C.3   137  PRO137      0.0892
      8  N         20.0420   61.2480  -18.0410 N.3   178  THR178     -0.1203
      9  CA        19.8370   62.5580  -18.4270 C.3   178  THR178      0.1994
     10  C         20.9800   63.0730  -19.2520 C.2   178  THR178      0.2617
     11  O         20.8970   64.1560  -19.7900 O.2   178  THR178     -0.2717
     12  CB        19.6670   63.4620  -17.1890 C.3   178  THR178      0.1784
     13  OG1       20.8350   63.3420  -16.3720 O.3   178  THR178     -0.2211
     14  CG2       18.4060   63.0100  -16.3580 C.3   178  THR178      0.0376
     15  N         22.0660   62.3330  -19.3220 N.am  179  ALA179     -0.1979
     16  CA        23.2480   62.8400  -20.0350 C.3   179  ALA179      0.1597
     17  C         24.0980   61.6180  -20.4020 C.2   179  ALA179      0.2287
     18  O         23.8120   60.5060  -19.8920 O.2   179  ALA179     -0.2864
     19  CB        23.9980   63.8120  -19.1280 C.3   179  ALA179      0.0319
     20  N         12.7440   61.8540  -21.9220 N.3   226  GLN226     -0.1231
     21  CA        14.1670   62.1370  -21.9180 C.3   226  GLN226      0.1698
     22  C         14.4040   63.4520  -22.5660 C.2   226  GLN226      0.2592
     23  O         15.1680   64.2480  -22.0480 O.2   226  GLN226     -0.2718
     24  CB        14.9610   61.0290  -22.6470 C.3   226  GLN226      0.0381
     25  CG        16.4380   61.1740  -22.3880 C.3   226  GLN226      0.0905
     26  CD        17.1850   59.9120  -22.7950 C.2   226  GLN226      0.2608
     27  OE1       17.2630   59.5830  -23.9970 O.2   226  GLN226     -0.2717
     28  NE2       17.7160   59.2000  -21.8200 N.am  226  GLN226     -0.0878
     29  N         13.7160   63.7210  -23.6640 N.am  227  LYS227     -0.1980
     30  CA        13.9340   64.9460  -24.3640 C.3   227  LYS227      0.1596
     31  C         13.4680   66.1070  -23.4880 C.2   227  LYS227      0.2287
     32  O         14.0740   67.1580  -23.4960 O.2   227  LYS227     -0.2864
     33  CB        13.1950   64.9280  -25.7110 C.3   227  LYS227      0.0298
     34  CG        13.8920   64.0430  -26.7930 C.3   227  LYS227      0.0038
     35  CD        13.3490   64.2930  -28.2000 C.3   227  LYS227      0.0206
     36  CE        14.4230   64.0510  -29.2230 C.3   227  LYS227      0.1093
     37  NZ        13.8540   64.0680  -30.5870 N.3   227  LYS227     -0.1314
     38  N         13.2690   65.9650  -20.1490 N.3   229  GLY229     -0.1225
     39  CA        13.7220   65.7200  -18.7770 C.3   229  GLY229      0.1811
     40  C         12.6140   65.7000  -17.7550 C.2   229  GLY229      0.2280
     41  O         12.8570   65.9300  -16.5730 O.2   229  GLY229     -0.2866
     42  N         14.0790   67.1570  -14.6090 N.3   245  LEU245     -0.1231
     43  CA        15.5290   66.8700  -14.5580 C.3   245  LEU245      0.1693
     44  C         16.3380   67.5970  -15.6390 C.2   245  LEU245      0.2593
     45  O         17.5220   67.2750  -15.8290 O.2   245  LEU245     -0.2718
     46  CB        15.7490   65.3880  -14.7120 C.3   245  LEU245      0.0284
     47  CG        14.9670   64.5150  -13.7430 C.3   245  LEU245      0.0019
     48  CD1       15.1530   63.1170  -14.2340 C.3   245  LEU245      0.0001
     49  CD2       15.4490   64.6490  -12.2990 C.3   245  LEU245      0.0001
     50  N         15.7000   68.5490  -16.3370 N.am  246  SER246     -0.1938
     51  CA        16.2380   69.1160  -17.5980 C.3   246  SER246      0.2055
     52  C         17.4350   70.0200  -17.4070 C.2   246  SER246      0.2644
     53  O         18.1590   70.2430  -18.3600 O.2   246  SER246     -0.2714
     54  CB        15.1660   69.8680  -18.3950 C.3   246  SER246      0.2130
     55  OG        14.6000   70.9700  -17.6520 O.3   246  SER246     -0.2179
     56  N         17.6040   70.5610  -16.1970 N.am  247  SER247     -0.1935
     57  CA        18.8100   71.3270  -15.8000 C.3   247  SER247      0.2055
     58  C         19.9170   70.3440  -15.3340 C.2   247  SER247      0.2643
     59  O         20.9660   70.7420  -14.8140 O.2   247  SER247     -0.2714
     60  CB        18.4710   72.2870  -14.6650 C.3   247  SER247      0.2130
     61  OG        18.3330   71.5740  -13.4430 O.3   247  SER247     -0.2179
     62  N         19.6610   69.0560  -15.4890 N.am  248  GLY248     -0.1954
     63  CA        20.6180   68.0490  -15.0000 C.3   248  GLY248      0.1869
     64  C         20.6330   67.8860  -13.4760 C.2   248  GLY248      0.2309
     65  O         21.4260   67.1130  -12.9500 O.2   248  GLY248     -0.2863
@<TRIPOS>BOND
     1    37    36    1
     2    36    35    1
     3    35    34    1
     4     4     3    2
     5    34    33    1
     6     3     2    1
     7    33    30    1
     8     2     5    1
     9     2     1    1
    10     5     6    1
    11    30    29    1
    12    30    31    1
    13    27    26    2
    14     1     7    1
    15    29    22   am
    16    32    31    2
    17     6     7    1
    18    26    25    1
    19    26    28   am
    20    24    25    1
    21    24    21    1
    22    22    23    2
    23    22    21    1
    24    20    21    1
    25    17    16    1
    26    17    18    2
    27    38    39    1
    28    16    15    1
    29    16    19    1
    30    11    10    2
    31    15    10   am
    32    10     9    1
    33    39    40    1
    34     9     8    1
    35     9    12    1
    36    54    55    1
    37    54    51    1
    38    53    52    2
    39    40    41    2
    40    51    52    1
    41    51    50    1
    42    52    56   am
    43    12    13    1
    44    12    14    1
    45    50    44   am
    46    56    57    1
    47    45    44    2
    48    57    58    1
    49    57    60    1
    50    44    43    1
    51    62    58   am
    52    62    63    1
    53    58    59    2
    54    63    64    1
    55    46    43    1
    56    46    47    1
    57    60    61    1
    58    42    43    1
    59    48    47    1
    60    47    49    1
    61    64    65    2
