@<TRIPOS>MOLECULE
tmp/4fb7A00.pdb
 80 75 0 0 0
SMALL
GASTEIGER

@<TRIPOS>ATOM
      1  N        -35.9010    4.7830   11.3520 N.3     4  LEU4       -0.1231
      2  CA       -34.9260    4.8710   10.2770 C.3     4  LEU4        0.1693
      3  C        -35.0100    6.2240    9.5590 C.2     4  LEU4        0.2592
      4  O        -33.9880    6.8380    9.3130 O.2     4  LEU4       -0.2718
      5  CB       -35.1070    3.7160    9.2870 C.3     4  LEU4        0.0284
      6  CG       -34.1400    3.7490    8.0990 C.3     4  LEU4        0.0019
      7  CD1      -32.6730    3.6590    8.4750 C.3     4  LEU4        0.0001
      8  CD2      -34.4990    2.5900    7.1630 C.3     4  LEU4        0.0001
      9  N        -36.2280    6.6830    9.2410 N.am    5  ASP5       -0.1974
     10  CA       -36.4430    7.9810    8.5530 C.3     5  ASP5        0.1709
     11  C        -35.7740    9.1060    9.3830 C.2     5  ASP5        0.2293
     12  O        -35.1450    9.9980    8.8390 O.2     5  ASP5       -0.2864
     13  CB       -37.9600    8.3810    8.4650 C.3     5  ASP5        0.1436
     14  CG       -38.7880    7.6180    7.4250 C.2     5  ASP5        0.3671
     15  OD1      -38.2670    7.1810    6.3900 O.co2   5  ASP5       -0.2456
     16  OD2      -40.0540    7.5330    7.6370 O.co2   5  ASP5       -0.2456
     17  N        -32.0300    8.8810    9.0940 N.3     8  LEU8       -0.1245
     18  CA       -31.5500    9.3410    7.7870 C.3     8  LEU8        0.1561
     19  C        -31.6590   10.8620    7.6410 C.2     8  LEU8        0.2260
     20  O        -30.7980   11.4770    7.0370 O.2     8  LEU8       -0.2867
     21  CB       -32.2590    8.6100    6.6600 C.3     8  LEU8        0.0270
     22  CG       -32.0670    7.0920    6.6440 C.3     8  LEU8        0.0019
     23  CD1      -32.7710    6.4390    5.4650 C.3     8  LEU8        0.0001
     24  CD2      -30.5960    6.7010    6.6430 C.3     8  LEU8        0.0001
     25  N        -28.4280   13.2080    6.7850 N.3    12  ARG12      -0.1245
     26  CA       -28.3680   14.2170    5.7500 C.3    12  ARG12       0.1563
     27  C        -27.9180   15.5380    6.3390 C.2    12  ARG12       0.2260
     28  O        -27.1250   16.2530    5.7170 O.2    12  ARG12      -0.2867
     29  CB       -29.6970   14.3590    5.0120 C.3    12  ARG12       0.0307
     30  CG       -30.0250   13.1410    4.1780 C.3    12  ARG12       0.0489
     31  CD       -31.2390   13.3560    3.2620 C.3    12  ARG12       0.2205
     32  NE       -32.4890   13.5360    3.9820 N.pl3  12  ARG12      -0.0865
     33  CZ       -33.3060   12.5590    4.3730 C.cat  12  ARG12       0.5346
     34  NH1      -33.0290   11.3060    4.0910 N.pl3  12  ARG12       0.1354
     35  NH2      -34.4200   12.8600    5.0170 N.pl3  12  ARG12       0.1354
     36  N        -29.5530   -1.8970    2.8570 N.3   138  VAL138     -0.1231
     37  CA       -30.5450   -1.9510    1.7690 C.3   138  VAL138      0.1692
     38  C        -31.7580   -1.1210    2.0880 C.2   138  VAL138      0.2592
     39  O        -32.2640   -0.4040    1.2060 O.2   138  VAL138     -0.2718
     40  CB       -30.9170   -3.4220    1.4140 C.3   138  VAL138      0.0266
     41  CG1      -31.9930   -3.4470    0.3400 C.3   138  VAL138      0.0020
     42  CG2      -29.6800   -4.2120    0.9630 C.3   138  VAL138      0.0020
     43  N        -32.2320   -1.1760    3.3230 N.am  139  ALA139     -0.1966
     44  CA       -33.4300   -0.4280    3.7040 C.3   139  ALA139      0.1728
     45  C        -33.2880    1.0940    3.5640 C.2   139  ALA139      0.2616
     46  O        -34.3010    1.7840    3.5160 O.2   139  ALA139     -0.2715
     47  CB       -33.7650   -0.7240    5.1720 C.3   139  ALA139      0.0334
     48  N        -32.0670    1.5980    3.5110 N.am  140  ALA140     -0.1963
     49  CA       -31.8370    3.0380    3.4290 C.3   140  ALA140      0.1728
     50  C        -31.7800    3.5490    2.0080 C.2   140  ALA140      0.2616
     51  O        -31.7620    4.7640    1.8110 O.2   140  ALA140     -0.2715
     52  CB       -30.5390    3.4060    4.1620 C.3   140  ALA140      0.0334
     53  N        -31.6830    2.6540    1.0320 N.am  141  LEU141     -0.1963
     54  CA       -31.2950    3.0610   -0.3240 C.3   141  LEU141      0.1728
     55  C        -32.1740    2.4780   -1.4020 C.2   141  LEU141      0.2616
     56  O        -32.4940    1.3050   -1.3610 O.2   141  LEU141     -0.2715
     57  CB       -29.8460    2.5700   -0.5880 C.3   141  LEU141      0.0311
     58  CG       -28.7340    3.0810    0.3500 C.3   141  LEU141      0.0022
     59  CD1      -27.3610    2.3970    0.1810 C.3   141  LEU141      0.0001
     60  CD2      -28.5720    4.5850    0.1400 C.3   141  LEU141      0.0001
     61  N        -32.5060    3.3070   -2.3860 N.am  142  GLU142     -0.1977
     62  CA       -33.1080    2.8240   -3.6180 C.3   142  GLU142      0.1602
     63  C        -32.0630    1.9760   -4.3620 C.2   142  GLU142      0.2287
     64  O        -30.8720    2.1990   -4.2620 O.2   142  GLU142     -0.2864
     65  CB       -33.5940    4.0190   -4.4300 C.3   142  GLU142      0.0415
     66  CG       -34.2840    3.7210   -5.7570 C.3   142  GLU142      0.1163
     67  CD       -33.3000    3.4720   -6.8970 C.2   142  GLU142      0.3649
     68  OE1      -33.5550    2.5490   -7.7620 O.co2 142  GLU142     -0.2457
     69  OE2      -32.2830    4.2210   -6.9500 O.co2 142  GLU142     -0.2457
     70  N        -32.2430   -8.3230   -3.1330 N.3   170  ARG170     -0.1245
     71  CA       -31.7160   -7.0880   -3.6900 C.3   170  ARG170      0.1563
     72  C        -30.2280   -6.9560   -3.5050 C.2   170  ARG170      0.2260
     73  O        -29.5140   -6.4870   -4.3960 O.2   170  ARG170     -0.2867
     74  CB       -32.3740   -5.8770   -3.0700 C.3   170  ARG170      0.0307
     75  CG       -33.8440   -5.7120   -3.4850 C.3   170  ARG170      0.0489
     76  CD       -34.4890   -4.5220   -2.8300 C.3   170  ARG170      0.2205
     77  NE       -33.7040   -3.3180   -3.0560 N.pl3 170  ARG170     -0.0865
     78  CZ       -33.7940   -2.1860   -2.3750 C.cat 170  ARG170      0.5346
     79  NH1      -34.7540   -2.0130   -1.4580 N.pl3 170  ARG170      0.1354
     80  NH2      -32.9290   -1.2310   -2.6350 N.pl3 170  ARG170      0.1354
@<TRIPOS>BOND
     1    68    67   ar
     2    69    67   ar
     3    67    66    1
     4    66    65    1
     5    65    62    1
     6    73    72    2
     7    63    64    2
     8    63    62    1
     9    71    72    1
    10    71    70    1
    11    71    74    1
    12    62    61    1
    13    75    74    1
    14    75    76    1
    15    77    76    1
    16    77    78    2
    17    80    78    1
    18    61    55   am
    19    78    79    1
    20    55    56    2
    21    55    54    1
    22    57    54    1
    23    57    58    1
    24    54    53    1
    25    60    58    1
    26    59    58    1
    27    41    40    1
    28    42    40    1
    29    53    50   am
    30    39    38    2
    31    40    37    1
    32    37    38    1
    33    37    36    1
    34    51    50    2
    35    50    49    1
    36    38    43   am
    37    31    32    1
    38    31    30    1
    39    43    44    1
    40    49    48    1
    41    49    52    1
    42    48    45   am
    43    46    45    2
    44    45    44    1
    45    44    47    1
    46    32    33    2
    47    34    33    1
    48    30    29    1
    49    33    35    1
    50    29    26    1
    51    23    22    1
    52    28    27    2
    53    26    27    1
    54    26    25    1
    55    15    14   ar
    56    24    22    1
    57    22    21    1
    58    21    18    1
    59    20    19    2
    60     8     6    1
    61    14    16   ar
    62    14    13    1
    63    19    18    1
    64    18    17    1
    65     6     7    1
    66     6     5    1
    67    13    10    1
    68    10     9    1
    69    10    11    1
    70    12    11    2
    71     9     3   am
    72     5     2    1
    73     4     3    2
    74     3     2    1
    75     2     1    1
