@<TRIPOS>MOLECULE
tmp/4fbaB00.pdb
 104 100 0 0 0
SMALL
GASTEIGER

@<TRIPOS>ATOM
      1  N          8.5320   56.0680   41.0800 N.3    83  ILE83      -0.1231
      2  CA         9.8580   55.8810   40.4820 C.3    83  ILE83       0.1692
      3  C         10.6480   57.1870   40.4250 C.2    83  ILE83       0.2592
      4  O         11.4020   57.4300   39.4780 O.2    83  ILE83      -0.2718
      5  CB         9.8070   55.2150   39.0700 C.3    83  ILE83       0.0266
      6  CG1        8.6630   54.2020   38.9930 C.3    83  ILE83       0.0019
      7  CG2       11.1480   54.5460   38.7450 C.3    83  ILE83       0.0020
      8  CD1        8.5720   53.4520   37.6670 C.3    83  ILE83       0.0001
      9  N         10.4670   58.0220   41.4400 N.am   84  TYR84      -0.1962
     10  CA        11.1950   59.2790   41.5040 C.3    84  TYR84       0.1771
     11  C         12.5260   59.1370   42.2320 C.2    84  TYR84       0.2619
     12  O         12.5860   58.6920   43.3820 O.2    84  TYR84      -0.2715
     13  CB        10.3320   60.3760   42.1320 C.3    84  TYR84       0.0574
     14  CG         9.7890   61.3310   41.0990 C.ar   84  TYR84      -0.0198
     15  CD1        8.7410   60.9620   40.2670 C.ar   84  TYR84      -0.0009
     16  CD2       10.3470   62.5900   40.9340 C.ar   84  TYR84      -0.0009
     17  CE1        8.2510   61.8310   39.3100 C.ar   84  TYR84       0.0417
     18  CE2        9.8670   63.4650   39.9760 C.ar   84  TYR84       0.0417
     19  CZ         8.8180   63.0800   39.1700 C.ar   84  TYR84       0.1957
     20  OH         8.3370   63.9500   38.2190 O.3    84  TYR84      -0.2866
     21  N         13.5980   59.5000   41.5360 N.am   85  LEU85      -0.1963
     22  CA        14.9250   59.5400   42.1430 C.3    85  LEU85       0.1728
     23  C         15.0110   60.7020   43.1270 C.2    85  LEU85       0.2616
     24  O         14.7700   61.8520   42.7580 O.2    85  LEU85      -0.2715
     25  CB        15.9890   59.7340   41.0670 C.3    85  LEU85       0.0311
     26  CG        17.4280   59.9520   41.5450 C.3    85  LEU85       0.0022
     27  CD1       17.9960   58.6800   42.2020 C.3    85  LEU85       0.0001
     28  CD2       18.2920   60.3580   40.3720 C.3    85  LEU85       0.0001
     29  N         15.3840   60.4120   44.3660 N.am   86  GLU86      -0.1977
     30  CA        15.5210   61.4750   45.3610 C.3    86  GLU86       0.1602
     31  C         16.8910   61.5130   46.0340 C.2    86  GLU86       0.2287
     32  O         17.2630   62.5160   46.6460 O.2    86  GLU86      -0.2864
     33  CB        14.4320   61.3570   46.4220 C.3    86  GLU86       0.0415
     34  CG        13.0390   61.6810   45.9220 C.3    86  GLU86       0.1163
     35  CD        12.8540   63.1600   45.6000 C.2    86  GLU86       0.3649
     36  OE1       13.7400   63.9780   45.9320 O.co2  86  GLU86      -0.2457
     37  OE2       11.8050   63.5060   45.0190 O.co2  86  GLU86      -0.2457
     38  N         17.9670   65.2210   46.4240 N.3    98  LEU98      -0.1245
     39  CA        17.5320   66.2140   45.4400 C.3    98  LEU98       0.1561
     40  C         16.4130   67.0870   46.0030 C.2    98  LEU98       0.2260
     41  O         15.9760   68.0440   45.3670 O.2    98  LEU98      -0.2867
     42  CB        17.0790   65.5230   44.1520 C.3    98  LEU98       0.0270
     43  CG        18.2040   64.7640   43.4520 C.3    98  LEU98       0.0019
     44  CD1       17.6840   63.7730   42.4000 C.3    98  LEU98       0.0001
     45  CD2       19.1890   65.7400   42.8210 C.3    98  LEU98       0.0001
     46  N         15.3600   68.1670   41.7500 N.3   113  GLY113     -0.1210
     47  CA        15.3630   66.9600   40.9390 C.3   113  GLY113      0.1956
     48  C         14.4710   66.9520   39.7070 C.2   113  GLY113      0.2613
     49  O         14.3510   65.9170   39.0610 O.2   113  GLY113     -0.2717
     50  N         13.8470   68.0810   39.3740 N.am  114  THR114     -0.1938
     51  CA        12.9880   68.1590   38.1870 C.3   114  THR114      0.2028
     52  C         13.8140   68.4690   36.9440 C.2   114  THR114      0.2642
     53  O         14.9270   68.9640   37.0600 O.2   114  THR114     -0.2714
     54  CB        11.9190   69.2460   38.3530 C.3   114  THR114      0.1808
     55  OG1       12.5450   70.5340   38.2910 O.3   114  THR114     -0.2208
     56  CG2       11.2180   69.0960   39.7030 C.3   114  THR114      0.0379
     57  N         13.2840   68.1850   35.7560 N.am  115  TYR115     -0.1973
     58  CA        14.0160   68.5320   34.5420 C.3   115  TYR115      0.1639
     59  C         14.2050   70.0470   34.4290 C.2   115  TYR115      0.2290
     60  O         15.2110   70.5070   33.9020 O.2   115  TYR115     -0.2864
     61  CB        13.3540   67.9510   33.2880 C.3   115  TYR115      0.0560
     62  CG        13.5040   66.4430   33.1980 C.ar  115  TYR115     -0.0198
     63  CD1       14.7390   65.8350   33.4200 C.ar  115  TYR115     -0.0009
     64  CD2       12.4140   65.6340   32.9280 C.ar  115  TYR115     -0.0009
     65  CE1       14.8850   64.4460   33.3560 C.ar  115  TYR115      0.0417
     66  CE2       12.5460   64.2400   32.8660 C.ar  115  TYR115      0.0417
     67  CZ        13.7790   63.6600   33.0780 C.ar  115  TYR115      0.1957
     68  OH        13.9130   62.2830   33.0170 O.3   115  TYR115     -0.2866
     69  N         18.5590   59.6520   35.0270 N.3   167  LEU167     -0.1245
     70  CA        17.0960   59.7060   34.9730 C.3   167  LEU167      0.1561
     71  C         16.5840   59.1170   33.6710 C.2   167  LEU167      0.2260
     72  O         15.5940   58.3980   33.6640 O.2   167  LEU167     -0.2867
     73  CB        16.5870   61.1480   35.1180 C.3   167  LEU167      0.0270
     74  CG        16.6600   61.7030   36.5360 C.3   167  LEU167      0.0019
     75  CD1       16.0970   63.1170   36.5770 C.3   167  LEU167      0.0001
     76  CD2       15.8890   60.8010   37.4850 C.3   167  LEU167      0.0001
     77  N         15.4020   55.6640   35.2230 N.3   171  ASN171     -0.1225
     78  CA        14.0100   55.9040   35.5910 C.3   171  ASN171      0.1785
     79  C         13.0870   55.9610   34.3810 C.2   171  ASN171      0.2597
     80  O         12.0630   55.2880   34.3610 O.2   171  ASN171     -0.2718
     81  CB        13.8940   57.1950   36.4070 C.3   171  ASN171      0.1169
     82  CG        14.8200   57.2030   37.6070 C.2   171  ASN171      0.2627
     83  OD1       16.0430   57.2510   37.4570 O.2   171  ASN171     -0.2716
     84  ND2       14.2430   57.1800   38.8060 N.am  171  ASN171     -0.0877
     85  N         13.4450   56.7420   33.3590 N.am  172  GLU172     -0.1979
     86  CA        12.5800   56.8150   32.1730 C.3   172  GLU172      0.1602
     87  C         12.5460   55.4960   31.4170 C.2   172  GLU172      0.2287
     88  O         11.5120   55.1040   30.8730 O.2   172  GLU172     -0.2864
     89  CB        12.9590   57.9730   31.2280 C.3   172  GLU172      0.0415
     90  CG        13.0160   59.3570   31.9170 C.3   172  GLU172      0.1163
     91  CD        11.7070   59.8110   32.5750 C.2   172  GLU172      0.3649
     92  OE1       10.6740   59.0920   32.5420 O.co2 172  GLU172     -0.2457
     93  OE2       11.7010   60.9370   33.1300 O.co2 172  GLU172     -0.2457
     94  N         10.1160   53.2960   32.9570 N.3   175  ARG175     -0.1245
     95  CA         8.7400   53.7070   32.6800 C.3   175  ARG175      0.1563
     96  C          8.2930   53.3650   31.2640 C.2   175  ARG175      0.2260
     97  O          7.1160   53.0730   31.0390 O.2   175  ARG175     -0.2867
     98  CB         8.6070   55.2230   32.8650 C.3   175  ARG175      0.0307
     99  CG         8.5610   55.6600   34.3150 C.3   175  ARG175      0.0489
    100  CD         8.7390   57.1650   34.4020 C.3   175  ARG175      0.2205
    101  NE         8.6170   57.6430   35.7820 N.pl3 175  ARG175     -0.0865
    102  CZ         9.3050   58.6680   36.2720 C.cat 175  ARG175      0.5346
    103  NH1       10.1710   59.3150   35.5000 N.pl3 175  ARG175      0.1354
    104  NH2        9.1220   59.0430   37.5280 N.pl3 175  ARG175      0.1354
@<TRIPOS>BOND
     1    88    87    2
     2    97    96    2
     3    89    90    1
     4    89    86    1
     5    96    95    1
     6    87    86    1
     7    90    91    1
     8    86    85    1
     9    92    91   ar
    10    91    93   ar
    11    95    98    1
    12    95    94    1
    13    98    99    1
    14    66    64   ar
    15    66    67   ar
    16    64    62   ar
    17    68    67    1
    18    67    65   ar
    19    62    61    1
    20    62    63   ar
    21    61    58    1
    22    65    63   ar
    23    85    79   am
    24    72    71    2
    25    71    70    1
    26    60    59    2
    27    99   100    1
    28    80    79    2
    29    79    78    1
    30   100   101    1
    31    59    58    1
    32    58    57    1
    33    70    69    1
    34    70    73    1
    35    73    74    1
    36    77    78    1
    37   103   102    1
    38    78    81    1
    39    57    52   am
    40   101   102    2
    41   102   104    1
    42    81    82    1
    43    74    75    1
    44    74    76    1
    45    52    53    2
    46    52    51    1
    47    83    82    2
    48    82    84   am
    49     8     6    1
    50    51    54    1
    51    51    50    1
    52    20    19    1
    53    55    54    1
    54    54    56    1
    55     7     5    1
    56     6     5    1
    57    49    48    2
    58     5     2    1
    59    19    17   ar
    60    19    18   ar
    61    17    15   ar
    62    50    48   am
    63     4     3    2
    64    48    47    1
    65    18    16   ar
    66    15    14   ar
    67    28    26    1
    68     3     2    1
    69     3     9   am
    70     2     1    1
    71    16    14   ar
    72    47    46    1
    73    25    26    1
    74    25    22    1
    75    14    13    1
    76     9    10    1
    77    10    13    1
    78    10    11    1
    79    21    22    1
    80    21    11   am
    81    26    27    1
    82    22    23    1
    83    11    12    2
    84    44    43    1
    85    24    23    2
    86    45    43    1
    87    23    29   am
    88    43    42    1
    89    42    39    1
    90    29    30    1
    91    37    35   ar
    92    30    31    1
    93    30    33    1
    94    41    40    2
    95    39    40    1
    96    39    38    1
    97    35    34    1
    98    35    36   ar
    99    34    33    1
   100    31    32    2
