@<TRIPOS>MOLECULE
tmp/4fbcC00.pdb
 150 145 0 0 0
SMALL
GASTEIGER

@<TRIPOS>ATOM
      1  N          0.6920   22.2820   31.8980 N.3    83  ILE83      -0.1231
      2  CA         0.9660   22.2970   30.4600 C.3    83  ILE83       0.1692
      3  C          1.0020   20.8920   29.8430 C.2    83  ILE83       0.2592
      4  O          1.6720   20.6510   28.8420 O.2    83  ILE83      -0.2718
      5  CB         2.2250   23.1300   30.1280 C.3    83  ILE83       0.0266
      6  CG1        2.3070   24.3350   31.0700 C.3    83  ILE83       0.0019
      7  CG2        2.1860   23.6090   28.6620 C.3    83  ILE83       0.0020
      8  CD1        3.5540   25.2080   30.8400 C.3    83  ILE83       0.0001
      9  N          0.2400   19.9630   30.4210 N.am   84  TYR84      -0.1962
     10  CA         0.1120   18.6400   29.8250 C.3    84  TYR84       0.1771
     11  C         -0.8590   18.6600   28.6510 C.2    84  TYR84       0.2619
     12  O         -2.0070   19.0930   28.7950 O.2    84  TYR84      -0.2715
     13  CB        -0.4390   17.6290   30.8420 C.3    84  TYR84       0.0574
     14  CG         0.5410   17.0840   31.8580 C.ar   84  TYR84      -0.0198
     15  CD1        1.7100   17.7540   32.1690 C.ar   84  TYR84      -0.0009
     16  CD2        0.2620   15.9010   32.5360 C.ar   84  TYR84      -0.0009
     17  CE1        2.5940   17.2520   33.1240 C.ar   84  TYR84       0.0417
     18  CE2        1.1350   15.3850   33.4840 C.ar   84  TYR84       0.0417
     19  CZ         2.2980   16.0610   33.7730 C.ar   84  TYR84       0.1957
     20  OH         3.1600   15.5490   34.7190 O.3    84  TYR84      -0.2866
     21  N         -0.4200   18.1570   27.5020 N.am   85  LEU85      -0.1963
     22  CA        -1.3060   17.9670   26.3540 C.3    85  LEU85       0.1728
     23  C         -2.1900   16.7460   26.6190 C.2    85  LEU85       0.2616
     24  O         -1.6760   15.6680   26.9220 O.2    85  LEU85      -0.2715
     25  CB        -0.4710   17.7170   25.0980 C.3    85  LEU85       0.0311
     26  CG        -1.2660   17.3700   23.8340 C.3    85  LEU85       0.0022
     27  CD1       -2.1330   18.5490   23.4320 C.3    85  LEU85       0.0001
     28  CD2       -0.3440   16.9370   22.6840 C.3    85  LEU85       0.0001
     29  N         -3.5060   16.8980   26.5080 N.am   86  GLU86      -0.1977
     30  CA        -4.3950   15.7460   26.7290 C.3    86  GLU86       0.1602
     31  C         -5.3900   15.4640   25.6050 C.2    86  GLU86       0.2287
     32  O         -5.9350   14.3640   25.5220 O.2    86  GLU86      -0.2864
     33  CB        -5.1430   15.8740   28.0600 C.3    86  GLU86       0.0415
     34  CG        -4.2630   15.8070   29.2880 C.3    86  GLU86       0.1163
     35  CD        -3.5370   14.4720   29.4400 C.2    86  GLU86       0.3649
     36  OE1       -3.8860   13.4940   28.7400 O.co2  86  GLU86      -0.2457
     37  OE2       -2.5880   14.4010   30.2540 O.co2  86  GLU86      -0.2457
     38  N         -5.5030   11.5470   25.0690 N.3    98  LEU98      -0.1245
     39  CA        -4.2850   10.7820   25.3280 C.3    98  LEU98       0.1561
     40  C         -4.3640   10.0560   26.6630 C.2    98  LEU98       0.2260
     41  O         -3.4490    9.3160   27.0340 O.2    98  LEU98      -0.2867
     42  CB        -3.0660   11.7080   25.3130 C.3    98  LEU98       0.0270
     43  CG        -2.7770   12.2930   23.9310 C.3    98  LEU98       0.0019
     44  CD1       -1.8110   13.4630   24.0390 C.3    98  LEU98       0.0001
     45  CD2       -2.1900   11.2210   23.0380 C.3    98  LEU98       0.0001
     46  N          0.1730    9.7900   26.5010 N.3   113  GLY113     -0.1210
     47  CA         0.8090   11.0660   26.2120 C.3   113  GLY113      0.1956
     48  C          2.1590   11.3180   26.8650 C.2   113  GLY113      0.2613
     49  O          2.6970   12.4190   26.7400 O.2   113  GLY113     -0.2717
     50  N          2.7140   10.3220   27.5590 N.am  114  THR114     -0.1938
     51  CA         4.0740   10.4480   28.0990 C.3   114  THR114      0.2028
     52  C          5.0820   10.0050   27.0510 C.2   114  THR114      0.2642
     53  O          4.7310    9.2840   26.1200 O.2   114  THR114     -0.2714
     54  CB         4.3050    9.5750   29.3480 C.3   114  THR114      0.1808
     55  OG1        4.3210    8.1960   28.9680 O.3   114  THR114     -0.2208
     56  CG2        3.2280    9.8130   30.4020 C.3   114  THR114      0.0379
     57  N          6.3410   10.4070   27.2020 N.am  115  TYR115     -0.1973
     58  CA         7.3570    9.9970   26.2320 C.3   115  TYR115      0.1639
     59  C          7.6350    8.4940   26.2700 C.2   115  TYR115      0.2290
     60  O          8.0160    7.9030   25.2630 O.2   115  TYR115     -0.2864
     61  CB         8.6470   10.8060   26.4160 C.3   115  TYR115      0.0560
     62  CG         8.4490   12.2620   26.0870 C.ar  115  TYR115     -0.0198
     63  CD1        7.8890   12.6380   24.8760 C.ar  115  TYR115     -0.0009
     64  CD2        8.7870   13.2580   26.9980 C.ar  115  TYR115     -0.0009
     65  CE1        7.6820   13.9680   24.5620 C.ar  115  TYR115      0.0417
     66  CE2        8.5840   14.5960   26.7010 C.ar  115  TYR115      0.0417
     67  CZ         8.0310   14.9420   25.4700 C.ar  115  TYR115      0.1957
     68  OH         7.8190   16.2580   25.1450 O.3   115  TYR115     -0.2866
     69  N          4.3950   17.9680   21.1490 N.3   167  LEU167     -0.1245
     70  CA         4.8230   18.0990   22.5430 C.3   167  LEU167      0.1561
     71  C          6.1130   18.8980   22.6420 C.2   167  LEU167      0.2260
     72  O          6.2400   19.7910   23.4760 O.2   167  LEU167     -0.2867
     73  CB         5.0230   16.7230   23.1840 C.3   167  LEU167      0.0270
     74  CG         3.7310   16.0500   23.6490 C.3   167  LEU167      0.0019
     75  CD1        4.0390   14.6680   24.1810 C.3   167  LEU167      0.0001
     76  CD2        3.0700   16.8960   24.7270 C.3   167  LEU167      0.0001
     77  N          4.5250   22.3620   23.7910 N.3   171  ASN171     -0.1225
     78  CA         4.5760   22.2850   25.2520 C.3   171  ASN171      0.1785
     79  C          5.9750   22.4520   25.8230 C.2   171  ASN171      0.2597
     80  O          6.1730   23.2410   26.7430 O.2   171  ASN171     -0.2718
     81  CB         3.9700   20.9630   25.7510 C.3   171  ASN171      0.1169
     82  CG         2.5820   20.7050   25.1820 C.2   171  ASN171      0.2627
     83  OD1        2.4280   20.4790   23.9750 O.2   171  ASN171     -0.2716
     84  ND2        1.5700   20.7150   26.0460 N.am  171  ASN171     -0.0877
     85  N          6.9490   21.7190   25.2970 N.am  172  GLU172     -0.1979
     86  CA         8.3090   21.8610   25.8300 C.3   172  GLU172      0.1602
     87  C          8.8910   23.2270   25.4800 C.2   172  GLU172      0.2287
     88  O          9.6320   23.8160   26.2730 O.2   172  GLU172     -0.2864
     89  CB         9.2480   20.7410   25.3530 C.3   172  GLU172      0.0415
     90  CG         8.7750   19.3030   25.6270 C.3   172  GLU172      0.1163
     91  CD         8.4760   18.9820   27.0900 C.2   172  GLU172      0.3649
     92  OE1        8.7400   19.8020   27.9970 O.co2 172  GLU172     -0.2457
     93  OE2        7.9900   17.8580   27.3420 O.co2 172  GLU172     -0.2457
     94  N          7.6450   25.5240   28.0600 N.3   175  ARG175     -0.1245
     95  CA         8.3920   25.3250   29.3110 C.3   175  ARG175      0.1563
     96  C          9.8270   25.8610   29.3130 C.2   175  ARG175      0.2260
     97  O         10.2860   26.3390   30.3440 O.2   175  ARG175     -0.2867
     98  CB         8.4180   23.8390   29.6780 C.3   175  ARG175      0.0307
     99  CG         7.0580   23.2950   30.0840 C.3   175  ARG175      0.0489
    100  CD         7.0870   21.7740   30.0960 C.3   175  ARG175      0.2205
    101  NE         5.8500   21.1990   30.6330 N.pl3 175  ARG175     -0.0865
    102  CZ         5.3250   20.0520   30.2230 C.cat 175  ARG175      0.5346
    103  NH1        5.9200   19.3590   29.2610 N.pl3 175  ARG175      0.1354
    104  NH2        4.2100   19.5920   30.7800 N.pl3 175  ARG175      0.1354
    105  N         14.1920   18.9140   29.6590 N.3   207  VAL207     -0.1231
    106  CA        12.8230   18.4330   29.4400 C.3   207  VAL207      0.1692
    107  C         12.4470   17.3330   30.4380 C.2   207  VAL207      0.2592
    108  O         11.3310   17.3080   30.9830 O.2   207  VAL207     -0.2718
    109  CB        12.6220   17.9350   27.9860 C.3   207  VAL207      0.0266
    110  CG1       11.3140   17.1430   27.8440 C.3   207  VAL207      0.0020
    111  CG2       12.6440   19.1050   27.0200 C.3   207  VAL207      0.0020
    112  N         13.3960   16.4440   30.7130 N.am  208  ASN208     -0.1974
    113  CA        13.1340   15.3380   31.6300 C.3   208  ASN208      0.1688
    114  C         13.2150   15.7010   33.0990 C.2   208  ASN208      0.2292
    115  O         12.9890   14.8430   33.9460 O.2   208  ASN208     -0.2864
    116  CB        14.0740   14.1590   31.3320 C.3   208  ASN208      0.1181
    117  CG        13.6700   13.4060   30.0820 C.2   208  ASN208      0.2629
    118  OD1       12.5070   13.4310   29.6800 O.2   208  ASN208     -0.2716
    119  ND2       14.6300   12.7310   29.4610 N.am  208  ASN208     -0.0877
    120  N         11.9330   19.0540   34.3810 N.3   210  TRP210     -0.1227
    121  CA        11.2750   20.3500   34.4980 C.3   210  TRP210      0.1737
    122  C         10.9640   20.6890   35.9620 C.2   210  TRP210      0.2595
    123  O         11.2400   21.8050   36.4170 O.2   210  TRP210     -0.2718
    124  CB        10.0020   20.3640   33.6470 C.3   210  TRP210      0.0564
    125  CG         9.2460   21.6880   33.6290 C.ar  210  TRP210      0.0003
    126  CD1        9.7750   22.9570   33.5580 C.ar  210  TRP210      0.0946
    127  CD2        7.8220   21.8480   33.6870 C.ar  210  TRP210      0.0152
    128  NE1        8.7510   23.8940   33.5630 N.ar  210  TRP210     -0.2442
    129  CE2        7.5480   23.2360   33.6340 C.ar  210  TRP210      0.0810
    130  CE3        6.7510   20.9470   33.7690 C.ar  210  TRP210      0.0012
    131  CZ2        6.2440   23.7420   33.6690 C.ar  210  TRP210      0.0191
    132  CZ3        5.4520   21.4490   33.7930 C.ar  210  TRP210      0.0001
    133  CH2        5.2100   22.8350   33.7440 C.ar  210  TRP210      0.0015
    134  N         10.4360   19.7200   36.7100 N.am  211  GLN211     -0.1979
    135  CA        10.1490   19.9710   38.1240 C.3   211  GLN211      0.1601
    136  C         11.4370   20.2540   38.8970 C.2   211  GLN211      0.2287
    137  O         11.4890   21.1880   39.7050 O.2   211  GLN211     -0.2864
    138  CB         9.3680   18.8150   38.7710 C.3   211  GLN211      0.0394
    139  CG         9.1020   19.0670   40.2570 C.3   211  GLN211      0.0908
    140  CD         8.0220   18.1720   40.8340 C.2   211  GLN211      0.2608
    141  OE1        7.1640   17.6640   40.1120 O.2   211  GLN211     -0.2717
    142  NE2        8.0420   18.0000   42.1490 N.am  211  GLN211     -0.0878
    143  N          7.1690   25.1930   36.6420 N.3   255  LEU255     -0.1245
    144  CA         6.1410   24.4260   37.3290 C.3   255  LEU255      0.1561
    145  C          6.1000   24.8720   38.8000 C.2   255  LEU255      0.2260
    146  O          7.1400   25.0900   39.4270 O.2   255  LEU255     -0.2867
    147  CB         6.4770   22.9420   37.2360 C.3   255  LEU255      0.0270
    148  CG         5.4750   22.0060   37.8990 C.3   255  LEU255      0.0019
    149  CD1        4.1470   22.0300   37.1530 C.3   255  LEU255      0.0001
    150  CD2        6.0590   20.5990   37.9400 C.3   255  LEU255      0.0001
@<TRIPOS>BOND
     1    69    70    1
     2    70    71    1
     3    70    73    1
     4    71    72    2
     5    28    26    1
     6    45    43    1
     7    73    74    1
     8    27    26    1
     9    74    75    1
    10    74    76    1
    11    77    78    1
    12    26    25    1
    13    43    44    1
    14    43    42    1
    15    83    82    2
    16    65    63   ar
    17    65    67   ar
    18    63    62   ar
    19    38    39    1
    20    25    22    1
    21    68    67    1
    22    82    81    1
    23    82    84   am
    24    78    81    1
    25    78    79    1
    26    60    59    2
    27    85    79   am
    28    85    86    1
    29    42    39    1
    30    39    40    1
    31    89    90    1
    32    89    86    1
    33    67    66   ar
    34    87    86    1
    35    87    88    2
    36    32    31    2
    37    31    30    1
    38    90    91    1
    39    79    80    2
    40    62    61    1
    41    62    64   ar
    42    53    52    2
    43    47    46    1
    44    47    48    1
    45    58    59    1
    46    58    61    1
    47    58    57    1
    48    22    23    1
    49    22    21    1
    50    29    23   am
    51    29    30    1
    52    23    24    2
    53    40    41    2
    54    66    64   ar
    55    30    33    1
    56    49    48    2
    57    48    50   am
    58   111   109    1
    59    52    57   am
    60    52    51    1
    61    91    93   ar
    62    91    92   ar
    63    21    11   am
    64    50    51    1
    65   110   109    1
    66   109   106    1
    67    33    34    1
    68    94    95    1
    69    51    54    1
    70    11    12    2
    71    11    10    1
    72     7     5    1
    73    36    35   ar
    74     4     3    2
    75    55    54    1
    76   103   102    1
    77    34    35    1
    78    95    96    1
    79    95    98    1
    80    96    97    2
    81    54    56    1
    82   106   105    1
    83   106   107    1
    84    35    37   ar
    85   119   117   am
    86    98    99    1
    87   118   117    2
    88    10     9    1
    89    10    13    1
    90     3     9   am
    91     3     2    1
    92   117   116    1
    93    99   100    1
    94   100   101    1
    95     5     2    1
    96     5     6    1
    97   102   101    2
    98   102   104    1
    99   107   112   am
   100   107   108    2
   101     2     1    1
   102   112   113    1
   103     8     6    1
   104    13    14    1
   105   116   113    1
   106   113   114    1
   107    14    15   ar
   108    14    16   ar
   109    15    17   ar
   110    16    18   ar
   111   114   115    2
   112    17    19   ar
   113    18    19   ar
   114   126   128   ar
   115   126   125   ar
   116   128   129   ar
   117   125   124    1
   118   125   127   ar
   119   129   131   ar
   120   129   127   ar
   121   124   121    1
   122   131   133   ar
   123   127   130   ar
   124   133   132   ar
   125   130   132   ar
   126    19    20    1
   127   120   121    1
   128   121   122    1
   129   122   123    2
   130   122   134   am
   131   143   144    1
   132   134   135    1
   133   149   148    1
   134   147   144    1
   135   147   148    1
   136   144   145    1
   137   148   150    1
   138   135   138    1
   139   135   136    1
   140   138   139    1
   141   145   146    2
   142   136   137    2
   143   141   140    2
   144   139   140    1
   145   140   142   am
