@<TRIPOS>MOLECULE
tmp/4fblC00.pdb
 117 111 0 0 0
SMALL
GASTEIGER

@<TRIPOS>ATOM
      1  N        -20.0130  -25.3450   31.4620 N.3    24  GLY24      -0.1210
      2  CA       -20.5130  -26.1970   30.3780 C.3    24  GLY24       0.1956
      3  C        -22.0380  -26.2570   30.3200 C.2    24  GLY24       0.2612
      4  O        -22.7300  -25.4410   30.9540 O.2    24  GLY24      -0.2717
      5  N        -22.5150  -27.2140   29.4970 N.am   25  PHE25      -0.1962
      6  CA       -23.9290  -27.3430   29.0270 C.3    25  PHE25       0.1771
      7  C        -24.7930  -27.8050   30.2190 C.2    25  PHE25       0.2620
      8  O        -24.4940  -28.8310   30.7890 O.2    25  PHE25      -0.2715
      9  CB       -23.8730  -28.4580   27.9620 C.3    25  PHE25       0.0574
     10  CG       -25.1600  -28.7500   27.2940 C.ar   25  PHE25      -0.0200
     11  CD1      -25.6420  -27.9080   26.2770 C.ar   25  PHE25      -0.0042
     12  CD2      -25.8270  -29.9600   27.6010 C.ar   25  PHE25      -0.0042
     13  CE1      -26.8410  -28.2590   25.5520 C.ar   25  PHE25      -0.0003
     14  CE2      -27.0540  -30.3140   26.9400 C.ar   25  PHE25      -0.0003
     15  CZ       -27.5680  -29.4710   25.9410 C.ar   25  PHE25      -0.0000
     16  N        -25.8800  -27.0990   30.4770 N.am   26  THR26      -0.1937
     17  CA       -26.7860  -27.1840   31.6560 C.3    26  THR26       0.2028
     18  C        -26.1250  -26.8050   32.9830 C.2    26  THR26       0.2642
     19  O        -26.7990  -26.7960   34.0250 O.2    26  THR26      -0.2714
     20  CB       -27.4890  -28.5670   31.9670 C.3    26  THR26       0.1808
     21  OG1      -26.5200  -29.4330   32.5310 O.3    26  THR26      -0.2208
     22  CG2      -28.2350  -29.1480   30.7550 C.3    26  THR26       0.0379
     23  N        -24.8610  -26.3910   32.9410 N.am   27  GLY27      -0.1954
     24  CA       -24.2080  -25.9450   34.1820 C.3    27  GLY27       0.1869
     25  C        -24.2760  -24.4630   34.3410 C.2    27  GLY27       0.2309
     26  O        -25.1440  -23.7780   33.8100 O.2    27  GLY27      -0.2863
     27  N        -19.9210  -23.9630   38.9480 N.3    31  SER31      -0.1217
     28  CA       -19.0370  -25.1280   38.9460 C.3    31  SER31       0.1889
     29  C        -17.5840  -24.6880   38.7250 C.2    31  SER31       0.2288
     30  O        -16.6590  -25.5260   38.9520 O.2    31  SER31      -0.2866
     31  CB       -19.3860  -26.1890   37.9100 C.3    31  SER31       0.2089
     32  OG       -19.4740  -25.6100   36.6420 O.3    31  SER31      -0.2183
     33  N        -14.7380  -26.0270   31.2580 N.3    92  LEU92      -0.1231
     34  CA       -15.0770  -27.4280   31.5930 C.3    92  LEU92       0.1693
     35  C        -16.1170  -27.9690   30.5740 C.2    92  LEU92       0.2592
     36  O        -17.1560  -27.3310   30.3690 O.2    92  LEU92      -0.2718
     37  CB       -15.7480  -27.4830   32.9980 C.3    92  LEU92       0.0284
     38  CG       -16.3390  -28.8650   33.4530 C.3    92  LEU92       0.0019
     39  CD1      -15.2480  -29.9480   33.5520 C.3    92  LEU92       0.0001
     40  CD2      -17.2280  -28.7170   34.7820 C.3    92  LEU92       0.0001
     41  N        -15.8580  -29.1750   30.0380 N.am   93  SER93      -0.1952
     42  CA       -16.8790  -29.8950   29.1630 C.3    93  SER93       0.1924
     43  C        -17.2240  -29.0920   27.9080 C.2    93  SER93       0.2314
     44  O        -16.3390  -28.8680   27.1490 O.2    93  SER93      -0.2863
     45  CB       -18.1710  -30.2090   29.9250 C.3    93  SER93       0.2116
     46  OG       -17.9540  -31.3510   30.7350 O.3    93  SER93      -0.2180
     47  N        -27.7270  -34.0520   33.6730 N.3   143  ILE143     -0.1231
     48  CA       -26.4000  -34.6650   33.5460 C.3   143  ILE143      0.1692
     49  C        -25.4890  -34.3260   34.7840 C.2   143  ILE143      0.2593
     50  O        -24.5340  -35.0900   35.0810 O.2   143  ILE143     -0.2718
     51  CB       -25.7110  -34.4740   32.1020 C.3   143  ILE143      0.0266
     52  CG1      -25.5880  -32.9780   31.6910 C.3   143  ILE143      0.0019
     53  CG2      -26.4260  -35.3780   31.0020 C.3   143  ILE143      0.0020
     54  CD1      -24.4960  -32.6970   30.6160 C.3   143  ILE143      0.0001
     55  N        -25.8630  -33.2430   35.5080 N.am  144  GLY144     -0.1942
     56  CA       -25.1720  -32.7070   36.7130 C.3   144  GLY144      0.2014
     57  C        -24.6710  -33.6460   37.8260 C.2   144  GLY144      0.2640
     58  O        -25.2850  -34.7130   38.1600 O.2   144  GLY144     -0.2714
     59  N        -23.5340  -33.2240   38.4010 N.am  145  SER145     -0.1935
     60  CA       -22.8180  -33.9470   39.4830 C.3   145  SER145      0.2055
     61  C        -22.3960  -35.4340   39.2220 C.2   145  SER145      0.2643
     62  O        -22.8630  -36.3410   39.9020 O.2   145  SER145     -0.2714
     63  CB       -23.6070  -33.7990   40.7820 C.3   145  SER145      0.2130
     64  OG       -24.3310  -32.5610   40.8520 O.3   145  SER145     -0.2179
     65  N        -21.5630  -35.6950   38.2190 N.am  146  ASP146     -0.1971
     66  CA       -20.7580  -36.8960   38.1780 C.3   146  ASP146      0.1709
     67  C        -19.4330  -36.4590   38.9140 C.2   146  ASP146      0.2293
     68  O        -18.5350  -35.8720   38.2640 O.2   146  ASP146     -0.2864
     69  CB       -20.4530  -37.3420   36.7220 C.3   146  ASP146      0.1436
     70  CG       -19.4310  -38.4510   36.6580 C.2   146  ASP146      0.3671
     71  OD1      -19.5160  -39.3290   37.5300 O.co2 146  ASP146     -0.2456
     72  OD2      -18.4990  -38.4920   35.7920 O.co2 146  ASP146     -0.2456
     73  N        -23.3270  -29.8470   42.6750 N.3   154  GLU154     -0.1245
     74  CA       -23.1270  -28.8820   41.5790 C.3   154  GLU154      0.1567
     75  C        -24.3860  -28.1240   41.3400 C.2   154  GLU154      0.2260
     76  O        -25.4300  -28.6940   41.3540 O.2   154  GLU154     -0.2867
     77  CB       -22.7630  -29.6070   40.2870 C.3   154  GLU154      0.0388
     78  CG       -22.5950  -28.6310   39.1050 C.3   154  GLU154      0.1160
     79  CD       -22.3580  -29.3080   37.7090 C.2   154  GLU154      0.3649
     80  OE1      -22.4130  -30.5790   37.5300 O.co2 154  GLU154     -0.2457
     81  OE2      -22.0970  -28.5100   36.7830 O.co2 154  GLU154     -0.2457
     82  N        -26.4670  -27.1460   38.6490 N.3   156  ALA156     -0.1245
     83  CA       -26.7670  -27.3810   37.2310 C.3   156  ALA156      0.1562
     84  C        -28.2630  -27.6720   37.1420 C.2   156  ALA156      0.2260
     85  O        -28.8780  -28.0060   38.1240 O.2   156  ALA156     -0.2867
     86  CB       -26.0000  -28.5550   36.7980 C.3   156  ALA156      0.0290
     87  N        -19.4320  -38.8870   31.9090 N.3   196  VAL196     -0.1231
     88  CA       -20.1920  -37.9410   31.0640 C.3   196  VAL196      0.1692
     89  C        -19.5610  -37.8060   29.6540 C.2   196  VAL196      0.2591
     90  O        -20.2350  -38.0030   28.6690 O.2   196  VAL196     -0.2718
     91  CB       -20.3640  -36.6440   31.7930 C.3   196  VAL196      0.0266
     92  CG1      -21.2480  -35.6600   30.9860 C.3   196  VAL196      0.0020
     93  CG2      -21.0640  -36.9460   33.0880 C.3   196  VAL196      0.0020
     94  N        -18.2600  -37.5030   29.5970 N.am  197  VAL197     -0.1980
     95  CA       -17.5880  -37.1750   28.4060 C.3   197  VAL197      0.1595
     96  C        -16.4860  -38.1860   28.3910 C.2   197  VAL197      0.2287
     97  O        -15.7720  -38.3370   29.4020 O.2   197  VAL197     -0.2864
     98  CB       -16.9090  -35.7330   28.4290 C.3   197  VAL197      0.0276
     99  CG1      -15.8480  -35.5820   27.2930 C.3   197  VAL197      0.0022
    100  CG2      -17.9360  -34.5970   28.3540 C.3   197  VAL197      0.0022
    101  N        -16.3150  -36.4000   36.4220 N.3   224  HIS224     -0.1226
    102  CA       -16.4970  -35.4210   35.3340 C.3   224  HIS224      0.1752
    103  C        -16.3220  -33.9900   35.7860 C.2   224  HIS224      0.2592
    104  O        -15.6430  -33.1900   35.0740 O.2   224  HIS224     -0.2718
    105  CB       -17.8640  -35.5110   34.6560 C.3   224  HIS224      0.0759
    106  CG       -17.9710  -34.5890   33.4940 C.ar  224  HIS224      0.0818
    107  ND1      -17.0380  -34.6070   32.4910 N.ar  224  HIS224     -0.2268
    108  CD2      -18.7940  -33.5380   33.2410 C.ar  224  HIS224      0.1154
    109  CE1      -17.3050  -33.6310   31.6300 C.ar  224  HIS224      0.1986
    110  NE2      -18.3670  -32.9680   32.0600 N.ar  224  HIS224     -0.2212
    111  N        -16.9530  -33.6360   36.9250 N.am  225  VAL225     -0.2033
    112  CA       -16.9930  -32.2480   37.3560 C.3   225  VAL225      0.1282
    113  C        -15.7610  -32.0050   38.2400 C.3   225  VAL225      0.2035
    114  O        -15.8850  -31.6650   39.4750 O.3   225  VAL225     -0.2185
    115  CB       -18.2920  -31.8890   38.0670 C.3   225  VAL225      0.0226
    116  CG1      -18.4560  -30.3610   38.2850 C.3   225  VAL225      0.0018
    117  CG2      -19.5060  -32.3640   37.2620 C.3   225  VAL225      0.0018
@<TRIPOS>BOND
     1    13    15   ar
     2    13    11   ar
     3    15    14   ar
     4    11    10   ar
     5    14    12   ar
     6    44    43    2
     7    99    98    1
     8    10    12   ar
     9    10     9    1
    10    43    42    1
    11     9     6    1
    12   100    98    1
    13    96    95    1
    14    96    97    2
    15    95    98    1
    16    95    94    1
    17    90    89    2
    18     6     5    1
    19     6     7    1
    20    42    45    1
    21    42    41    1
    22     5     3   am
    23    94    89   am
    24    89    88    1
    25    45    46    1
    26    41    35   am
    27     7    16   am
    28     7     8    2
    29     3     2    1
    30     3     4    2
    31    36    35    2
    32     2     1    1
    33    16    17    1
    34    35    34    1
    35    54    52    1
    36    22    20    1
    37    92    91    1
    38    53    51    1
    39    88    91    1
    40    88    87    1
    41    33    34    1
    42    34    37    1
    43   109   110   ar
    44   109   107   ar
    45    17    20    1
    46    17    18    1
    47    52    51    1
    48    91    93    1
    49    20    21    1
    50   110   108   ar
    51    51    48    1
    52   107   106   ar
    53    23    18   am
    54    23    24    1
    55    18    19    2
    56    37    38    1
    57   108   106   ar
    58    38    39    1
    59    38    40    1
    60   106   105    1
    61    48    47    1
    62    48    49    1
    63    26    25    2
    64    24    25    1
    65   105   102    1
    66    49    50    2
    67    49    55   am
    68   104   103    2
    69   102   103    1
    70   102   101    1
    71    55    56    1
    72   103   111   am
    73    72    70   ar
    74    32    31    1
    75    70    69    1
    76    70    71   ar
    77    56    57    1
    78    69    66    1
    79    81    79   ar
    80    86    83    1
    81   111   112    1
    82    84    83    1
    83    84    85    2
    84    83    82    1
    85   117   115    1
    86   112   115    1
    87   112   113    1
    88    80    79   ar
    89    79    78    1
    90    57    58    2
    91    57    59   am
    92    31    28    1
    93   115   116    1
    94    66    65    1
    95    66    67    1
    96    65    61   am
    97   113   114    1
    98    68    67    2
    99    59    60    1
   100    29    28    1
   101    29    30    2
   102    28    27    1
   103    78    77    1
   104    61    60    1
   105    61    62    2
   106    60    63    1
   107    77    74    1
   108    63    64    1
   109    75    76    2
   110    75    74    1
   111    74    73    1
