@<TRIPOS>MOLECULE
tmp/4fbxA00.pdb
 134 122 0 0 0
SMALL
GASTEIGER

@<TRIPOS>ATOM
      1  N         23.1020   -7.3870   12.5820 N.3    44  LEU44      -0.1231
      2  CA        21.8870   -6.6000   12.4030 C.3    44  LEU44       0.1693
      3  C         22.2200   -5.1380   12.1310 C.2    44  LEU44       0.2592
      4  O         21.8640   -4.5920   11.0870 O.2    44  LEU44      -0.2718
      5  CB        20.9910   -6.7050   13.6370 C.3    44  LEU44       0.0284
      6  CG        20.5550   -8.1060   14.0690 C.3    44  LEU44       0.0019
      7  CD1       19.6830   -8.0250   15.3130 C.3    44  LEU44       0.0001
      8  CD2       19.8280   -8.8300   12.9440 C.3    44  LEU44       0.0001
      9  N         22.9040   -4.5090   13.0810 N.am   45  GLY45      -0.1957
     10  CA        23.2570   -3.1060   12.9650 C.3    45  GLY45       0.1869
     11  C         24.7290   -2.8520   13.2170 C.2    45  GLY45       0.2309
     12  O         25.4680   -3.7560   13.6120 O.2    45  GLY45      -0.2863
     13  N         27.9720    0.7790   18.8350 N.3    50  SER50      -0.1217
     14  CA        27.7960   -0.6630   19.0120 C.3    50  SER50       0.1889
     15  C         27.8360   -1.5100   17.7380 C.2    50  SER50       0.2288
     16  O         27.7190   -1.0050   16.6190 O.2    50  SER50      -0.2866
     17  CB        26.4770   -0.9370   19.7340 C.3    50  SER50       0.2089
     18  OG        25.3710   -0.5390   18.9440 O.3    50  SER50      -0.2183
     19  N         25.6860   -4.8810   16.5880 N.3    52  VAL52      -0.1245
     20  CA        24.5130   -5.6370   17.0190 C.3    52  VAL52       0.1561
     21  C         24.3300   -6.9280   16.2220 C.2    52  VAL52       0.2260
     22  O         24.4190   -6.9330   14.9930 O.2    52  VAL52      -0.2867
     23  CB        23.2390   -4.7790   16.9310 C.3    52  VAL52       0.0252
     24  CG1       22.0310   -5.5600   17.4160 C.3    52  VAL52       0.0019
     25  CG2       23.4090   -3.5070   17.7480 C.3    52  VAL52       0.0019
     26  N         19.5640  -11.1710   21.2940 N.3    65  VAL65      -0.1245
     27  CA        20.2680  -10.1040   20.6020 C.3    65  VAL65       0.1561
     28  C         21.4950   -9.6950   21.4040 C.2    65  VAL65       0.2260
     29  O         21.4130   -9.4720   22.6110 O.2    65  VAL65      -0.2867
     30  CB        19.3590   -8.8840   20.3870 C.3    65  VAL65       0.0252
     31  CG1       20.1380   -7.7390   19.7630 C.3    65  VAL65       0.0019
     32  CG2       18.1710   -9.2650   19.5140 C.3    65  VAL65       0.0019
     33  N         24.7610   -7.0490   21.8470 N.3    67  LYS67      -0.1245
     34  CA        25.3080   -5.7420   21.5120 C.3    67  LYS67       0.1561
     35  C         26.7350   -5.5830   22.0380 C.2    67  LYS67       0.2260
     36  O         26.9530   -5.4550   23.2430 O.2    67  LYS67      -0.2867
     37  CB        24.4050   -4.6310   22.0520 C.3    67  LYS67       0.0271
     38  CG        24.9650   -3.2310   21.8740 C.3    67  LYS67       0.0035
     39  CD        23.8570   -2.1840   21.8320 C.3    67  LYS67       0.0206
     40  CE        23.0980   -2.1080   23.1490 C.3    67  LYS67       0.1093
     41  NZ        23.5510   -0.9870   24.0230 N.3    67  LYS67      -0.1314
     42  N         13.2950   -2.6550   26.9050 N.3    94  ILE94      -0.1245
     43  CA        14.1310   -3.7550   26.4440 C.3    94  ILE94       0.1561
     44  C         14.5490   -4.6040   27.6490 C.2    94  ILE94       0.2260
     45  O         14.7400   -4.0830   28.7470 O.2    94  ILE94      -0.2867
     46  CB        15.3650   -3.2380   25.6550 C.3    94  ILE94       0.0252
     47  CG1       15.9660   -4.3480   24.7970 C.3    94  ILE94       0.0019
     48  CG2       16.4020   -2.6240   26.5820 C.3    94  ILE94       0.0019
     49  CD1       15.0690   -4.7830   23.6810 C.3    94  ILE94       0.0001
     50  N         20.2950   -9.1260   25.0850 N.3   112  PHE112     -0.1241
     51  CA        18.8900   -8.8180   25.3110 C.3   112  PHE112      0.1605
     52  C         18.0040   -9.9530   24.8220 C.2   112  PHE112      0.2264
     53  O         18.4110  -10.7410   23.9660 O.2   112  PHE112     -0.2867
     54  CB        18.5050   -7.5340   24.5840 C.3   112  PHE112      0.0534
     55  CG        19.3020   -6.3340   25.0040 C.ar  112  PHE112     -0.0203
     56  CD1       18.9860   -5.6470   26.1640 C.ar  112  PHE112     -0.0042
     57  CD2       20.3590   -5.8840   24.2300 C.ar  112  PHE112     -0.0042
     58  CE1       19.7160   -4.5340   26.5480 C.ar  112  PHE112     -0.0003
     59  CE2       21.0910   -4.7720   24.6090 C.ar  112  PHE112     -0.0003
     60  CZ        20.7690   -4.0970   25.7690 C.ar  112  PHE112     -0.0000
     61  N         14.0900   -9.1780   19.9520 N.3   115  VAL115     -0.1245
     62  CA        13.1710   -8.2020   19.3830 C.3   115  VAL115      0.1561
     63  C         13.4050   -8.2160   17.8710 C.2   115  VAL115      0.2260
     64  O         14.4770   -8.6120   17.4170 O.2   115  VAL115     -0.2867
     65  CB        13.4170   -6.7900   19.9770 C.3   115  VAL115      0.0252
     66  CG1       12.5030   -5.7490   19.3450 C.3   115  VAL115      0.0019
     67  CG2       13.2090   -6.8100   21.4780 C.3   115  VAL115      0.0019
     68  N         14.1770   -6.6760   14.2000 N.3   117  ASN117     -0.1240
     69  CA        15.0310   -5.5910   13.7220 C.3   117  ASN117      0.1653
     70  C         14.2930   -4.5750   12.8450 C.2   117  ASN117      0.2266
     71  O         14.5600   -4.4570   11.6480 O.2   117  ASN117     -0.2867
     72  CB        16.2450   -6.1680   12.9800 C.3   117  ASN117      0.1155
     73  CG        17.2750   -5.1100   12.6170 C.2   117  ASN117      0.2627
     74  OD1       17.1460   -3.9440   12.9880 O.2   117  ASN117     -0.2716
     75  ND2       18.3080   -5.5180   11.8880 N.am  117  ASN117     -0.0877
     76  N         13.0270   -0.5300   13.5330 N.3   119  ASP119     -0.1239
     77  CA        12.8060    0.6210   14.4030 C.3   119  ASP119      0.1674
     78  C         11.6760    1.5200   13.9070 C.2   119  ASP119      0.2266
     79  O         11.1300    1.3160   12.8220 O.2   119  ASP119     -0.2867
     80  CB        14.0990    1.4230   14.6200 C.3   119  ASP119      0.1410
     81  CG        14.6620    2.0020   13.3340 C.2   119  ASP119      0.3668
     82  OD1       13.9540    2.7750   12.6560 O.co2 119  ASP119     -0.2456
     83  OD2       15.8220    1.6830   13.0010 O.co2 119  ASP119     -0.2456
     84  N         12.0250    3.5630   10.3400 N.3   122  GLN122     -0.1245
     85  CA        11.8040    2.8610    9.0810 C.3   122  GLN122      0.1566
     86  C         10.3190    2.6550    8.8280 C.2   122  GLN122      0.2260
     87  O          9.9170    2.2470    7.7400 O.2   122  GLN122     -0.2867
     88  CB        12.5110    1.5060    9.0860 C.3   122  GLN122      0.0367
     89  CG        14.0100    1.5880    9.2880 C.3   122  GLN122      0.0905
     90  CD        14.4980    0.6530   10.3760 C.2   122  GLN122      0.2608
     91  OE1       13.7120   -0.0750   10.9840 O.2   122  GLN122     -0.2717
     92  NE2       15.8010    0.6740   10.6340 N.am  122  GLN122     -0.0878
     93  N         14.9790    5.9970   16.1990 N.3   159  HIS159     -0.1226
     94  CA        15.9660    4.9470   15.9890 C.3   159  HIS159      0.1752
     95  C         16.1230    4.0840   17.2380 C.2   159  HIS159      0.2596
     96  O         16.5380    2.9290   17.1580 O.2   159  HIS159     -0.2718
     97  CB        17.3140    5.5540   15.6060 C.3   159  HIS159      0.0759
     98  CG        18.3600    4.5390   15.2720 C.ar  159  HIS159      0.0818
     99  ND1       18.4070    3.8920   14.0560 N.ar  159  HIS159     -0.2268
    100  CD2       19.3970    4.0540   15.9960 C.ar  159  HIS159      0.1154
    101  CE1       19.4300    3.0560   14.0430 C.ar  159  HIS159      0.1986
    102  NE2       20.0470    3.1350   15.2090 N.ar  159  HIS159     -0.2212
    103  N         15.7940    4.6560   18.3910 N.am  160  ASN160     -0.1974
    104  CA        15.8800    3.9370   19.6550 C.3   160  ASN160      0.1688
    105  C         14.5290    3.3800   20.0910 C.2   160  ASN160      0.2292
    106  O         14.3000    3.1300   21.2740 O.2   160  ASN160     -0.2864
    107  CB        16.4570    4.8340   20.7530 C.3   160  ASN160      0.1181
    108  CG        17.9450    5.0830   20.5860 C.2   160  ASN160      0.2629
    109  OD1       18.6420    4.3330   19.9000 O.2   160  ASN160     -0.2716
    110  ND2       18.4410    6.1380   21.2210 N.am  160  ASN160     -0.0877
    111  N         12.2310    0.2220   18.9040 N.3   162  MET162     -0.1245
    112  CA        12.0090   -0.9590   18.0750 C.3   162  MET162      0.1570
    113  C         10.5360   -1.3540   18.0730 C.2   162  MET162      0.2261
    114  O          9.9050   -1.4410   19.1270 O.2   162  MET162     -0.2867
    115  CB        12.8550   -2.1360   18.5680 C.3   162  MET162      0.0387
    116  CG        14.3380   -1.8360   18.6910 C.3   162  MET162      0.0595
    117  SD        15.0970   -1.3060   17.1410 S.3   162  MET162     -0.1393
    118  CE        14.8600   -2.7640   16.1420 C.3   162  MET162      0.0692
    119  N         14.8310    1.2470   23.5270 N.3   173  ILE173     -0.1231
    120  CA        16.1570    0.6500   23.6210 C.3   173  ILE173      0.1692
    121  C         17.2630    1.6910   23.7200 C.2   173  ILE173      0.2592
    122  O         17.0000    2.8940   23.7560 O.2   173  ILE173     -0.2718
    123  CB        16.4650   -0.2190   22.3900 C.3   173  ILE173      0.0266
    124  CG1       16.5210    0.6570   21.1340 C.3   173  ILE173      0.0019
    125  CG2       15.4350   -1.3290   22.2490 C.3   173  ILE173      0.0020
    126  CD1       17.2140    0.0120   19.9620 C.3   173  ILE173      0.0001
    127  N         18.5010    1.1980   23.7440 N.am  174  ASP174     -0.1974
    128  CA        19.7060    2.0180   23.8500 C.3   174  ASP174      0.1709
    129  C         19.6990    2.9040   25.0860 C.2   174  ASP174      0.2293
    130  O         19.4590    4.1060   25.0020 O.2   174  ASP174     -0.2864
    131  CB        19.9300    2.8560   22.5920 C.3   174  ASP174      0.1436
    132  CG        21.3830    3.2500   22.4120 C.2   174  ASP174      0.3671
    133  OD1       22.1690    3.0900   23.3720 O.co2 174  ASP174     -0.2456
    134  OD2       21.7390    3.7220   21.3110 O.co2 174  ASP174     -0.2456
@<TRIPOS>BOND
     1    87    86    2
     2    86    85    1
     3    85    88    1
     4    85    84    1
     5    88    89    1
     6    89    90    1
     7    90    92   am
     8    90    91    2
     9     4     3    2
    10    71    70    2
    11    75    73   am
    12     3     2    1
    13     3     9   am
    14     2     1    1
    15     2     5    1
    16    73    72    1
    17    73    74    2
    18    82    81   ar
    19    79    78    2
    20    70    69    1
    21     8     6    1
    22    10     9    1
    23    10    11    1
    24    72    69    1
    25    83    81   ar
    26    11    12    2
    27    81    80    1
    28    76    77    1
    29     5     6    1
    30    69    68    1
    31    78    77    1
    32   101    99   ar
    33   101   102   ar
    34    99    98   ar
    35     6     7    1
    36    77    80    1
    37    22    21    2
    38   102   100   ar
    39    98    97    1
    40    98   100   ar
    41    97    94    1
    42    94    93    1
    43    94    95    1
    44   118   117    1
    45    21    20    1
    46    19    20    1
    47    16    15    2
    48    23    20    1
    49    23    24    1
    50    23    25    1
    51   117   116    1
    52    96    95    2
    53    95   103   am
    54    64    63    2
    55    15    14    1
    56    63    62    1
    57   113   112    1
    58   113   114    2
    59   112   115    1
    60   112   111    1
    61   103   104    1
    62   115   116    1
    63    13    14    1
    64    18    17    1
    65    14    17    1
    66    66    65    1
    67    62    61    1
    68    62    65    1
    69    32    30    1
    70   104   105    1
    71   104   107    1
    72    31    30    1
    73   109   108    2
    74   126   124    1
    75    65    67    1
    76   105   106    2
    77    30    27    1
    78   108   107    1
    79   108   110   am
    80    27    26    1
    81    27    28    1
    82   124   123    1
    83   134   132   ar
    84    28    29    2
    85    34    33    1
    86    34    35    1
    87    34    37    1
    88    39    38    1
    89    39    40    1
    90    38    37    1
    91    35    36    2
    92   125   123    1
    93   123   120    1
    94   132   131    1
    95   132   133   ar
    96   131   128    1
    97    40    41    1
    98   119   120    1
    99   120   121    1
   100    49    47    1
   101   121   127   am
   102   121   122    2
   103   127   128    1
   104   128   129    1
   105    53    52    2
   106    57    59   ar
   107    57    55   ar
   108    54    55    1
   109    54    51    1
   110    59    60   ar
   111    47    46    1
   112    52    51    1
   113   130   129    2
   114    55    56   ar
   115    50    51    1
   116    46    43    1
   117    46    48    1
   118    60    58   ar
   119    56    58   ar
   120    43    42    1
   121    43    44    1
   122    44    45    2
