@<TRIPOS>MOLECULE
tmp/4fbyA18.pdb
 158 155 0 0 0
SMALL
GASTEIGER

@<TRIPOS>ATOM
      1  N        150.6820   60.8150   38.9590 N.3   202  PHE202     -0.1241
      2  CA       151.4780   61.6320   38.0480 C.3   202  PHE202      0.1605
      3  C        151.9890   60.8250   36.8530 C.2   202  PHE202      0.2264
      4  O        152.0050   61.3220   35.7260 O.2   202  PHE202     -0.2867
      5  CB       152.6380   62.2800   38.8010 C.3   202  PHE202      0.0534
      6  CG       152.2000   63.1340   39.9540 C.ar  202  PHE202     -0.0203
      7  CD1      151.1010   63.9680   39.8290 C.ar  202  PHE202     -0.0042
      8  CD2      152.8840   63.1100   41.1580 C.ar  202  PHE202     -0.0042
      9  CE1      150.6860   64.7580   40.8800 C.ar  202  PHE202     -0.0003
     10  CE2      152.4730   63.9010   42.2170 C.ar  202  PHE202     -0.0003
     11  CZ       151.3730   64.7260   42.0750 C.ar  202  PHE202     -0.0000
     12  N        149.3270   60.8450   34.7560 N.3   205  MET205     -0.1230
     13  CA       149.1560   62.2260   34.3060 C.3   205  MET205      0.1702
     14  C        150.0540   62.5330   33.1250 C.2   205  MET205      0.2592
     15  O        149.5670   62.7710   32.0180 O.2   205  MET205     -0.2718
     16  CB       149.4950   63.2040   35.4380 C.3   205  MET205      0.0401
     17  CG       148.3860   63.5250   36.4370 C.3   205  MET205      0.0596
     18  SD       147.0550   64.5960   35.8150 S.3   205  MET205     -0.1393
     19  CE       146.1180   63.5520   34.7000 C.3   205  MET205      0.0692
     20  N        151.3570   62.5780   33.3860 N.am  206  HIS206     -0.1976
     21  CA       152.3330   62.8130   32.3390 C.3   206  HIS206      0.1656
     22  C        152.0240   61.9340   31.1360 C.2   206  HIS206      0.2291
     23  O        151.6590   62.4340   30.0700 O.2   206  HIS206     -0.2864
     24  CB       153.7440   62.5190   32.8130 C.3   206  HIS206      0.0771
     25  CG       154.7800   63.0000   31.8550 C.ar  206  HIS206      0.0820
     26  ND1      155.2090   64.3090   31.8190 N.ar  206  HIS206     -0.2267
     27  CD2      155.4010   62.3690   30.8320 C.ar  206  HIS206      0.1154
     28  CE1      156.0900   64.4500   30.8450 C.ar  206  HIS206      0.1986
     29  NE2      156.2150   63.2910   30.2250 N.ar  206  HIS206     -0.2212
     30  N        148.8000   62.9950   29.1720 N.3   209  LEU209     -0.1231
     31  CA       148.9780   64.3280   28.5960 C.3   209  LEU209      0.1693
     32  C        149.8650   64.2920   27.3550 C.2   209  LEU209      0.2591
     33  O        149.4620   64.7370   26.2810 O.2   209  LEU209     -0.2718
     34  CB       149.5620   65.2860   29.6340 C.3   209  LEU209      0.0284
     35  CG       148.5470   66.1520   30.3890 C.3   209  LEU209      0.0019
     36  CD1      147.2750   65.3830   30.7180 C.3   209  LEU209      0.0001
     37  CD2      149.1530   66.7340   31.6520 C.3   209  LEU209      0.0001
     38  N        151.0810   63.7780   27.5200 N.am  210  VAL210     -0.1980
     39  CA       152.0300   63.6650   26.4130 C.3   210  VAL210      0.1595
     40  C        151.4940   62.8340   25.2390 C.2   210  VAL210      0.2287
     41  O        151.3880   63.3470   24.1250 O.2   210  VAL210     -0.2864
     42  CB       153.3560   63.0410   26.8890 C.3   210  VAL210      0.0276
     43  CG1      154.2070   62.6320   25.6920 C.3   210  VAL210      0.0022
     44  CG2      154.1200   64.0280   27.7470 C.3   210  VAL210      0.0022
     45  N        155.9200   65.7750   20.4870 N.3   237  TYR237     -0.1241
     46  CA       154.6120   66.1730   20.9930 C.3   237  TYR237      0.1605
     47  C        154.5330   67.6750   21.2430 C.2   237  TYR237      0.2264
     48  O        155.5450   68.3350   21.4740 O.2   237  TYR237     -0.2867
     49  CB       154.2630   65.3990   22.2730 C.3   237  TYR237      0.0534
     50  CG       154.9610   65.8660   23.5350 C.ar  237  TYR237     -0.0201
     51  CD1      154.3210   66.7150   24.4300 C.ar  237  TYR237     -0.0009
     52  CD2      156.2440   65.4380   23.8450 C.ar  237  TYR237     -0.0009
     53  CE1      154.9460   67.1370   25.5880 C.ar  237  TYR237      0.0417
     54  CE2      156.8780   65.8570   25.0010 C.ar  237  TYR237      0.0417
     55  CZ       156.2240   66.7070   25.8680 C.ar  237  TYR237      0.1957
     56  OH       156.8510   67.1250   27.0190 O.3   237  TYR237     -0.2866
     57  N        154.0200   70.1770   23.5550 N.3   239  ILE239     -0.1245
     58  CA       154.0190   70.5070   24.9800 C.3   239  ILE239      0.1561
     59  C        153.2640   71.8100   25.2690 C.2   239  ILE239      0.2260
     60  O        152.9190   72.1040   26.4140 O.2   239  ILE239     -0.2867
     61  CB       155.4720   70.6010   25.5210 C.3   239  ILE239      0.0252
     62  CG1      155.5030   70.8790   27.0280 C.3   239  ILE239      0.0019
     63  CG2      156.2790   71.6210   24.7210 C.3   239  ILE239      0.0019
     64  CD1      156.8120   70.5440   27.6750 C.3   239  ILE239      0.0001
     65  N        149.6300   70.5460   25.1690 N.3   242  ALA242     -0.1231
     66  CA       149.4720   69.7730   26.3950 C.3   242  ALA242      0.1694
     67  C        149.1370   70.7300   27.5320 C.2   242  ALA242      0.2592
     68  O        148.1200   70.5760   28.2070 O.2   242  ALA242     -0.2718
     69  CB       150.7610   69.0390   26.7040 C.3   242  ALA242      0.0304
     70  N        150.0170   71.7050   27.7510 N.am  243  HIS243     -0.1976
     71  CA       149.8240   72.7150   28.7880 C.3   243  HIS243      0.1656
     72  C        148.5150   73.4770   28.5980 C.2   243  HIS243      0.2291
     73  O        147.8680   73.8720   29.5700 O.2   243  HIS243     -0.2864
     74  CB       150.9950   73.6990   28.7840 C.3   243  HIS243      0.0771
     75  CG       150.7710   74.9060   29.6400 C.ar  243  HIS243      0.0820
     76  ND1      150.4100   74.8210   30.9670 N.ar  243  HIS243     -0.2267
     77  CD2      150.8520   76.2280   29.3560 C.ar  243  HIS243      0.1154
     78  CE1      150.2810   76.0380   31.4650 C.ar  243  HIS243      0.1986
     79  NE2      150.5440   76.9090   30.5080 N.ar  243  HIS243     -0.2212
     80  N        145.6580   70.9610   29.9700 N.3   246  PHE246     -0.1241
     81  CA       145.7760   70.7890   31.4170 C.3   246  PHE246      0.1605
     82  C        145.5870   72.0970   32.1750 C.2   246  PHE246      0.2264
     83  O        145.1130   72.1030   33.3120 O.2   246  PHE246     -0.2867
     84  CB       147.1140   70.1500   31.7900 C.3   246  PHE246      0.0534
     85  CG       147.2400   69.8300   33.2510 C.ar  246  PHE246     -0.0203
     86  CD1      146.2880   69.0520   33.8880 C.ar  246  PHE246     -0.0042
     87  CD2      148.3060   70.3110   33.9880 C.ar  246  PHE246     -0.0042
     88  CE1      146.4000   68.7600   35.2320 C.ar  246  PHE246     -0.0003
     89  CE2      148.4240   70.0230   35.3310 C.ar  246  PHE246     -0.0003
     90  CZ       147.4700   69.2460   35.9550 C.ar  246  PHE246     -0.0000
     91  N        142.3050   72.4710   35.2880 N.3   250  ILE250     -0.1231
     92  CA       142.3140   73.0520   36.6250 C.3   250  ILE250      0.1692
     93  C        142.2830   74.5730   36.4900 C.2   250  ILE250      0.2592
     94  O        141.2220   75.1930   36.5910 O.2   250  ILE250     -0.2718
     95  CB       143.5840   72.6390   37.3930 C.3   250  ILE250      0.0266
     96  CG1      143.8840   71.1510   37.1750 C.3   250  ILE250      0.0019
     97  CG2      143.4450   72.9680   38.8720 C.3   250  ILE250      0.0020
     98  CD1      142.7880   70.2200   37.6580 C.3   250  ILE250      0.0001
     99  N        143.4560   75.1460   36.2260 N.am  251  PHE251     -0.1976
    100  CA       143.6400   76.5790   35.9770 C.3   251  PHE251      0.1639
    101  C        145.1210   76.8190   35.6720 C.2   251  PHE251      0.2290
    102  O        146.0010   76.2400   36.3090 O.2   251  PHE251     -0.2864
    103  CB       143.0840   77.4540   37.1250 C.3   251  PHE251      0.0560
    104  CG       143.9280   77.4950   38.3770 C.ar  251  PHE251     -0.0200
    105  CD1      145.1340   78.1770   38.4190 C.ar  251  PHE251     -0.0042
    106  CD2      143.4890   76.8600   39.5270 C.ar  251  PHE251     -0.0042
    107  CE1      145.8870   78.2140   39.5750 C.ar  251  PHE251     -0.0003
    108  CE2      144.2390   76.8930   40.6860 C.ar  251  PHE251     -0.0003
    109  CZ       145.4390   77.5710   40.7090 C.ar  251  PHE251     -0.0000
    110  N        148.4070   76.5310   37.6600 N.3   254  ALA254     -0.1231
    111  CA       148.5060   75.2620   38.3670 C.3   254  ALA254      0.1694
    112  C        148.8800   74.1890   37.3570 C.2   254  ALA254      0.2593
    113  O        148.5600   73.0140   37.5320 O.2   254  ALA254     -0.2718
    114  CB       147.1850   74.9230   39.0280 C.3   254  ALA254      0.0304
    115  N        149.5650   74.6080   36.2960 N.am  255  SER255     -0.1938
    116  CA       149.9700   73.6980   35.2310 C.3   255  SER255      0.2055
    117  C        151.3840   73.9880   34.7470 C.2   255  SER255      0.2643
    118  O        151.8090   75.1410   34.6750 O.2   255  SER255     -0.2714
    119  CB       149.0000   73.8060   34.0510 C.3   255  SER255      0.2130
    120  OG       149.4180   72.9920   32.9680 O.3   255  SER255     -0.2179
    121  N        152.1080   72.9230   34.4240 N.am  256  PHE256     -0.1973
    122  CA       153.4820   73.0270   33.9470 C.3   256  PHE256      0.1639
    123  C        153.5660   73.3820   32.4660 C.2   256  PHE256      0.2290
    124  O        152.7510   72.9410   31.6570 O.2   256  PHE256     -0.2864
    125  CB       154.2310   71.7210   34.2170 C.3   256  PHE256      0.0560
    126  CG       154.7300   71.5900   35.6280 C.ar  256  PHE256     -0.0200
    127  CD1      154.8130   70.3490   36.2370 C.ar  256  PHE256     -0.0042
    128  CD2      155.1110   72.7110   36.3470 C.ar  256  PHE256     -0.0042
    129  CE1      155.2720   70.2260   37.5340 C.ar  256  PHE256     -0.0003
    130  CE2      155.5710   72.5950   37.6460 C.ar  256  PHE256     -0.0003
    131  CZ       155.6510   71.3500   38.2400 C.ar  256  PHE256     -0.0000
    132  N        158.7660   70.1590   35.0420 N.3   262  LEU262     -0.1245
    133  CA       157.7980   69.0760   35.0650 C.3   262  LEU262      0.1561
    134  C        158.5070   67.7980   35.5000 C.2   262  LEU262      0.2260
    135  O        158.1300   67.1620   36.4860 O.2   262  LEU262     -0.2867
    136  CB       157.2270   68.8910   33.6570 C.3   262  LEU262      0.0270
    137  CG       155.9040   68.1660   33.3670 C.3   262  LEU262      0.0019
    138  CD1      155.9240   67.6530   31.9380 C.3   262  LEU262      0.0001
    139  CD2      155.5870   67.0280   34.3350 C.3   262  LEU262      0.0001
    140  N        159.7970   67.5470   39.1290 N.3   265  PHE265     -0.1227
    141  CA       158.6700   67.2380   39.9970 C.3   265  PHE265      0.1736
    142  C        158.3400   65.7550   39.8820 C.2   265  PHE265      0.2595
    143  O        158.1510   65.0650   40.8840 O.2   265  PHE265     -0.2718
    144  CB       157.4620   68.0650   39.5660 C.3   265  PHE265      0.0547
    145  CG       156.2330   67.8180   40.3880 C.ar  265  PHE265     -0.0202
    146  CD1      156.1610   68.2570   41.6990 C.ar  265  PHE265     -0.0042
    147  CD2      155.1460   67.1540   39.8470 C.ar  265  PHE265     -0.0042
    148  CE1      155.0280   68.0350   42.4590 C.ar  265  PHE265     -0.0003
    149  CE2      154.0110   66.9280   40.6000 C.ar  265  PHE265     -0.0003
    150  CZ       153.9520   67.3690   41.9070 C.ar  265  PHE265     -0.0000
    151  N        158.2580   65.2860   38.6380 N.am  266  LEU266     -0.1980
    152  CA       157.9710   63.8910   38.3220 C.3   266  LEU266      0.1596
    153  C        158.9150   62.9290   39.0400 C.2   266  LEU266      0.2287
    154  O        158.5220   61.8280   39.4190 O.2   266  LEU266     -0.2864
    155  CB       158.1010   63.6790   36.8140 C.3   266  LEU266      0.0297
    156  CG       156.9150   63.0390   36.0950 C.3   266  LEU266      0.0022
    157  CD1      155.6480   63.8420   36.3470 C.3   266  LEU266      0.0001
    158  CD2      157.1960   62.9250   34.6060 C.3   266  LEU266      0.0001
@<TRIPOS>BOND
     1    45    46    1
     2    46    47    1
     3    46    49    1
     4    47    48    2
     5    49    50    1
     6    50    52   ar
     7    50    51   ar
     8    57    58    1
     9    52    54   ar
    10    41    40    2
    11    51    53   ar
    12    63    61    1
    13    58    59    1
    14    58    61    1
    15    54    55   ar
    16    65    66    1
    17    40    39    1
    18    59    60    2
    19    61    62    1
    20    53    55   ar
    21    43    42    1
    22    55    56    1
    23    33    32    2
    24    66    69    1
    25    66    67    1
    26    39    42    1
    27    39    38    1
    28    42    44    1
    29    62    64    1
    30    32    38   am
    31    32    31    1
    32    67    70   am
    33    67    68    2
    34    70    71    1
    35    31    30    1
    36    31    34    1
    37    72    71    1
    38    72    73    2
    39    74    71    1
    40    74    75    1
    41    77    75   ar
    42    77    79   ar
    43    34    35    1
    44    75    76   ar
    45    80    81    1
    46    23    22    2
    47    29    27   ar
    48    29    28   ar
    49    35    36    1
    50    35    37    1
    51    79    78   ar
    52    27    25   ar
    53    28    26   ar
    54    76    78   ar
    55    22    21    1
    56    81    84    1
    57    81    82    1
    58   124   123    2
    59    84    85    1
    60    26    25   ar
    61    25    24    1
    62   138   137    1
    63    15    14    2
    64    82    83    2
    65    21    24    1
    66    21    20    1
    67   123   122    1
    68   120   119    1
    69    14    20   am
    70    14    13    1
    71    85    86   ar
    72    85    87   ar
    73   137   136    1
    74   137   139    1
    75   136   133    1
    76    86    88   ar
    77   122   125    1
    78   122   121    1
    79    87    89   ar
    80   119   116    1
    81   125   126    1
    82    13    12    1
    83    13    16    1
    84   121   117   am
    85   158   156    1
    86   118   117    2
    87    19    18    1
    88   117   116    1
    89   132   133    1
    90   133   134    1
    91   116   115    1
    92    88    90   ar
    93    91    92    1
    94    89    90   ar
    95    16    17    1
    96   134   135    2
    97   126   127   ar
    98   126   128   ar
    99   101   100    1
   100   101   102    2
   101     4     3    2
   102    18    17    1
   103   100    99    1
   104   100   103    1
   105   156   157    1
   106   156   155    1
   107    99    93   am
   108   127   129   ar
   109   115   112   am
   110   128   130   ar
   111    93    94    2
   112    93    92    1
   113    92    95    1
   114   155   152    1
   115     3     2    1
   116   103   104    1
   117    96    95    1
   118    96    98    1
   119   112   113    2
   120   112   111    1
   121    95    97    1
   122   129   131   ar
   123   130   131   ar
   124   110   111    1
   125     2     5    1
   126     2     1    1
   127   152   151    1
   128   152   153    1
   129   111   114    1
   130   104   105   ar
   131   104   106   ar
   132   105   107   ar
   133   151   142   am
   134     5     6    1
   135   153   154    2
   136   140   141    1
   137   106   108   ar
   138   144   141    1
   139   144   145    1
   140   107   109   ar
   141     7     6   ar
   142     7     9   ar
   143   147   145   ar
   144   147   149   ar
   145   142   141    1
   146   142   143    2
   147     6     8   ar
   148   145   146   ar
   149   149   150   ar
   150   108   109   ar
   151     9    11   ar
   152     8    10   ar
   153   146   148   ar
   154   150   148   ar
   155    11    10   ar
