@<TRIPOS>MOLECULE
tmp/4fbyA00.pdb
 105 101 0 0 0
SMALL
GASTEIGER

@<TRIPOS>ATOM
      1  N        189.4960   48.0560   30.0040 N.3    11  TRP11      -0.1241
      2  CA       188.4040   47.1790   29.6030 C.3    11  TRP11       0.1605
      3  C        187.2420   47.3440   30.5630 C.2    11  TRP11       0.2264
      4  O        186.1250   47.6250   30.1390 O.2    11  TRP11      -0.2867
      5  CB       188.8320   45.7200   29.6170 C.3    11  TRP11       0.0550
      6  CG       187.6340   44.8440   29.5750 C.ar   11  TRP11       0.0003
      7  CD1      186.7480   44.7280   28.5510 C.ar   11  TRP11       0.0946
      8  CD2      187.1590   43.9860   30.6200 C.ar   11  TRP11       0.0152
      9  NE1      185.7550   43.8400   28.8830 N.ar   11  TRP11      -0.2442
     10  CE2      185.9850   43.3680   30.1480 C.ar   11  TRP11       0.0810
     11  CE3      187.6170   43.6730   31.9030 C.ar   11  TRP11       0.0012
     12  CZ2      185.2610   42.4550   30.9140 C.ar   11  TRP11       0.0191
     13  CZ3      186.8970   42.7660   32.6630 C.ar   11  TRP11       0.0001
     14  CH2      185.7320   42.1680   32.1660 C.ar   11  TRP11       0.0015
     15  N        181.2830   48.1790   26.2710 N.3    17  ASN17      -0.1225
     16  CA       180.7870   46.8910   26.7190 C.3    17  ASN17       0.1785
     17  C        179.2690   46.8820   26.6750 C.2    17  ASN17       0.2597
     18  O        178.6350   47.8630   27.0630 O.2    17  ASN17      -0.2718
     19  CB       181.2710   46.5940   28.1390 C.3    17  ASN17       0.1169
     20  CG       182.7380   46.2100   28.1880 C.2    17  ASN17       0.2627
     21  OD1      183.2140   45.4240   27.3680 O.2    17  ASN17      -0.2716
     22  ND2      183.4620   46.7600   29.1570 N.am   17  ASN17      -0.0877
     23  N        178.6980   45.7850   26.1800 N.am   18  ARG18      -0.1966
     24  CA       177.2470   45.6200   26.0900 C.3    18  ARG18       0.1729
     25  C        176.5840   45.9620   27.4240 C.2    18  ARG18       0.2616
     26  O        175.5650   46.6510   27.4710 O.2    18  ARG18      -0.2715
     27  CB       176.9110   44.1820   25.6930 C.3    18  ARG18       0.0348
     28  CG       175.4240   43.9170   25.5670 C.3    18  ARG18       0.0492
     29  CD       174.8060   44.8140   24.5000 C.3    18  ARG18       0.2205
     30  NE       173.3460   44.7820   24.5130 N.pl3  18  ARG18      -0.0865
     31  CZ       172.5890   45.2310   25.5100 C.cat  18  ARG18       0.5346
     32  NH1      173.1420   45.7760   26.5880 N.pl3  18  ARG18       0.1354
     33  NH2      171.2690   45.1530   25.4220 N.pl3  18  ARG18       0.1354
     34  N        177.1780   45.4680   28.5050 N.am   19  LEU19      -0.1977
     35  CA       176.7330   45.7640   29.8560 C.3    19  LEU19       0.1596
     36  C        177.9320   46.4250   30.5160 C.2    19  LEU19       0.2287
     37  O        179.0280   45.8740   30.5110 O.2    19  LEU19      -0.2864
     38  CB       176.3920   44.4750   30.6000 C.3    19  LEU19       0.0297
     39  CG       175.2090   43.6450   30.0900 C.3    19  LEU19       0.0022
     40  CD1      175.1540   42.3060   30.8120 C.3    19  LEU19       0.0001
     41  CD2      173.9010   44.4010   30.2620 C.3    19  LEU19       0.0001
     42  N        180.2170   46.7530   32.9400 N.3    21  VAL21      -0.1245
     43  CA       180.7960   46.2170   34.1640 C.3    21  VAL21       0.1561
     44  C        181.7090   47.3420   34.6310 C.2    21  VAL21       0.2260
     45  O        182.7020   47.6450   33.9810 O.2    21  VAL21      -0.2867
     46  CB       181.6260   44.9380   33.9050 C.3    21  VAL21       0.0252
     47  CG1      182.2280   44.9630   32.5110 C.3    21  VAL21       0.0019
     48  CG2      182.7270   44.7820   34.9470 C.3    21  VAL21       0.0019
     49  N        179.8950   44.2550   42.3810 N.3    28  MET28      -0.1230
     50  CA       178.4860   43.9920   42.1430 C.3    28  MET28       0.1702
     51  C        178.2500   42.6160   41.5330 C.2    28  MET28       0.2592
     52  O        177.6390   41.7460   42.1540 O.2    28  MET28      -0.2718
     53  CB       177.8870   45.0620   41.2310 C.3    28  MET28       0.0401
     54  CG       176.4120   44.8590   40.9570 C.3    28  MET28       0.0596
     55  SD       175.6540   46.1220   39.9210 S.3    28  MET28      -0.1393
     56  CE       176.0450   45.4780   38.2980 C.3    28  MET28       0.0692
     57  N        178.7430   42.4430   40.3090 N.am   29  ILE29      -0.1966
     58  CA       178.5830   41.2070   39.5400 C.3    29  ILE29       0.1712
     59  C        178.8330   39.9070   40.3280 C.2    29  ILE29       0.2458
     60  O        178.0590   38.9630   40.2020 O.2    29  ILE29      -0.2730
     61  CB       179.4450   41.2360   38.2520 C.3    29  ILE29       0.0289
     62  CG1      178.9710   42.3570   37.3180 C.3    29  ILE29       0.0022
     63  CG2      179.4260   39.8800   37.5540 C.3    29  ILE29       0.0023
     64  CD1      179.8700   42.5940   36.1320 C.3    29  ILE29       0.0001
     65  N        179.8830   39.8540   41.1680 N.am   30  PRO30      -0.2727
     66  CA       180.0340   38.5890   41.8940 C.3    30  PRO30       0.1402
     67  C        179.0260   38.4530   43.0270 C.2    30  PRO30       0.2269
     68  O        178.4000   37.4030   43.1570 O.2    30  PRO30      -0.2865
     69  CB       181.4740   38.6460   42.4120 C.3    30  PRO30       0.0296
     70  CG       182.1570   39.5920   41.4720 C.3    30  PRO30       0.0237
     71  CD       181.1160   40.6540   41.2630 C.3    30  PRO30       0.0939
     72  N        176.0860   39.8100   43.4060 N.3    32  LEU32      -0.1231
     73  CA       174.7280   39.5750   42.9200 C.3    32  LEU32       0.1693
     74  C        174.5320   38.1650   42.3780 C.2    32  LEU32       0.2591
     75  O        173.4340   37.6280   42.4620 O.2    32  LEU32      -0.2718
     76  CB       174.3090   40.5850   41.8480 C.3    32  LEU32       0.0284
     77  CG       173.9720   42.0200   42.2520 C.3    32  LEU32       0.0019
     78  CD1      173.6610   42.8430   41.0110 C.3    32  LEU32       0.0001
     79  CD2      172.8130   42.0570   43.2310 C.3    32  LEU32       0.0001
     80  N        175.5880   37.5640   41.8350 N.am   33  LEU33      -0.1980
     81  CA       175.4810   36.1990   41.3200 C.3    33  LEU33       0.1596
     82  C        175.3980   35.1880   42.4540 C.2    33  LEU33       0.2287
     83  O        174.7610   34.1500   42.3170 O.2    33  LEU33      -0.2864
     84  CB       176.6590   35.8480   40.4050 C.3    33  LEU33       0.0297
     85  CG       176.7230   36.4920   39.0170 C.3    33  LEU33       0.0022
     86  CD1      177.7250   35.7650   38.1300 C.3    33  LEU33       0.0001
     87  CD2      175.3510   36.5180   38.3630 C.3    33  LEU33       0.0001
     88  N        171.6270   35.6620   43.9600 N.3    36  THR36      -0.1218
     89  CA       170.6180   35.0480   43.1000 C.3    36  THR36       0.1862
     90  C        170.7030   33.5160   43.1040 C.2    36  THR36       0.2287
     91  O        169.6940   32.8450   43.3150 O.2    36  THR36      -0.2866
     92  CB       170.6740   35.5840   41.6430 C.3    36  THR36       0.1770
     93  OG1      169.6690   34.9330   40.8550 O.3    36  THR36      -0.2211
     94  CG2      172.0360   35.3650   41.0030 C.3    36  THR36       0.0375
     95  N        177.3900   52.1740   40.4380 N.3   120  ARG120     -0.1245
     96  CA       177.5640   52.0010   39.0040 C.3   120  ARG120      0.1563
     97  C        176.6930   53.0070   38.2700 C.2   120  ARG120      0.2260
     98  O        177.1410   53.6270   37.3070 O.2   120  ARG120     -0.2867
     99  CB       177.2370   50.5700   38.5750 C.3   120  ARG120      0.0307
    100  CG       178.1530   50.0670   37.4690 C.3   120  ARG120      0.0489
    101  CD       177.8340   48.6480   37.0340 C.3   120  ARG120      0.2205
    102  NE       176.4810   48.4880   36.5130 N.pl3 120  ARG120     -0.0865
    103  CZ       176.1360   47.5530   35.6330 C.cat 120  ARG120      0.5346
    104  NH1      177.0470   46.7110   35.1630 N.pl3 120  ARG120      0.1354
    105  NH2      174.8830   47.4590   35.2180 N.pl3 120  ARG120      0.1354
@<TRIPOS>BOND
     1    29    30    1
     2    29    28    1
     3    30    31    2
     4    33    31    1
     5    31    32    1
     6    28    27    1
     7    27    24    1
     8    24    23    1
     9    24    25    1
    10    23    17   am
    11    15    16    1
    12    17    16    1
    13    17    18    2
    14    16    19    1
    15    21    20    2
    16    25    26    2
    17    25    34   am
    18    19    20    1
    19    20    22   am
    20    34    35    1
    21     7     9   ar
    22     7     6   ar
    23     9    10   ar
    24     6     5    1
    25     6     8   ar
    26     2     5    1
    27     2     1    1
    28     2     3    1
    29    35    36    1
    30    35    38    1
    31    39    41    1
    32    39    38    1
    33    39    40    1
    34     4     3    2
    35    10     8   ar
    36    10    12   ar
    37    37    36    2
    38     8    11   ar
    39    12    14   ar
    40    11    13   ar
    41    14    13   ar
    42    47    46    1
    43    42    43    1
    44    46    43    1
    45    46    48    1
    46    45    44    2
    47    43    44    1
    48   104   103    1
    49   105   103    1
    50   103   102    2
    51    64    62    1
    52   102   101    1
    53   101   100    1
    54    98    97    2
    55    62    61    1
    56   100    99    1
    57    63    61    1
    58    86    85    1
    59    61    58    1
    60    97    96    1
    61    56    55    1
    62    87    85    1
    63    99    96    1
    64    96    95    1
    65    85    84    1
    66    58    57    1
    67    58    59    1
    68    55    54    1
    69    60    59    2
    70    57    51   am
    71    59    65   am
    72    84    81    1
    73    93    92    1
    74    54    53    1
    75    94    92    1
    76    78    77    1
    77    65    71    1
    78    65    66    1
    79    53    50    1
    80    71    70    1
    81    81    80    1
    82    81    82    1
    83    70    69    1
    84    51    50    1
    85    51    52    2
    86    92    89    1
    87    80    74   am
    88    76    77    1
    89    76    73    1
    90    66    69    1
    91    66    67    1
    92    50    49    1
    93    77    79    1
    94    83    82    2
    95    74    75    2
    96    74    73    1
    97    73    72    1
    98    67    68    2
    99    89    90    1
   100    89    88    1
   101    90    91    2
