@<TRIPOS>MOLECULE
tmp/4fbyA15.pdb
 106 105 0 0 0
SMALL
GASTEIGER

@<TRIPOS>ATOM
      1  N        150.2930   52.5080   60.0870 N.3   184  LEU184     -0.1245
      2  CA       149.2900   53.2900   59.3700 C.3   184  LEU184      0.1561
      3  C        149.0640   54.6480   60.0300 C.2   184  LEU184      0.2260
      4  O        148.6620   55.6070   59.3770 O.2   184  LEU184     -0.2867
      5  CB       147.9710   52.5210   59.3050 C.3   184  LEU184      0.0270
      6  CG       147.9840   51.2670   58.4330 C.3   184  LEU184      0.0019
      7  CD1      146.6410   50.5570   58.4990 C.3   184  LEU184      0.0001
      8  CD2      148.3480   51.6140   56.9990 C.3   184  LEU184      0.0001
      9  N        154.9740   56.8600   57.0770 N.3   189  HIS189     -0.1226
     10  CA       154.3100   55.9010   56.2050 C.3   189  HIS189      0.1752
     11  C        153.3020   56.5990   55.3110 C.2   189  HIS189      0.2595
     12  O        153.2300   56.3090   54.1220 O.2   189  HIS189     -0.2718
     13  CB       153.5880   54.8270   57.0140 C.3   189  HIS189      0.0759
     14  CG       152.9000   53.8040   56.1650 C.ar  189  HIS189      0.0818
     15  ND1      151.6400   53.9980   55.6400 N.ar  189  HIS189     -0.2268
     16  CD2      153.3040   52.5860   55.7310 C.ar  189  HIS189      0.1154
     17  CE1      151.2940   52.9400   54.9290 C.ar  189  HIS189      0.1986
     18  NE2      152.2850   52.0690   54.9700 N.ar  189  HIS189     -0.2212
     19  N        152.5450   57.5310   55.8820 N.am  190  GLN190     -0.1979
     20  CA       151.5340   58.2680   55.1320 C.3   190  GLN190      0.1601
     21  C        152.1710   59.0280   53.9790 C.2   190  GLN190      0.2287
     22  O        151.6260   59.0690   52.8780 O.2   190  GLN190     -0.2864
     23  CB       150.7830   59.2320   56.0460 C.3   190  GLN190      0.0394
     24  CG       149.9540   58.5330   57.1060 C.3   190  GLN190      0.0908
     25  CD       149.5960   59.4340   58.2720 C.2   190  GLN190      0.2608
     26  OE1      150.4660   59.9650   58.9590 O.2   190  GLN190     -0.2717
     27  NE2      148.3020   59.6070   58.5000 N.am  190  GLN190     -0.0878
     28  N        152.8960   56.4720   51.1640 N.3   193  VAL193     -0.1231
     29  CA       151.7880   56.1340   50.2790 C.3   193  VAL193      0.1692
     30  C        151.4130   57.3420   49.4250 C.2   193  VAL193      0.2591
     31  O        150.9420   57.1920   48.3000 O.2   193  VAL193     -0.2718
     32  CB       150.5720   55.5630   51.0660 C.3   193  VAL193      0.0266
     33  CG1      150.7070   55.8470   52.5380 C.3   193  VAL193      0.0020
     34  CG2      149.2480   56.0960   50.5300 C.3   193  VAL193      0.0020
     35  N        151.6770   58.5360   49.9440 N.am  194  ALA194     -0.1980
     36  CA       151.4280   59.7620   49.1980 C.3   194  ALA194      0.1597
     37  C        152.3510   59.7600   47.9870 C.2   194  ALA194      0.2287
     38  O        151.9230   60.0410   46.8670 O.2   194  ALA194     -0.2864
     39  CB       151.7170   60.9660   50.0710 C.3   194  ALA194      0.0319
     40  N        151.1470   56.6220   45.7260 N.3   197  PHE197     -0.1227
     41  CA       149.8680   56.9180   45.0820 C.3   197  PHE197      0.1736
     42  C        150.1150   58.0300   44.0710 C.2   197  PHE197      0.2596
     43  O        149.8100   57.8910   42.8840 O.2   197  PHE197     -0.2718
     44  CB       148.8490   57.4220   46.1040 C.3   197  PHE197      0.0547
     45  CG       148.0070   56.3390   46.7140 C.ar  197  PHE197     -0.0202
     46  CD1      147.1860   56.6180   47.7950 C.ar  197  PHE197     -0.0042
     47  CD2      148.0320   55.0500   46.2100 C.ar  197  PHE197     -0.0042
     48  CE1      146.4090   55.6330   48.3630 C.ar  197  PHE197     -0.0003
     49  CE2      147.2600   54.0580   46.7790 C.ar  197  PHE197     -0.0003
     50  CZ       146.4470   54.3520   47.8580 C.ar  197  PHE197     -0.0000
     51  N        150.6570   59.1370   44.5730 N.am  198  GLY198     -0.1957
     52  CA       151.0080   60.2980   43.7710 C.3   198  GLY198      0.1869
     53  C        151.8150   59.9280   42.5450 C.2   198  GLY198      0.2309
     54  O        151.5120   60.3770   41.4400 O.2   198  GLY198     -0.2863
     55  N        149.7980   58.2570   40.1070 N.3   201  LEU201     -0.1231
     56  CA       148.9010   59.3020   39.6180 C.3   201  LEU201      0.1693
     57  C        149.6420   60.0960   38.5430 C.2   201  LEU201      0.2592
     58  O        149.2630   60.0750   37.3760 O.2   201  LEU201     -0.2718
     59  CB       148.4880   60.2300   40.7700 C.3   201  LEU201      0.0284
     60  CG       147.3100   61.2220   40.7110 C.3   201  LEU201      0.0019
     61  CD1      147.3280   62.1250   41.9380 C.3   201  LEU201      0.0001
     62  CD2      147.2560   62.0650   39.4500 C.3   201  LEU201      0.0001
     63  N        150.6820   60.8150   38.9590 N.am  202  PHE202     -0.1976
     64  CA       151.4780   61.6320   38.0480 C.3   202  PHE202      0.1639
     65  C        151.9890   60.8250   36.8530 C.2   202  PHE202      0.2290
     66  O        152.0050   61.3220   35.7260 O.2   202  PHE202     -0.2864
     67  CB       152.6380   62.2800   38.8010 C.3   202  PHE202      0.0560
     68  CG       152.2000   63.1340   39.9540 C.ar  202  PHE202     -0.0200
     69  CD1      151.1010   63.9680   39.8290 C.ar  202  PHE202     -0.0042
     70  CD2      152.8840   63.1100   41.1580 C.ar  202  PHE202     -0.0042
     71  CE1      150.6860   64.7580   40.8800 C.ar  202  PHE202     -0.0003
     72  CE2      152.4730   63.9010   42.2170 C.ar  202  PHE202     -0.0003
     73  CZ       151.3730   64.7260   42.0750 C.ar  202  PHE202     -0.0000
     74  N        142.3050   72.4710   35.2880 N.3   250  ILE250     -0.1231
     75  CA       142.3140   73.0520   36.6250 C.3   250  ILE250      0.1692
     76  C        142.2830   74.5730   36.4900 C.2   250  ILE250      0.2592
     77  O        141.2220   75.1930   36.5910 O.2   250  ILE250     -0.2718
     78  CB       143.5840   72.6390   37.3930 C.3   250  ILE250      0.0266
     79  CG1      143.8840   71.1510   37.1750 C.3   250  ILE250      0.0019
     80  CG2      143.4450   72.9680   38.8720 C.3   250  ILE250      0.0020
     81  CD1      142.7880   70.2200   37.6580 C.3   250  ILE250      0.0001
     82  N        143.4560   75.1460   36.2260 N.am  251  PHE251     -0.1976
     83  CA       143.6400   76.5790   35.9770 C.3   251  PHE251      0.1639
     84  C        145.1210   76.8190   35.6720 C.2   251  PHE251      0.2290
     85  O        146.0010   76.2400   36.3090 O.2   251  PHE251     -0.2864
     86  CB       143.0840   77.4540   37.1250 C.3   251  PHE251      0.0560
     87  CG       143.9280   77.4950   38.3770 C.ar  251  PHE251     -0.0200
     88  CD1      145.1340   78.1770   38.4190 C.ar  251  PHE251     -0.0042
     89  CD2      143.4890   76.8600   39.5270 C.ar  251  PHE251     -0.0042
     90  CE1      145.8870   78.2140   39.5750 C.ar  251  PHE251     -0.0003
     91  CE2      144.2390   76.8930   40.6860 C.ar  251  PHE251     -0.0003
     92  CZ       145.4390   77.5710   40.7090 C.ar  251  PHE251     -0.0000
     93  N        158.8990   64.0170   43.5760 N.3   269  TRP269     -0.1241
     94  CA       157.7750   63.5230   44.3750 C.3   269  TRP269      0.1605
     95  C        157.9420   62.0900   44.9120 C.2   269  TRP269      0.2264
     96  O        158.0740   61.9130   46.1220 O.2   269  TRP269     -0.2867
     97  CB       156.4490   63.6790   43.6230 C.3   269  TRP269      0.0550
     98  CG       155.2750   63.3650   44.4820 C.ar  269  TRP269      0.0003
     99  CD1      154.6950   62.1420   44.6620 C.ar  269  TRP269      0.0946
    100  CD2      154.5400   64.2830   45.2970 C.ar  269  TRP269      0.0152
    101  NE1      153.6390   62.2440   45.5340 N.ar  269  TRP269     -0.2442
    102  CE2      153.5220   63.5490   45.9380 C.ar  269  TRP269      0.0810
    103  CE3      154.6410   65.6560   45.5440 C.ar  269  TRP269      0.0012
    104  CZ2      152.6110   64.1420   46.8100 C.ar  269  TRP269      0.0191
    105  CZ3      153.7330   66.2440   46.4100 C.ar  269  TRP269      0.0001
    106  CH2      152.7330   65.4870   47.0320 C.ar  269  TRP269      0.0015
@<TRIPOS>BOND
     1    74    75    1
     2    84    83    1
     3    84    85    2
     4    66    65    2
     5    83    82    1
     6    83    86    1
     7    82    76   am
     8    76    77    2
     9    76    75    1
    10    75    78    1
    11    65    64    1
    12    86    87    1
    13    79    78    1
    14    79    81    1
    15    58    57    2
    16    78    80    1
    17    64    67    1
    18    64    63    1
    19    87    88   ar
    20    87    89   ar
    21    88    90   ar
    22    57    63   am
    23    57    56    1
    24    67    68    1
    25    62    60    1
    26    89    91   ar
    27    90    92   ar
    28    56    55    1
    29    56    59    1
    30    69    68   ar
    31    69    71   ar
    32    68    70   ar
    33    91    92   ar
    34    60    59    1
    35    60    61    1
    36    71    73   ar
    37    70    72   ar
    38    54    53    2
    39    73    72   ar
    40    53    52    1
    41    43    42    2
    42    93    94    1
    43    97    94    1
    44    97    98    1
    45    52    51    1
    46    42    51   am
    47    42    41    1
    48    94    95    1
    49    98    99   ar
    50    98   100   ar
    51    99   101   ar
    52    95    96    2
    53    41    40    1
    54    41    44    1
    55   100   103   ar
    56   100   102   ar
    57   101   102   ar
    58   103   105   ar
    59   102   104   ar
    60    44    45    1
    61    47    45   ar
    62    47    49   ar
    63   105   106   ar
    64    45    46   ar
    65    49    50   ar
    66   104   106   ar
    67    38    37    2
    68    46    48   ar
    69    50    48   ar
    70    37    36    1
    71    31    30    2
    72    36    35    1
    73    36    39    1
    74    30    35   am
    75    30    29    1
    76    29    32    1
    77    29    28    1
    78    34    32    1
    79    32    33    1
    80    22    21    2
    81    21    20    1
    82    12    11    2
    83    17    18   ar
    84    17    15   ar
    85    18    16   ar
    86    20    19    1
    87    20    23    1
    88    11    19   am
    89    11    10    1
    90    15    14   ar
    91    16    14   ar
    92    23    24    1
    93    14    13    1
    94    10    13    1
    95    10     9    1
    96     8     6    1
    97    24    25    1
    98    25    27   am
    99    25    26    2
   100     6     7    1
   101     6     5    1
   102     5     2    1
   103     2     3    1
   104     2     1    1
   105     4     3    2
