@<TRIPOS>MOLECULE
tmp/4fbyG02.pdb
 81 76 0 0 0
SMALL
GASTEIGER

@<TRIPOS>ATOM
      1  N        113.1700   67.0660   15.7660 N.3    26  THR26      -0.1203
      2  CA       112.3240   66.5390   16.8320 C.3    26  THR26       0.1994
      3  C        112.9630   66.6280   18.2220 C.2    26  THR26       0.2618
      4  O        112.3300   66.2580   19.2110 O.2    26  THR26      -0.2717
      5  CB       111.9500   65.0690   16.5570 C.3    26  THR26       0.1784
      6  OG1      112.6320   64.6110   15.3840 O.3    26  THR26      -0.2211
      7  CG2      110.4510   64.9260   16.3500 C.3    26  THR26       0.0376
      8  N        114.2180   67.0870   18.2790 N.am   27  THR27      -0.1952
      9  CA       114.9860   67.2270   19.5300 C.3    27  THR27       0.1897
     10  C        114.1610   67.5970   20.7780 C.2    27  THR27       0.2313
     11  O        114.1160   66.8090   21.7230 O.2    27  THR27      -0.2863
     12  CB       116.1800   68.2120   19.3750 C.3    27  THR27       0.1794
     13  OG1      117.1220   67.6830   18.4320 O.3    27  THR27      -0.2208
     14  CG2      116.8760   68.4210   20.7090 C.3    27  THR27       0.0378
     15  N        111.0090   67.5210   21.5260 N.3    29  LEU29      -0.1231
     16  CA       110.0080   66.5160   21.8620 C.3    29  LEU29       0.1693
     17  C        110.7040   65.3170   22.4990 C.2    29  LEU29       0.2591
     18  O        110.2110   64.7300   23.4640 O.2    29  LEU29      -0.2718
     19  CB       109.2560   66.0630   20.6100 C.3    29  LEU29       0.0284
     20  CG       108.3280   64.8650   20.8040 C.3    29  LEU29       0.0019
     21  CD1      107.3190   65.1570   21.9070 C.3    29  LEU29       0.0001
     22  CD2      107.6370   64.4960   19.5030 C.3    29  LEU29       0.0001
     23  N        111.8610   64.9660   21.9430 N.am   30  MET30      -0.1979
     24  CA       112.6720   63.8590   22.4350 C.3    30  MET30       0.1605
     25  C        113.1300   64.1350   23.8610 C.2    30  MET30       0.2287
     26  O        113.0600   63.2630   24.7260 O.2    30  MET30      -0.2864
     27  CB       113.8840   63.6750   21.5230 C.3    30  MET30       0.0413
     28  CG       114.9440   62.7280   22.0450 C.3    30  MET30       0.0598
     29  SD       116.4750   62.9270   21.1120 S.3    30  MET30      -0.1393
     30  CE       117.3140   64.1910   22.0640 C.3    30  MET30       0.0692
     31  N        110.4580   62.9420   26.6300 N.3    33  PHE33      -0.1227
     32  CA       110.3460   61.5300   26.9680 C.3    33  PHE33       0.1736
     33  C        111.5790   61.1620   27.7830 C.2    33  PHE33       0.2595
     34  O        111.5040   60.3600   28.7110 O.2    33  PHE33      -0.2718
     35  CB       110.2960   60.6720   25.7040 C.3    33  PHE33       0.0547
     36  CG       109.0210   60.8170   24.9220 C.ar   33  PHE33      -0.0202
     37  CD1      108.8110   61.9140   24.1060 C.ar   33  PHE33      -0.0042
     38  CD2      108.0220   59.8600   25.0180 C.ar   33  PHE33      -0.0042
     39  CE1      107.6350   62.0460   23.3910 C.ar   33  PHE33      -0.0003
     40  CE2      106.8430   59.9890   24.3070 C.ar   33  PHE33      -0.0003
     41  CZ       106.6500   61.0830   23.4920 C.ar   33  PHE33      -0.0000
     42  N        112.7190   61.7300   27.3970 N.am   34  MET34      -0.1979
     43  CA       113.9810   61.5100   28.0950 C.3    34  MET34       0.1605
     44  C        113.8600   61.8580   29.5710 C.2    34  MET34       0.2287
     45  O        114.2690   61.0830   30.4370 O.2    34  MET34      -0.2864
     46  CB       115.0760   62.3640   27.4540 C.3    34  MET34       0.0413
     47  CG       116.4860   61.8870   27.7670 C.3    34  MET34       0.0598
     48  SD       117.7480   62.7160   26.7830 S.3    34  MET34      -0.1393
     49  CE       117.2260   62.2700   25.1290 C.3    34  MET34       0.0692
     50  N        113.7760   59.2800   32.7520 N.3    38  LEU38      -0.1245
     51  CA       114.6400   59.5500   33.8960 C.3    38  LEU38       0.1561
     52  C        113.8510   59.4980   35.2080 C.2    38  LEU38       0.2260
     53  O        114.3080   58.9210   36.1960 O.2    38  LEU38      -0.2867
     54  CB       115.3110   60.9210   33.7210 C.3    38  LEU38       0.0270
     55  CG       116.3990   61.4210   34.6780 C.3    38  LEU38       0.0019
     56  CD1      117.2100   62.5050   33.9920 C.3    38  LEU38       0.0001
     57  CD2      115.8240   61.9600   35.9810 C.3    38  LEU38       0.0001
     58  N        112.5440   55.7920   35.8540 N.3    41  LEU41      -0.1231
     59  CA       113.5720   54.9460   36.4490 C.3    41  LEU41       0.1693
     60  C        113.7550   55.2490   37.9330 C.2    41  LEU41       0.2591
     61  O        113.7770   54.3340   38.7540 O.2    41  LEU41      -0.2718
     62  CB       114.9030   55.1210   35.7150 C.3    41  LEU41       0.0284
     63  CG       114.9040   54.7050   34.2420 C.3    41  LEU41       0.0019
     64  CD1      116.2990   54.8160   33.6460 C.3    41  LEU41       0.0001
     65  CD2      114.3660   53.2910   34.0910 C.3    41  LEU41       0.0001
     66  N        113.9070   56.5310   38.2620 N.am   42  LEU42      -0.1980
     67  CA       114.0720   56.9670   39.6470 C.3    42  LEU42       0.1596
     68  C        112.9470   56.4280   40.5350 C.2    42  LEU42       0.2287
     69  O        113.1570   56.1600   41.7180 O.2    42  LEU42      -0.2864
     70  CB       114.1080   58.4950   39.7230 C.3    42  LEU42       0.0297
     71  CG       114.2710   59.1050   41.1170 C.3    42  LEU42       0.0022
     72  CD1      115.7400   59.2800   41.4490 C.3    42  LEU42       0.0001
     73  CD2      113.5490   60.4360   41.2080 C.3    42  LEU42       0.0001
     74  N        113.3420   52.5390   40.8500 N.3    45  LEU45      -0.1245
     75  CA       114.5620   52.3470   41.6230 C.3    45  LEU45       0.1561
     76  C        114.2020   52.5230   43.0940 C.2    45  LEU45       0.2260
     77  O        114.3440   51.6000   43.8950 O.2    45  LEU45      -0.2867
     78  CB       115.6180   53.3780   41.2220 C.3    45  LEU45       0.0270
     79  CG       116.8070   53.5760   42.1650 C.3    45  LEU45       0.0019
     80  CD1      117.5450   52.2630   42.3840 C.3    45  LEU45       0.0001
     81  CD2      117.7480   54.6430   41.6300 C.3    45  LEU45       0.0001
@<TRIPOS>BOND
     1     6     5    1
     2     1     2    1
     3     7     5    1
     4     5     2    1
     5     2     3    1
     6     3     8   am
     7     3     4    2
     8     8     9    1
     9    13    12    1
    10    12     9    1
    11    12    14    1
    12    22    20    1
    13     9    10    1
    14    19    20    1
    15    19    16    1
    16    10    11    2
    17    20    21    1
    18    29    28    1
    19    29    30    1
    20    27    28    1
    21    27    24    1
    22    15    16    1
    23    16    17    1
    24    23    24    1
    25    23    17   am
    26    24    25    1
    27    17    18    2
    28    39    41   ar
    29    39    37   ar
    30    41    40   ar
    31    25    26    2
    32    37    36   ar
    33    40    38   ar
    34    36    38   ar
    35    36    35    1
    36    49    48    1
    37    35    32    1
    38    31    32    1
    39    48    47    1
    40    32    33    1
    41    42    33   am
    42    42    43    1
    43    46    47    1
    44    46    43    1
    45    33    34    2
    46    43    44    1
    47    44    45    2
    48    50    51    1
    49    64    63    1
    50    54    51    1
    51    54    55    1
    52    51    52    1
    53    56    55    1
    54    65    63    1
    55    63    62    1
    56    55    57    1
    57    52    53    2
    58    62    59    1
    59    58    59    1
    60    59    60    1
    61    60    66   am
    62    60    61    2
    63    66    67    1
    64    67    70    1
    65    67    68    1
    66    70    71    1
    67    68    69    2
    68    74    75    1
    69    71    73    1
    70    71    72    1
    71    78    75    1
    72    78    79    1
    73    75    76    1
    74    81    79    1
    75    79    80    1
    76    76    77    2
