@<TRIPOS>MOLECULE
tmp/4fbyA10.pdb
 81 78 0 0 0
SMALL
GASTEIGER

@<TRIPOS>ATOM
      1  N        168.1430   28.4080   44.6450 N.3    41  ILE41      -0.1245
      2  CA       168.3030   27.0450   45.1460 C.3    41  ILE41       0.1561
      3  C        167.5250   26.8960   46.4450 C.2    41  ILE41       0.2260
      4  O        166.8350   25.8970   46.6550 O.2    41  ILE41      -0.2867
      5  CB       169.7830   26.6940   45.3930 C.3    41  ILE41       0.0252
      6  CG1      170.5530   26.6920   44.0740 C.3    41  ILE41       0.0019
      7  CG2      169.9070   25.3300   46.0480 C.3    41  ILE41       0.0019
      8  CD1      172.0390   26.4730   44.2310 C.3    41  ILE41       0.0001
      9  N        164.6410   24.1860   46.9430 N.3    45  ALA45      -0.1245
     10  CA       164.9290   22.9580   47.6940 C.3    45  ALA45       0.1562
     11  C        165.3400   23.0660   49.1670 C.2    45  ALA45       0.2260
     12  O        165.5350   22.0360   49.8170 O.2    45  ALA45      -0.2867
     13  CB       165.9550   22.1210   46.9300 C.3    45  ALA45       0.0290
     14  N        165.3970   23.2480   53.1680 N.3    47  PRO47      -0.2103
     15  CA       164.5410   22.5940   54.1610 C.3    47  PRO47       0.1489
     16  C        164.0450   23.5820   55.2250 C.2    47  PRO47       0.2417
     17  O        164.5360   24.7100   55.2590 O.2    47  PRO47      -0.2734
     18  CB       165.4850   21.5440   54.7530 C.3    47  PRO47       0.0282
     19  CG       166.7940   22.2480   54.7360 C.3    47  PRO47       0.0208
     20  CD       166.8140   22.9070   53.3810 C.3    47  PRO47       0.0893
     21  N        163.0840   23.1660   56.0740 N.am   48  PRO48      -0.2729
     22  CA       162.5060   23.9980   57.1380 C.3    48  PRO48       0.1401
     23  C        163.4930   24.7820   58.0080 C.2    48  PRO48       0.2269
     24  O        164.5610   24.2760   58.3570 O.2    48  PRO48      -0.2865
     25  CB       161.7120   22.9850   57.9600 C.3    48  PRO48       0.0296
     26  CG       161.2380   22.0350   56.9320 C.3    48  PRO48       0.0237
     27  CD       162.4510   21.8320   56.0680 C.3    48  PRO48       0.0939
     28  N        159.7020   22.4690   46.9580 N.3    63  LEU63      -0.1231
     29  CA       159.8260   21.0260   47.1740 C.3    63  LEU63       0.1693
     30  C        159.3610   20.5500   48.5500 C.2    63  LEU63       0.2592
     31  O        159.1890   19.3490   48.7690 O.2    63  LEU63      -0.2718
     32  CB       161.2640   20.5600   46.9220 C.3    63  LEU63       0.0284
     33  CG       161.7220   20.4800   45.4650 C.3    63  LEU63       0.0019
     34  CD1      163.1530   19.9780   45.3790 C.3    63  LEU63       0.0001
     35  CD2      160.7950   19.5600   44.6960 C.3    63  LEU63       0.0001
     36  N        159.1500   21.4830   49.4720 N.am   64  TYR64      -0.1962
     37  CA       158.7130   21.1190   50.8120 C.3    64  TYR64       0.1771
     38  C        157.2790   21.5750   51.0890 C.2    64  TYR64       0.2620
     39  O        156.9590   22.0000   52.1990 O.2    64  TYR64      -0.2715
     40  CB       159.6630   21.7030   51.8610 C.3    64  TYR64       0.0574
     41  CG       160.9350   20.8980   52.0600 C.ar   64  TYR64      -0.0198
     42  CD1      161.9170   20.8560   51.0750 C.ar   64  TYR64      -0.0009
     43  CD2      161.1500   20.1760   53.2270 C.ar   64  TYR64      -0.0009
     44  CE1      163.0800   20.1220   51.2520 C.ar   64  TYR64       0.0417
     45  CE2      162.3090   19.4370   53.4110 C.ar   64  TYR64       0.0417
     46  CZ       163.2710   19.4150   52.4200 C.ar   64  TYR64       0.1957
     47  OH       164.4240   18.6820   52.5960 O.3    64  TYR64      -0.2866
     48  N        156.4250   21.4860   50.0720 N.am   65  GLY65      -0.1954
     49  CA       155.0150   21.8140   50.2200 C.3    65  GLY65       0.1869
     50  C        154.5420   23.2280   49.9280 C.2    65  GLY65       0.2309
     51  O        153.3800   23.5470   50.1850 O.2    65  GLY65      -0.2863
     52  N        177.9600   21.6550   60.0850 N.3    92  SER92      -0.1202
     53  CA       177.5830   21.0660   58.8080 C.3    92  SER92       0.2020
     54  C        176.5640   21.9550   58.1100 C.2    92  SER92       0.2619
     55  O        176.0460   22.9030   58.6990 O.2    92  SER92      -0.2717
     56  CB       176.9820   19.6760   59.0200 C.3    92  SER92       0.2103
     57  OG       176.1130   19.6590   60.1400 O.3    92  SER92      -0.2182
     58  N        176.2750   21.6410   56.8530 N.am   93  LEU93      -0.1965
     59  CA       175.2850   22.3830   56.0880 C.3    93  LEU93       0.1728
     60  C        173.9100   22.1170   56.6770 C.2    93  LEU93       0.2616
     61  O        173.0720   23.0160   56.7470 O.2    93  LEU93      -0.2715
     62  CB       175.3100   21.9630   54.6210 C.3    93  LEU93       0.0311
     63  CG       176.4340   22.5490   53.7650 C.3    93  LEU93       0.0022
     64  CD1      176.6130   21.7450   52.4850 C.3    93  LEU93       0.0001
     65  CD2      176.1590   24.0110   53.4470 C.3    93  LEU93       0.0001
     66  N        173.6850   20.8680   57.0760 N.am   94  ASP94      -0.1971
     67  CA       172.4320   20.4470   57.6940 C.3    94  ASP94       0.1709
     68  C        172.0440   21.3870   58.8360 C.2    94  ASP94       0.2293
     69  O        170.8830   21.7760   58.9700 O.2    94  ASP94      -0.2864
     70  CB       172.5780   19.0190   58.2290 C.3    94  ASP94       0.1436
     71  CG       172.1260   17.9710   57.2300 C.2    94  ASP94       0.3671
     72  OD1      172.2830   18.2050   56.0140 O.co2  94  ASP94      -0.2456
     73  OD2      171.6210   16.9130   57.6620 O.co2  94  ASP94      -0.2456
     74  N        171.2960   25.0290   57.2520 N.3    97  LEU97      -0.1245
     75  CA       169.9970   25.1860   56.6030 C.3    97  LEU97       0.1561
     76  C        168.8730   25.2170   57.6370 C.2    97  LEU97       0.2260
     77  O        167.7990   25.7630   57.3860 O.2    97  LEU97      -0.2867
     78  CB       169.7470   24.0460   55.6140 C.3    97  LEU97       0.0270
     79  CG       170.8080   23.7690   54.5470 C.3    97  LEU97       0.0019
     80  CD1      170.5700   22.4120   53.9040 C.3    97  LEU97       0.0001
     81  CD2      170.8130   24.8660   53.4920 C.3    97  LEU97       0.0001
@<TRIPOS>BOND
     1     6     8    1
     2     6     5    1
     3     1     2    1
     4    35    33    1
     5     2     5    1
     6     2     3    1
     7    34    33    1
     8     5     7    1
     9    33    32    1
    10     3     4    2
    11    32    29    1
    12    13    10    1
    13     9    10    1
    14    28    29    1
    15    29    30    1
    16    10    11    1
    17    30    31    2
    18    30    36   am
    19    11    12    2
    20    36    37    1
    21    50    51    2
    22    50    49    1
    23    48    49    1
    24    48    38   am
    25    37    38    1
    26    37    40    1
    27    42    44   ar
    28    42    41   ar
    29    38    39    2
    30    44    46   ar
    31    40    41    1
    32    41    43   ar
    33    46    47    1
    34    46    45   ar
    35    64    63    1
    36    14    20    1
    37    14    15    1
    38    43    45   ar
    39    20    19    1
    40    65    63    1
    41    81    79    1
    42    63    62    1
    43    80    79    1
    44    15    18    1
    45    15    16    1
    46    79    78    1
    47    62    59    1
    48    19    18    1
    49    16    17    2
    50    16    21   am
    51    78    75    1
    52    72    71   ar
    53    27    21    1
    54    27    26    1
    55    21    22    1
    56    59    60    1
    57    59    58    1
    58    75    74    1
    59    75    76    1
    60    60    61    2
    61    60    66   am
    62    58    54   am
    63    26    25    1
    64    66    67    1
    65    22    25    1
    66    22    23    1
    67    71    73   ar
    68    71    70    1
    69    77    76    2
    70    67    70    1
    71    67    68    1
    72    23    24    2
    73    54    55    2
    74    54    53    1
    75    53    56    1
    76    53    52    1
    77    68    69    2
    78    56    57    1
