@<TRIPOS>MOLECULE
tmp/4fbyA03.pdb
 116 109 0 0 0
SMALL
GASTEIGER

@<TRIPOS>ATOM
      1  N        171.7380   38.7130   66.1020 N.3    82  LEU82      -0.1231
      2  CA       172.5030   39.5400   65.1800 C.3    82  LEU82       0.1693
      3  C        173.8800   38.9480   64.9070 C.2    82  LEU82       0.2592
      4  O        174.6910   39.5610   64.2160 O.2    82  LEU82      -0.2718
      5  CB       172.6560   40.9650   65.7220 C.3    82  LEU82       0.0284
      6  CG       171.4380   41.8920   65.6790 C.3    82  LEU82       0.0019
      7  CD1      171.7870   43.2490   66.2720 C.3    82  LEU82       0.0001
      8  CD2      170.9280   42.0450   64.2540 C.3    82  LEU82       0.0001
      9  N        174.1480   37.7650   65.4540 N.am   83  HIS83      -0.1976
     10  CA       175.4400   37.1210   65.2380 C.3    83  HIS83       0.1656
     11  C        175.6630   36.7820   63.7710 C.2    83  HIS83       0.2291
     12  O        174.7240   36.4680   63.0380 O.2    83  HIS83      -0.2864
     13  CB       175.5740   35.8390   66.0640 C.3    83  HIS83       0.0771
     14  CG       175.8480   36.0760   67.5160 C.ar   83  HIS83       0.0820
     15  ND1      176.5880   35.2040   68.2840 N.ar   83  HIS83      -0.2267
     16  CD2      175.4590   37.0720   68.3460 C.ar   83  HIS83       0.1154
     17  CE1      176.6610   35.6620   69.5210 C.ar   83  HIS83       0.1986
     18  NE2      175.9840   36.7950   69.5850 N.ar   83  HIS83      -0.2212
     19  N        172.9490   39.8960   52.8400 N.3   108  PHE108     -0.1241
     20  CA       174.2370   40.5830   52.8410 C.3   108  PHE108      0.1605
     21  C        174.7960   40.8040   51.4370 C.2   108  PHE108      0.2264
     22  O        175.2170   41.9110   51.1050 O.2   108  PHE108     -0.2867
     23  CB       175.2470   39.8270   53.7020 C.3   108  PHE108      0.0534
     24  CG       174.9100   39.8260   55.1660 C.ar  108  PHE108     -0.0203
     25  CD1      174.3980   40.9630   55.7680 C.ar  108  PHE108     -0.0042
     26  CD2      175.1130   38.6960   55.9410 C.ar  108  PHE108     -0.0042
     27  CE1      174.0880   40.9730   57.1150 C.ar  108  PHE108     -0.0003
     28  CE2      174.8050   38.7000   57.2900 C.ar  108  PHE108     -0.0003
     29  CZ       174.2910   39.8410   57.8780 C.ar  108  PHE108     -0.0000
     30  N        174.7750   44.4700   49.4920 N.3   112  LEU112     -0.1245
     31  CA       176.1100   44.8610   49.0630 C.3   112  LEU112      0.1561
     32  C        176.0670   45.2290   47.5820 C.2   112  LEU112      0.2260
     33  O        176.3600   46.3640   47.2060 O.2   112  LEU112     -0.2867
     34  CB       177.0810   43.7020   49.2900 C.3   112  LEU112      0.0270
     35  CG       178.5640   44.0380   49.4410 C.3   112  LEU112      0.0019
     36  CD1      178.7720   44.9500   50.6350 C.3   112  LEU112      0.0001
     37  CD2      179.3670   42.7650   49.6140 C.3   112  LEU112      0.0001
     38  N        173.9860   48.1250   46.3970 N.3   115  SER115     -0.1217
     39  CA       174.6010   49.4050   46.7220 C.3   115  SER115      0.1889
     40  C        175.5450   49.7640   45.5890 C.2   115  SER115      0.2288
     41  O        175.5150   50.8760   45.0720 O.2   115  SER115     -0.2866
     42  CB       175.3810   49.3050   48.0310 C.3   115  SER115      0.2089
     43  OG       174.5380   48.9080   49.0970 O.3   115  SER115     -0.2183
     44  N        174.1240   51.1130   42.6130 N.3   118  MET118     -0.1245
     45  CA       173.9030   52.5510   42.6710 C.3   118  MET118      0.1570
     46  C        175.1940   53.2420   42.2760 C.2   118  MET118      0.2261
     47  O        175.1900   54.1660   41.4630 O.2   118  MET118     -0.2867
     48  CB       173.4990   52.9720   44.0840 C.3   118  MET118      0.0387
     49  CG       173.2110   54.4540   44.2500 C.3   118  MET118      0.0595
     50  SD       172.3090   54.7630   45.7780 S.3   118  MET118     -0.1393
     51  CE       173.6090   54.4990   46.9800 C.3   118  MET118      0.0692
     52  N        168.3750   55.7470   45.1840 N.3   139  SER139     -0.1217
     53  CA       168.8060   55.6800   46.5710 C.3   139  SER139      0.1889
     54  C        167.5990   55.4480   47.4660 C.2   139  SER139      0.2288
     55  O        167.7360   54.9530   48.5780 O.2   139  SER139     -0.2866
     56  CB       169.4890   56.9860   46.9750 C.3   139  SER139      0.2089
     57  OG       168.5370   57.9670   47.3470 O.3   139  SER139     -0.2183
     58  N        166.5550   51.5850   47.3370 N.3   142  LEU142     -0.1231
     59  CA       167.6440   50.8880   48.0040 C.3   142  LEU142      0.1693
     60  C        167.5540   51.1040   49.5080 C.2   142  LEU142      0.2591
     61  O        167.6110   50.1500   50.2800 O.2   142  LEU142     -0.2718
     62  CB       168.9960   51.3840   47.4900 C.3   142  LEU142      0.0284
     63  CG       170.2190   50.7620   48.1670 C.3   142  LEU142      0.0019
     64  CD1      170.1580   49.2420   48.0870 C.3   142  LEU142      0.0001
     65  CD2      171.5070   51.2790   47.5440 C.3   142  LEU142      0.0001
     66  N        167.4240   52.3640   49.9160 N.am  143  ALA143     -0.1980
     67  CA       167.3090   52.7200   51.3310 C.3   143  ALA143      0.1597
     68  C        166.1460   52.0230   52.0280 C.2   143  ALA143      0.2287
     69  O        166.0580   52.0140   53.2540 O.2   143  ALA143     -0.2864
     70  CB       167.1630   54.2110   51.4800 C.3   143  ALA143      0.0319
     71  N        167.3660   48.2680   52.5210 N.3   146  PHE146     -0.1241
     72  CA       168.2610   48.4030   53.6670 C.3   146  PHE146      0.1605
     73  C        167.4700   48.4680   54.9680 C.2   146  PHE146      0.2264
     74  O        167.7760   47.7660   55.9310 O.2   146  PHE146     -0.2867
     75  CB       169.1270   49.6570   53.5240 C.3   146  PHE146      0.0534
     76  CG       170.5260   49.3790   53.0550 C.ar  146  PHE146     -0.0203
     77  CD1      171.5310   49.0900   53.9650 C.ar  146  PHE146     -0.0042
     78  CD2      170.8370   49.4060   51.7060 C.ar  146  PHE146     -0.0042
     79  CE1      172.8190   48.8350   53.5380 C.ar  146  PHE146     -0.0003
     80  CE2      172.1230   49.1500   51.2740 C.ar  146  PHE146     -0.0003
     81  CZ       173.1150   48.8640   52.1910 C.ar  146  PHE146     -0.0000
     82  N        168.0260   45.2290   56.9860 N.3   150  LEU150     -0.1231
     83  CA       169.1620   45.3960   57.8830 C.3   150  LEU150      0.1693
     84  C        168.9200   46.3460   59.0510 C.2   150  LEU150      0.2591
     85  O        169.2440   46.0160   60.1900 O.2   150  LEU150     -0.2718
     86  CB       170.3780   45.8720   57.0890 C.3   150  LEU150      0.0284
     87  CG       171.5820   46.3310   57.9120 C.3   150  LEU150      0.0019
     88  CD1      172.3710   45.1300   58.4030 C.3   150  LEU150      0.0001
     89  CD2      172.4640   47.2800   57.1130 C.3   150  LEU150      0.0001
     90  N        168.3460   47.5110   58.7780 N.am  151  ILE151     -0.1980
     91  CA       168.1300   48.4950   59.8320 C.3   151  ILE151      0.1595
     92  C        167.1570   47.9610   60.8800 C.2   151  ILE151      0.2287
     93  O        167.4560   47.9810   62.0750 O.2   151  ILE151     -0.2864
     94  CB       167.6050   49.8220   59.2620 C.3   151  ILE151      0.0276
     95  CG1      168.5480   50.3250   58.1690 C.3   151  ILE151      0.0022
     96  CG2      167.4360   50.8550   60.3690 C.3   151  ILE151      0.0022
     97  CD1      169.9680   50.5350   58.6410 C.3   151  ILE151      0.0001
     98  N        168.7870   45.1350   63.0080 N.3   154  ILE154     -0.1245
     99  CA       169.7620   45.6890   63.9400 C.3   154  ILE154      0.1561
    100  C        169.0160   46.2900   65.1210 C.2   154  ILE154      0.2260
    101  O        169.3040   45.9810   66.2770 O.2   154  ILE154     -0.2867
    102  CB       170.5970   46.8040   63.2940 C.3   154  ILE154      0.0252
    103  CG1      171.5600   46.2320   62.2550 C.3   154  ILE154      0.0019
    104  CG2      171.3770   47.5680   64.3510 C.3   154  ILE154      0.0019
    105  CD1      172.2070   47.2980   61.3930 C.3   154  ILE154      0.0001
    106  N        168.0670   39.1730   63.1960 N.3   159  PHE159     -0.1241
    107  CA       167.8020   39.0970   61.7630 C.3   159  PHE159      0.1605
    108  C        166.5450   38.2790   61.4880 C.2   159  PHE159      0.2264
    109  O        165.9980   38.3150   60.3860 O.2   159  PHE159     -0.2867
    110  CB       168.9960   38.4900   61.0220 C.3   159  PHE159      0.0534
    111  CG       170.1190   39.4590   60.7860 C.ar  159  PHE159     -0.0203
    112  CD1      171.2710   39.4080   61.5530 C.ar  159  PHE159     -0.0042
    113  CD2      170.0170   40.4280   59.8010 C.ar  159  PHE159     -0.0042
    114  CE1      172.3030   40.3030   61.3380 C.ar  159  PHE159     -0.0003
    115  CE2      171.0440   41.3260   59.5820 C.ar  159  PHE159     -0.0003
    116  CZ       172.1880   41.2640   60.3510 C.ar  159  PHE159     -0.0000
@<TRIPOS>BOND
     1    47    46    2
     2    46    45    1
     3    44    45    1
     4    45    48    1
     5    48    49    1
     6    49    50    1
     7    41    40    2
     8    52    53    1
     9    40    39    1
    10    50    51    1
    11    38    39    1
    12    53    56    1
    13    53    54    1
    14    39    42    1
    15    56    57    1
    16    33    32    2
    17    58    59    1
    18    54    55    2
    19    62    59    1
    20    62    63    1
    21    65    63    1
    22    32    31    1
    23    59    60    1
    24    42    43    1
    25    64    63    1
    26    31    34    1
    27    31    30    1
    28    34    35    1
    29    35    37    1
    30    35    36    1
    31    60    66   am
    32    60    61    2
    33    66    67    1
    34    22    21    2
    35    80    78   ar
    36    80    81   ar
    37    67    70    1
    38    67    68    1
    39    21    20    1
    40    78    76   ar
    41    68    69    2
    42    81    79   ar
    43    71    72    1
    44    19    20    1
    45    20    23    1
    46    76    75    1
    47    76    77   ar
    48    75    72    1
    49    79    77   ar
    50    72    73    1
    51    23    24    1
    52    73    74    2
    53    24    25   ar
    54    24    26   ar
    55    25    27   ar
    56    26    28   ar
    57    82    83    1
    58    86    83    1
    59    86    87    1
    60    89    87    1
    61    27    29   ar
    62    28    29   ar
    63    83    84    1
    64    87    88    1
    65    95    97    1
    66    95    94    1
    67    90    84   am
    68    90    91    1
    69    84    85    2
    70    94    91    1
    71    94    96    1
    72   115   113   ar
    73   115   116   ar
    74   113   111   ar
    75    91    92    1
    76   116   114   ar
    77   109   108    2
    78   111   110    1
    79   111   112   ar
    80    92    93    2
    81   110   107    1
    82   114   112   ar
    83   105   103    1
    84   108   107    1
    85   107   106    1
    86   103   102    1
    87    98    99    1
    88    12    11    2
    89   102    99    1
    90   102   104    1
    91    11    10    1
    92    99   100    1
    93     4     3    2
    94     8     6    1
    95     3     2    1
    96     3     9   am
    97   100   101    2
    98     2     5    1
    99     2     1    1
   100    10     9    1
   101    10    13    1
   102     6     5    1
   103     6     7    1
   104    13    14    1
   105    14    15   ar
   106    14    16   ar
   107    15    17   ar
   108    16    18   ar
   109    17    18   ar
