@<TRIPOS>MOLECULE
tmp/4fbyA17.pdb
 132 133 0 0 0
SMALL
GASTEIGER

@<TRIPOS>ATOM
      1  N        182.7100   45.3380   39.5490 N.3    26  VAL26      -0.1231
      2  CA       183.6500   44.2850   39.9280 C.3    26  VAL26       0.1692
      3  C        183.2780   43.6700   41.2830 C.2    26  VAL26       0.2591
      4  O        183.6250   42.5270   41.5810 O.2    26  VAL26      -0.2718
      5  CB       185.0960   44.8470   39.9690 C.3    26  VAL26       0.0266
      6  CG1      186.0850   43.8190   40.5030 C.3    26  VAL26       0.0020
      7  CG2      185.5200   45.3020   38.5850 C.3    26  VAL26       0.0020
      8  N        182.5240   44.4190   42.0800 N.am   27  ILE27      -0.1980
      9  CA       182.0690   43.9380   43.3750 C.3    27  ILE27       0.1595
     10  C        180.6200   43.5050   43.2040 C.2    27  ILE27       0.2287
     11  O        180.1710   42.5150   43.7800 O.2    27  ILE27      -0.2864
     12  CB       182.1500   45.0410   44.4450 C.3    27  ILE27       0.0276
     13  CG1      183.6090   45.3270   44.8110 C.3    27  ILE27       0.0022
     14  CG2      181.3470   44.6540   45.6820 C.3    27  ILE27       0.0022
     15  CD1      184.3310   44.1410   45.4130 C.3    27  ILE27       0.0001
     16  N        179.8830   39.8540   41.1680 N.3    30  PRO30      -0.2102
     17  CA       180.0340   38.5890   41.8940 C.3    30  PRO30       0.1504
     18  C        179.0260   38.4530   43.0270 C.2    30  PRO30       0.2576
     19  O        178.4000   37.4030   43.1570 O.2    30  PRO30      -0.2718
     20  CB       181.4740   38.6460   42.4120 C.3    30  PRO30       0.0282
     21  CG       182.1570   39.5920   41.4720 C.3    30  PRO30       0.0208
     22  CD       181.1160   40.6540   41.2630 C.3    30  PRO30       0.0893
     23  N        178.8910   39.4950   43.8410 N.am   31  THR31      -0.1953
     24  CA       177.9490   39.4780   44.9540 C.3    31  THR31       0.1897
     25  C        176.5160   39.1950   44.5050 C.2    31  THR31       0.2313
     26  O        175.8050   38.4260   45.1530 O.2    31  THR31      -0.2863
     27  CB       177.9580   40.8070   45.7280 C.3    31  THR31       0.1794
     28  OG1      177.7780   41.8940   44.8120 O.3    31  THR31      -0.2208
     29  CG2      179.2670   40.9850   46.4540 C.3    31  THR31       0.0378
     30  N        176.0280   35.4980   43.5810 N.3    34  ALA34      -0.1245
     31  CA       175.9790   34.6070   44.7320 C.3    34  ALA34       0.1562
     32  C        174.5760   34.6520   45.3180 C.2    34  ALA34       0.2260
     33  O        173.9630   33.6160   45.5760 O.2    34  ALA34      -0.2867
     34  CB       177.0070   35.0220   45.7680 C.3    34  ALA34       0.0290
     35  N        176.9210   36.8510   63.3520 N.3    84  PHE84      -0.1227
     36  CA       177.2950   36.5420   61.9830 C.3    84  PHE84       0.1736
     37  C        177.2680   35.0260   61.8300 C.2    84  PHE84       0.2595
     38  O        177.9040   34.3100   62.6030 O.2    84  PHE84      -0.2718
     39  CB       178.6940   37.0950   61.7210 C.3    84  PHE84       0.0547
     40  CG       179.0670   37.1400   60.2730 C.ar   84  PHE84      -0.0202
     41  CD1      178.3760   37.9520   59.3940 C.ar   84  PHE84      -0.0042
     42  CD2      180.1380   36.4090   59.7990 C.ar   84  PHE84      -0.0042
     43  CE1      178.7230   38.0050   58.0620 C.ar   84  PHE84      -0.0003
     44  CE2      180.4910   36.4580   58.4700 C.ar   84  PHE84      -0.0003
     45  CZ       179.7820   37.2590   57.6020 C.ar   84  PHE84      -0.0000
     46  N        176.5400   34.5330   60.8310 N.am   85  TYR85      -0.1963
     47  CA       176.4040   33.0890   60.6410 C.3    85  TYR85       0.1756
     48  C        176.7780   32.5990   59.2370 C.2    85  TYR85       0.2461
     49  O        175.9110   32.1830   58.4740 O.2    85  TYR85      -0.2730
     50  CB       174.9710   32.6590   60.9770 C.3    85  TYR85       0.0574
     51  CG       174.8070   31.1750   61.2320 C.ar   85  TYR85      -0.0198
     52  CD1      175.3920   30.5730   62.3400 C.ar   85  TYR85      -0.0009
     53  CD2      174.0570   30.3800   60.3750 C.ar   85  TYR85      -0.0009
     54  CE1      175.2410   29.2190   62.5830 C.ar   85  TYR85       0.0417
     55  CE2      173.9000   29.0250   60.6100 C.ar   85  TYR85       0.0417
     56  CZ       174.4940   28.4500   61.7150 C.ar   85  TYR85       0.1957
     57  OH       174.3420   27.1020   61.9490 O.3    85  TYR85      -0.2866
     58  N        178.0730   32.6600   58.8920 N.am   86  PRO86      -0.2716
     59  CA       178.6000   32.2040   57.6040 C.3    86  PRO86       0.1536
     60  C        178.6690   30.6850   57.5880 C.2    86  PRO86       0.2598
     61  O        178.7000   30.0990   58.6660 O.2    86  PRO86      -0.2715
     62  CB       180.0000   32.8090   57.5870 C.3    86  PRO86       0.0310
     63  CG       180.3930   32.7490   59.0120 C.3    86  PRO86       0.0237
     64  CD       179.1540   33.2110   59.7280 C.3    86  PRO86       0.0939
     65  N        178.6230   30.0610   56.4150 N.am   87  ILE87      -0.1964
     66  CA       178.6550   28.6000   56.3200 C.3    87  ILE87       0.1727
     67  C        179.7450   27.9760   57.1960 C.2    87  ILE87       0.2616
     68  O        179.5150   26.9620   57.8560 O.2    87  ILE87      -0.2715
     69  CB       178.8560   28.1340   54.8630 C.3    87  ILE87       0.0290
     70  CG1      177.7620   28.7140   53.9630 C.3    87  ILE87       0.0022
     71  CG2      178.8580   26.6150   54.7760 C.3    87  ILE87       0.0023
     72  CD1      177.8820   28.3040   52.5100 C.3    87  ILE87       0.0001
     73  N        180.9250   28.5900   57.2070 N.am   88  TRP88      -0.1974
     74  CA       182.0420   28.0910   58.0070 C.3    88  TRP88       0.1640
     75  C        181.8720   28.3010   59.5220 C.2    88  TRP88       0.2290
     76  O        182.8470   28.2530   60.2720 O.2    88  TRP88      -0.2864
     77  CB       183.3590   28.7270   57.5420 C.3    88  TRP88       0.0576
     78  CG       183.4180   30.2250   57.6570 C.ar   88  TRP88       0.0006
     79  CD1      183.6600   30.9510   58.7870 C.ar   88  TRP88       0.0946
     80  CD2      183.2580   31.1760   56.5970 C.ar   88  TRP88       0.0152
     81  NE1      183.6500   32.2940   58.4990 N.ar   88  TRP88      -0.2442
     82  CE2      183.4060   32.4590   57.1610 C.ar   88  TRP88       0.0810
     83  CE3      182.9990   31.0680   55.2270 C.ar   88  TRP88       0.0012
     84  CZ2      183.3010   33.6250   56.4040 C.ar   88  TRP88       0.0191
     85  CZ3      182.8960   32.2250   54.4790 C.ar   88  TRP88       0.0001
     86  CH2      183.0470   33.4860   55.0690 C.ar   88  TRP88       0.0015
     87  N        171.0640   34.9870   55.5320 N.3   104  GLN104     -0.1231
     88  CA       172.1230   35.9690   55.7080 C.3   104  GLN104      0.1698
     89  C        172.9910   36.0660   54.4630 C.2   104  GLN104      0.2592
     90  O        173.2800   37.1660   53.9970 O.2   104  GLN104     -0.2718
     91  CB       172.9810   35.6460   56.9340 C.3   104  GLN104      0.0381
     92  CG       172.2990   35.9410   58.2590 C.3   104  GLN104      0.0905
     93  CD       173.2420   35.8140   59.4420 C.2   104  GLN104      0.2608
     94  OE1      174.3640   36.3200   59.4120 O.2   104  GLN104     -0.2717
     95  NE2      172.7830   35.1520   60.4980 N.am  104  GLN104     -0.0878
     96  N        173.4030   34.9160   53.9340 N.am  105  LEU105     -0.1980
     97  CA       174.2270   34.8730   52.7290 C.3   105  LEU105      0.1596
     98  C        173.5450   35.6790   51.6210 C.2   105  LEU105      0.2287
     99  O        174.2060   36.3460   50.8250 O.2   105  LEU105     -0.2864
    100  CB       174.4620   33.4210   52.2850 C.3   105  LEU105      0.0297
    101  CG       175.3840   33.0980   51.0990 C.3   105  LEU105      0.0022
    102  CD1      175.8360   31.6490   51.1900 C.3   105  LEU105      0.0001
    103  CD2      174.7520   33.3530   49.7390 C.3   105  LEU105      0.0001
    104  N        172.9490   39.8960   52.8400 N.3   108  PHE108     -0.1227
    105  CA       174.2370   40.5830   52.8410 C.3   108  PHE108      0.1736
    106  C        174.7960   40.8040   51.4370 C.2   108  PHE108      0.2595
    107  O        175.2170   41.9110   51.1050 O.2   108  PHE108     -0.2718
    108  CB       175.2470   39.8270   53.7020 C.3   108  PHE108      0.0547
    109  CG       174.9100   39.8260   55.1660 C.ar  108  PHE108     -0.0202
    110  CD1      174.3980   40.9630   55.7680 C.ar  108  PHE108     -0.0042
    111  CD2      175.1130   38.6960   55.9410 C.ar  108  PHE108     -0.0042
    112  CE1      174.0880   40.9730   57.1150 C.ar  108  PHE108     -0.0003
    113  CE2      174.8050   38.7000   57.2900 C.ar  108  PHE108     -0.0003
    114  CZ       174.2910   39.8410   57.8780 C.ar  108  PHE108     -0.0000
    115  N        174.8110   39.7550   50.6190 N.am  109  HIS109     -0.1975
    116  CA       175.2980   39.8740   49.2460 C.3   109  HIS109      0.1656
    117  C        174.4340   40.7970   48.3960 C.2   109  HIS109      0.2291
    118  O        174.9540   41.5790   47.5980 O.2   109  HIS109     -0.2864
    119  CB       175.3530   38.5020   48.5710 C.3   109  HIS109      0.0771
    120  CG       176.5300   37.6740   48.9770 C.ar  109  HIS109      0.0820
    121  ND1      176.6380   37.0870   50.2190 N.ar  109  HIS109     -0.2267
    122  CD2      177.6500   37.3300   48.2990 C.ar  109  HIS109      0.1154
    123  CE1      177.7750   36.4190   50.2890 C.ar  109  HIS109      0.1986
    124  NE2      178.4060   36.5490   49.1360 N.ar  109  HIS109     -0.2212
    125  N        174.7750   44.4700   49.4920 N.3   112  LEU112     -0.1245
    126  CA       176.1100   44.8610   49.0630 C.3   112  LEU112      0.1561
    127  C        176.0670   45.2290   47.5820 C.2   112  LEU112      0.2260
    128  O        176.3600   46.3640   47.2060 O.2   112  LEU112     -0.2867
    129  CB       177.0810   43.7020   49.2900 C.3   112  LEU112      0.0270
    130  CG       178.5640   44.0380   49.4410 C.3   112  LEU112      0.0019
    131  CD1      178.7720   44.9500   50.6350 C.3   112  LEU112      0.0001
    132  CD2      179.3670   42.7650   49.6140 C.3   112  LEU112      0.0001
@<TRIPOS>BOND
     1     7     5    1
     2     1     2    1
     3     2     5    1
     4     2     3    1
     5     5     6    1
     6    16    22    1
     7    16    17    1
     8    22    21    1
     9     3     4    2
    10     3     8   am
    11    21    20    1
    12    17    20    1
    13    17    18    1
    14     8     9    1
    15    18    19    2
    16    18    23   am
    17    10     9    1
    18    10    11    2
    19     9    12    1
    20    30    31    1
    21    23    24    1
    22    12    13    1
    23    12    14    1
    24    25    24    1
    25    25    26    2
    26    31    32    1
    27    31    34    1
    28    13    15    1
    29    28    27    1
    30    24    27    1
    31    32    33    2
    32    27    29    1
    33   128   127    2
    34   127   126    1
    35   118   117    2
    36   122   120   ar
    37   122   124   ar
    38   117   116    1
    39   119   120    1
    40   119   116    1
    41   120   121   ar
    42   126   129    1
    43   126   125    1
    44   124   123   ar
    45   116   115    1
    46   129   130    1
    47   130   132    1
    48   130   131    1
    49   103   101    1
    50   121   123   ar
    51   115   106   am
    52    99    98    2
    53   101   102    1
    54   101   100    1
    55   107   106    2
    56   106   105    1
    57    98    97    1
    58   100    97    1
    59    72    70    1
    60    97    96    1
    61   104   105    1
    62   105   108    1
    63   108   109    1
    64    96    89   am
    65    70    69    1
    66    90    89    2
    67    89    88    1
    68    85    86   ar
    69    85    83   ar
    70    71    69    1
    71    69    66    1
    72    86    84   ar
    73   109   110   ar
    74   109   111   ar
    75    83    80   ar
    76    87    88    1
    77    88    91    1
    78   110   112   ar
    79   111   113   ar
    80    66    65    1
    81    66    67    1
    82    84    82   ar
    83    65    60   am
    84    80    82   ar
    85    80    78   ar
    86    91    92    1
    87   112   114   ar
    88    82    81   ar
    89    67    73   am
    90    67    68    2
    91    73    74    1
    92   113   114   ar
    93    77    78    1
    94    77    74    1
    95    62    59    1
    96    62    63    1
    97    60    59    1
    98    60    61    2
    99    45    43   ar
   100    45    44   ar
   101    59    58    1
   102    78    79   ar
   103    74    75    1
   104    43    41   ar
   105    92    93    1
   106    44    42   ar
   107    49    48    2
   108    81    79   ar
   109    58    48   am
   110    58    64    1
   111    63    64    1
   112    48    47    1
   113    41    40   ar
   114    94    93    2
   115    93    95   am
   116    75    76    2
   117    42    40   ar
   118    40    39    1
   119    53    55   ar
   120    53    51   ar
   121    55    56   ar
   122    47    46    1
   123    47    50    1
   124    46    37   am
   125    50    51    1
   126    51    52   ar
   127    56    57    1
   128    56    54   ar
   129    39    36    1
   130    37    36    1
   131    37    38    2
   132    36    35    1
   133    52    54   ar
