@<TRIPOS>MOLECULE
tmp/4fbyA19.pdb
 93 91 0 0 0
SMALL
GASTEIGER

@<TRIPOS>ATOM
      1  N        176.9210   36.8510   63.3520 N.3    84  PHE84      -0.1241
      2  CA       177.2950   36.5420   61.9830 C.3    84  PHE84       0.1605
      3  C        177.2680   35.0260   61.8300 C.2    84  PHE84       0.2264
      4  O        177.9040   34.3100   62.6030 O.2    84  PHE84      -0.2867
      5  CB       178.6940   37.0950   61.7210 C.3    84  PHE84       0.0534
      6  CG       179.0670   37.1400   60.2730 C.ar   84  PHE84      -0.0203
      7  CD1      178.3760   37.9520   59.3940 C.ar   84  PHE84      -0.0042
      8  CD2      180.1380   36.4090   59.7990 C.ar   84  PHE84      -0.0042
      9  CE1      178.7230   38.0050   58.0620 C.ar   84  PHE84      -0.0003
     10  CE2      180.4910   36.4580   58.4700 C.ar   84  PHE84      -0.0003
     11  CZ       179.7820   37.2590   57.6020 C.ar   84  PHE84      -0.0000
     12  N        178.0730   32.6600   58.8920 N.3    86  PRO86      -0.2116
     13  CA       178.6000   32.2040   57.6040 C.3    86  PRO86       0.1372
     14  C        178.6690   30.6850   57.5880 C.2    86  PRO86       0.2244
     15  O        178.7000   30.0990   58.6660 O.2    86  PRO86      -0.2868
     16  CB       180.0000   32.8090   57.5870 C.3    86  PRO86       0.0268
     17  CG       180.3930   32.7490   59.0120 C.3    86  PRO86       0.0207
     18  CD       179.1540   33.2110   59.7280 C.3    86  PRO86       0.0892
     19  N        180.9250   28.5900   57.2070 N.3    88  TRP88      -0.1227
     20  CA       182.0420   28.0910   58.0070 C.3    88  TRP88       0.1737
     21  C        181.8720   28.3010   59.5220 C.2    88  TRP88       0.2595
     22  O        182.8470   28.2530   60.2720 O.2    88  TRP88      -0.2718
     23  CB       183.3590   28.7270   57.5420 C.3    88  TRP88       0.0564
     24  CG       183.4180   30.2250   57.6570 C.ar   88  TRP88       0.0003
     25  CD1      183.6600   30.9510   58.7870 C.ar   88  TRP88       0.0946
     26  CD2      183.2580   31.1760   56.5970 C.ar   88  TRP88       0.0152
     27  NE1      183.6500   32.2940   58.4990 N.ar   88  TRP88      -0.2442
     28  CE2      183.4060   32.4590   57.1610 C.ar   88  TRP88       0.0810
     29  CE3      182.9990   31.0680   55.2270 C.ar   88  TRP88       0.0012
     30  CZ2      183.3010   33.6250   56.4040 C.ar   88  TRP88       0.0191
     31  CZ3      182.8960   32.2250   54.4790 C.ar   88  TRP88       0.0001
     32  CH2      183.0470   33.4860   55.0690 C.ar   88  TRP88       0.0015
     33  N        180.6390   28.5250   59.9660 N.am   89  GLU89      -0.1979
     34  CA       180.3440   28.7460   61.3780 C.3    89  GLU89       0.1602
     35  C        179.4470   27.6150   61.8400 C.2    89  GLU89       0.2287
     36  O        178.9900   27.5840   62.9810 O.2    89  GLU89      -0.2864
     37  CB       179.6120   30.0790   61.5550 C.3    89  GLU89       0.0415
     38  CG       179.5230   30.6080   62.9790 C.3    89  GLU89       0.1163
     39  CD       180.7840   31.3030   63.4440 C.2    89  GLU89       0.3649
     40  OE1      180.6980   32.0610   64.4310 O.co2  89  GLU89      -0.2457
     41  OE2      181.8510   31.1110   62.8240 O.co2  89  GLU89      -0.2457
     42  N        172.9490   39.8960   52.8400 N.3   108  PHE108     -0.1241
     43  CA       174.2370   40.5830   52.8410 C.3   108  PHE108      0.1605
     44  C        174.7960   40.8040   51.4370 C.2   108  PHE108      0.2264
     45  O        175.2170   41.9110   51.1050 O.2   108  PHE108     -0.2867
     46  CB       175.2470   39.8270   53.7020 C.3   108  PHE108      0.0534
     47  CG       174.9100   39.8260   55.1660 C.ar  108  PHE108     -0.0203
     48  CD1      174.3980   40.9630   55.7680 C.ar  108  PHE108     -0.0042
     49  CD2      175.1130   38.6960   55.9410 C.ar  108  PHE108     -0.0042
     50  CE1      174.0880   40.9730   57.1150 C.ar  108  PHE108     -0.0003
     51  CE2      174.8050   38.7000   57.2900 C.ar  108  PHE108     -0.0003
     52  CZ       174.2910   39.8410   57.8780 C.ar  108  PHE108     -0.0000
     53  N        172.2430   43.3520   49.4150 N.3   111  LEU111     -0.1231
     54  CA       172.4060   44.7200   49.9040 C.3   111  LEU111      0.1693
     55  C        173.7420   45.3060   49.4620 C.2   111  LEU111      0.2591
     56  O        173.8330   46.4810   49.1080 O.2   111  LEU111     -0.2718
     57  CB       172.3070   44.7480   51.4300 C.3   111  LEU111      0.0284
     58  CG       170.9000   44.6680   52.0220 C.3   111  LEU111      0.0019
     59  CD1      170.9580   44.5200   53.5360 C.3   111  LEU111      0.0001
     60  CD2      170.0740   45.8820   51.6240 C.3   111  LEU111      0.0001
     61  N        174.7750   44.4700   49.4920 N.am  112  LEU112     -0.1980
     62  CA       176.1100   44.8610   49.0630 C.3   112  LEU112      0.1596
     63  C        176.0670   45.2290   47.5820 C.2   112  LEU112      0.2287
     64  O        176.3600   46.3640   47.2060 O.2   112  LEU112     -0.2864
     65  CB       177.0810   43.7020   49.2900 C.3   112  LEU112      0.0297
     66  CG       178.5640   44.0380   49.4410 C.3   112  LEU112      0.0022
     67  CD1      178.7720   44.9500   50.6350 C.3   112  LEU112      0.0001
     68  CD2      179.3670   42.7650   49.6140 C.3   112  LEU112      0.0001
     69  N        173.9860   48.1250   46.3970 N.3   115  SER115     -0.1217
     70  CA       174.6010   49.4050   46.7220 C.3   115  SER115      0.1889
     71  C        175.5450   49.7640   45.5890 C.2   115  SER115      0.2288
     72  O        175.5150   50.8760   45.0720 O.2   115  SER115     -0.2866
     73  CB       175.3810   49.3050   48.0310 C.3   115  SER115      0.2089
     74  OG       174.5380   48.9080   49.0970 O.3   115  SER115     -0.2183
     75  N        167.3660   48.2680   52.5210 N.3   146  PHE146     -0.1241
     76  CA       168.2610   48.4030   53.6670 C.3   146  PHE146      0.1605
     77  C        167.4700   48.4680   54.9680 C.2   146  PHE146      0.2264
     78  O        167.7760   47.7660   55.9310 O.2   146  PHE146     -0.2867
     79  CB       169.1270   49.6570   53.5240 C.3   146  PHE146      0.0534
     80  CG       170.5260   49.3790   53.0550 C.ar  146  PHE146     -0.0203
     81  CD1      171.5310   49.0900   53.9650 C.ar  146  PHE146     -0.0042
     82  CD2      170.8370   49.4060   51.7060 C.ar  146  PHE146     -0.0042
     83  CE1      172.8190   48.8350   53.5380 C.ar  146  PHE146     -0.0003
     84  CE2      172.1230   49.1500   51.2740 C.ar  146  PHE146     -0.0003
     85  CZ       173.1150   48.8640   52.1910 C.ar  146  PHE146     -0.0000
     86  N        168.0260   45.2290   56.9860 N.3   150  LEU150     -0.1245
     87  CA       169.1620   45.3960   57.8830 C.3   150  LEU150      0.1561
     88  C        168.9200   46.3460   59.0510 C.2   150  LEU150      0.2260
     89  O        169.2440   46.0160   60.1900 O.2   150  LEU150     -0.2867
     90  CB       170.3780   45.8720   57.0890 C.3   150  LEU150      0.0270
     91  CG       171.5820   46.3310   57.9120 C.3   150  LEU150      0.0019
     92  CD1      172.3710   45.1300   58.4030 C.3   150  LEU150      0.0001
     93  CD2      172.4640   47.2800   57.1130 C.3   150  LEU150      0.0001
@<TRIPOS>BOND
     1    72    71    2
     2    71    70    1
     3    69    70    1
     4    70    73    1
     5    64    63    2
     6    63    62    1
     7    73    74    1
     8    62    65    1
     9    62    61    1
    10    56    55    2
    11    65    66    1
    12    53    54    1
    13    66    68    1
    14    66    67    1
    15    55    61   am
    16    55    54    1
    17    54    57    1
    18    45    44    2
    19    84    82   ar
    20    84    85   ar
    21    57    58    1
    22    44    43    1
    23    60    58    1
    24    82    80   ar
    25    58    59    1
    26    85    83   ar
    27    75    76    1
    28    42    43    1
    29    43    46    1
    30    80    79    1
    31    80    81   ar
    32    79    76    1
    33    83    81   ar
    34    76    77    1
    35    46    47    1
    36    31    32   ar
    37    31    29   ar
    38    77    78    2
    39    32    30   ar
    40    47    48   ar
    41    47    49   ar
    42    29    26   ar
    43    48    50   ar
    44    49    51   ar
    45    30    28   ar
    46    26    28   ar
    47    26    24   ar
    48    86    87    1
    49    90    87    1
    50    90    91    1
    51    93    91    1
    52    50    52   ar
    53    28    27   ar
    54    19    20    1
    55    51    52   ar
    56    23    24    1
    57    23    20    1
    58    16    13    1
    59    16    17    1
    60    14    13    1
    61    14    15    2
    62    11     9   ar
    63    11    10   ar
    64    13    12    1
    65    24    25   ar
    66    87    88    1
    67    91    92    1
    68    20    21    1
    69     9     7   ar
    70    10     8   ar
    71    27    25   ar
    72    12    18    1
    73    17    18    1
    74    88    89    2
    75     7     6   ar
    76    21    33   am
    77    21    22    2
    78     8     6   ar
    79    33    34    1
    80     6     5    1
    81    34    37    1
    82    34    35    1
    83    37    38    1
    84     5     2    1
    85     3     2    1
    86     3     4    2
    87    35    36    2
    88     2     1    1
    89    41    39   ar
    90    38    39    1
    91    39    40   ar
