@<TRIPOS>MOLECULE
tmp/4fbzA02.pdb
 99 94 0 0 0
SMALL
GASTEIGER

@<TRIPOS>ATOM
      1  N         56.7170   22.4700   56.3260 N.3   104  ARG104     -0.1231
      2  CA        57.1080   23.1320   55.0820 C.3   104  ARG104      0.1694
      3  C         58.0790   22.3810   54.1770 C.2   104  ARG104      0.2592
      4  O         58.0280   22.5420   52.9510 O.2   104  ARG104     -0.2718
      5  CB        57.6400   24.5440   55.3700 C.3   104  ARG104      0.0321
      6  CG        58.7370   24.6070   56.4220 C.3   104  ARG104      0.0489
      7  CD        60.1450   24.5530   55.8140 C.3   104  ARG104      0.2205
      8  NE        60.7090   25.8860   55.5850 N.pl3 104  ARG104     -0.0865
      9  CZ        61.0050   26.7490   56.5570 C.cat 104  ARG104      0.5346
     10  NH1       60.7890   26.4210   57.8260 N.pl3 104  ARG104      0.1354
     11  NH2       61.5190   27.9400   56.2630 N.pl3 104  ARG104      0.1354
     12  N         58.9510   21.5560   54.7510 N.am  105  ASN105     -0.1974
     13  CA        59.9010   20.8190   53.9240 C.3   105  ASN105      0.1688
     14  C         59.1870   19.7970   53.0510 C.2   105  ASN105      0.2292
     15  O         59.5230   19.6240   51.8790 O.2   105  ASN105     -0.2864
     16  CB        60.9520   20.1080   54.7830 C.3   105  ASN105      0.1181
     17  CG        61.9440   21.0720   55.4200 C.2   105  ASN105      0.2629
     18  OD1       62.1050   22.2200   54.9730 O.2   105  ASN105     -0.2716
     19  ND2       62.6290   20.6030   56.4630 N.am  105  ASN105     -0.0877
     20  N         56.9470   21.6960   50.6230 N.3   108  ALA108     -0.1231
     21  CA        57.7820   22.3360   49.6110 C.3   108  ALA108      0.1694
     22  C         58.2930   21.2940   48.6130 C.2   108  ALA108      0.2592
     23  O         58.3980   21.5710   47.4170 O.2   108  ALA108     -0.2718
     24  CB        58.9490   23.0540   50.2710 C.3   108  ALA108      0.0304
     25  N         58.6070   20.0970   49.1100 N.am  109  THR109     -0.1953
     26  CA        59.0900   19.0200   48.2560 C.3   109  THR109      0.1897
     27  C         57.9790   18.6330   47.2840 C.2   109  THR109      0.2313
     28  O         58.2010   18.5380   46.0680 O.2   109  THR109     -0.2863
     29  CB        59.5000   17.7900   49.0870 C.3   109  THR109      0.1794
     30  OG1       60.6190   18.1300   49.9150 O.3   109  THR109     -0.2208
     31  CG2       59.8930   16.6370   48.1810 C.3   109  THR109      0.0378
     32  N         55.3300   20.3930   46.2940 N.3   111  ILE111     -0.1231
     33  CA        55.1480   21.4660   45.3130 C.3   111  ILE111      0.1692
     34  C         56.2620   21.4600   44.2570 C.2   111  ILE111      0.2592
     35  O         55.9870   21.5660   43.0580 O.2   111  ILE111     -0.2718
     36  CB        55.1540   22.8550   45.9680 C.3   111  ILE111      0.0266
     37  CG1       54.1520   22.9040   47.1270 C.3   111  ILE111      0.0019
     38  CG2       54.8460   23.9260   44.9190 C.3   111  ILE111      0.0020
     39  CD1       52.7290   22.5820   46.7500 C.3   111  ILE111      0.0001
     40  N         57.5090   21.3340   44.7140 N.am  112  GLY112     -0.1957
     41  CA        58.6490   21.3180   43.8160 C.3   112  GLY112      0.1869
     42  C         58.6020   20.1830   42.8140 C.2   112  GLY112      0.2309
     43  O         58.8390   20.3910   41.6240 O.2   112  GLY112     -0.2863
     44  N         55.6150   20.8290   40.2340 N.3   115  VAL115     -0.1231
     45  CA        55.8920   21.8300   39.2160 C.3   115  VAL115      0.1692
     46  C         56.8840   21.2900   38.1900 C.2   115  VAL115      0.2592
     47  O         56.7870   21.5840   36.9880 O.2   115  VAL115     -0.2718
     48  CB        56.4570   23.1190   39.8560 C.3   115  VAL115      0.0266
     49  CG1       56.9660   24.0780   38.7730 C.3   115  VAL115      0.0020
     50  CG2       55.3740   23.7850   40.6910 C.3   115  VAL115      0.0020
     51  N         57.8410   20.5000   38.6660 N.am  116  PHE116     -0.1976
     52  CA        58.8390   19.9180   37.7780 C.3   116  PHE116      0.1639
     53  C         58.1040   18.9670   36.8330 C.2   116  PHE116      0.2290
     54  O         58.3950   18.9170   35.6260 O.2   116  PHE116     -0.2864
     55  CB        59.9000   19.1790   38.6040 C.3   116  PHE116      0.0560
     56  CG        60.9550   18.5050   37.7770 C.ar  116  PHE116     -0.0200
     57  CD1       60.8310   17.1610   37.4260 C.ar  116  PHE116     -0.0042
     58  CD2       62.0440   19.2270   37.3000 C.ar  116  PHE116     -0.0042
     59  CE1       61.7760   16.5460   36.6030 C.ar  116  PHE116     -0.0003
     60  CE2       62.9930   18.6240   36.4790 C.ar  116  PHE116     -0.0003
     61  CZ        62.8570   17.2810   36.1290 C.ar  116  PHE116     -0.0000
     62  N         56.0410   20.9770   34.3040 N.3   119  GLY119     -0.1210
     63  CA        56.9840   21.6550   33.4340 C.3   119  GLY119      0.1956
     64  C         57.6100   20.7230   32.4100 C.2   119  GLY119      0.2612
     65  O         57.6790   21.0420   31.2190 O.2   119  GLY119     -0.2717
     66  N         58.0870   19.5670   32.8600 N.am  120  THR120     -0.1952
     67  CA        58.6850   18.6280   31.9300 C.3   120  THR120      0.1897
     68  C         57.5520   18.0390   31.1010 C.2   120  THR120      0.2313
     69  O         57.7570   17.5830   29.9730 O.2   120  THR120     -0.2863
     70  CB        59.4350   17.5170   32.6660 C.3   120  THR120      0.1794
     71  OG1       58.5400   16.8190   33.5400 O.3   120  THR120     -0.2208
     72  CG2       60.5650   18.1100   33.4760 C.3   120  THR120      0.0378
     73  N         54.9100   19.7400   29.8980 N.3   122  MET122     -0.1230
     74  CA        54.6070   20.5690   28.7410 C.3   122  MET122      0.1702
     75  C         55.7610   20.5680   27.7440 C.2   122  MET122      0.2592
     76  O         55.5580   20.7720   26.5400 O.2   122  MET122     -0.2718
     77  CB        54.2110   21.9920   29.1550 C.3   122  MET122      0.0401
     78  CG        55.3150   22.9810   29.3850 C.3   122  MET122      0.0596
     79  SD        54.5610   24.6160   29.7310 S.3   122  MET122     -0.1393
     80  CE        54.0280   24.3990   31.4570 C.3   122  MET122      0.0692
     81  N         56.9710   20.3140   28.2290 N.am  123  ILE123     -0.1980
     82  CA        58.1080   20.2420   27.3210 C.3   123  ILE123      0.1595
     83  C         57.7920   19.0620   26.4090 C.2   123  ILE123      0.2287
     84  O         57.8480   19.1860   25.1920 O.2   123  ILE123     -0.2864
     85  CB        59.4350   19.9730   28.0710 C.3   123  ILE123      0.0276
     86  CG1       59.8470   21.2160   28.8670 C.3   123  ILE123      0.0022
     87  CG2       60.5280   19.5750   27.0820 C.3   123  ILE123      0.0022
     88  CD1       61.0570   20.9900   29.7740 C.3   123  ILE123      0.0001
     89  N         55.5020   19.5650   23.6670 N.3   126  PHE126     -0.1241
     90  CA        56.0320   20.3340   22.5410 C.3   126  PHE126      0.1605
     91  C         57.3060   19.7790   21.9000 C.2   126  PHE126      0.2264
     92  O         57.7730   20.3130   20.8940 O.2   126  PHE126     -0.2867
     93  CB        56.2910   21.7890   22.9520 C.3   126  PHE126      0.0534
     94  CG        55.0450   22.6060   23.1390 C.ar  126  PHE126     -0.0203
     95  CD1       54.3240   22.5420   24.3290 C.ar  126  PHE126     -0.0042
     96  CD2       54.5960   23.4550   22.1220 C.ar  126  PHE126     -0.0042
     97  CE1       53.1740   23.3140   24.5070 C.ar  126  PHE126     -0.0003
     98  CE2       53.4490   24.2310   22.2870 C.ar  126  PHE126     -0.0003
     99  CZ        52.7350   24.1610   23.4840 C.ar  126  PHE126     -0.0000
@<TRIPOS>BOND
     1    92    91    2
     2    91    90    1
     3    96    98   ar
     4    96    94   ar
     5    98    99   ar
     6    90    93    1
     7    90    89    1
     8    93    94    1
     9    94    95   ar
    10    99    97   ar
    11    95    97   ar
    12    84    83    2
    13    83    82    1
    14    76    75    2
    15    87    85    1
    16    82    85    1
    17    82    81    1
    18    75    81   am
    19    75    74    1
    20    85    86    1
    21    74    77    1
    22    74    73    1
    23    86    88    1
    24    77    78    1
    25    78    79    1
    26    79    80    1
    27    69    68    2
    28    68    67    1
    29    65    64    2
    30    67    70    1
    31    67    66    1
    32    64    66   am
    33    64    63    1
    34    70    72    1
    35    70    71    1
    36    63    62    1
    37    54    53    2
    38    61    60   ar
    39    61    59   ar
    40    60    58   ar
    41    59    57   ar
    42    53    52    1
    43    47    46    2
    44    58    56   ar
    45    57    56   ar
    46    56    55    1
    47    52    55    1
    48    52    51    1
    49    46    51   am
    50    46    45    1
    51    49    48    1
    52    45    48    1
    53    45    44    1
    54    48    50    1
    55    43    42    2
    56    42    41    1
    57    35    34    2
    58    41    40    1
    59    34    40   am
    60    34    33    1
    61    38    36    1
    62    33    36    1
    63    33    32    1
    64    36    37    1
    65    28    27    2
    66    39    37    1
    67    27    26    1
    68    23    22    2
    69    31    29    1
    70    26    29    1
    71    26    25    1
    72    22    25   am
    73    22    21    1
    74    29    30    1
    75    21    24    1
    76    21    20    1
    77    15    14    2
    78     4     3    2
    79    14    13    1
    80    13    12    1
    81    13    16    1
    82     3    12   am
    83     3     2    1
    84    16    17    1
    85    18    17    2
    86     2     5    1
    87     2     1    1
    88     5     6    1
    89    17    19   am
    90     8     7    1
    91     8     9    2
    92     7     6    1
    93    11     9    1
    94     9    10    1
