@<TRIPOS>MOLECULE
tmp/4fbzA04.pdb
 74 68 0 0 0
SMALL
GASTEIGER

@<TRIPOS>ATOM
      1  N         41.3980   28.7340   58.9190 N.3    37  LYS37      -0.1245
      2  CA        41.9950   27.4060   58.7680 C.3    37  LYS37       0.1561
      3  C         41.0110   26.7130   57.8580 C.2    37  LYS37       0.2260
      4  O         41.3660   26.1740   56.8060 O.2    37  LYS37      -0.2867
      5  CB        42.0450   26.6710   60.1070 C.3    37  LYS37       0.0271
      6  CG        43.3820   26.0300   60.4000 C.3    37  LYS37       0.0035
      7  CD        43.7420   24.9860   59.3540 C.3    37  LYS37       0.0206
      8  CE        45.1900   24.5150   59.5140 C.3    37  LYS37       0.1093
      9  NZ        46.1820   25.6230   59.3190 N.3    37  LYS37      -0.1314
     10  N         48.7530   21.3790   48.3230 N.3    94  LEU94      -0.1245
     11  CA        48.7140   22.2620   49.4780 C.3    94  LEU94       0.1561
     12  C         47.5730   21.7620   50.3650 C.2    94  LEU94       0.2260
     13  O         47.7590   21.5880   51.5740 O.2    94  LEU94      -0.2867
     14  CB        48.4310   23.7060   49.0720 C.3    94  LEU94       0.0270
     15  CG        49.3290   24.8040   49.6540 C.3    94  LEU94       0.0019
     16  CD1       48.5150   26.0940   49.7520 C.3    94  LEU94       0.0001
     17  CD2       49.8700   24.4130   51.0280 C.3    94  LEU94       0.0001
     18  N         48.1850   20.5650   54.1310 N.3    98  LEU98      -0.1245
     19  CA        47.5360   21.1780   55.2840 C.3    98  LEU98       0.1561
     20  C         46.6570   20.1830   56.0110 C.2    98  LEU98       0.2260
     21  O         46.5460   20.2270   57.2350 O.2    98  LEU98      -0.2867
     22  CB        46.6970   22.3800   54.8490 C.3    98  LEU98       0.0270
     23  CG        47.3460   23.7720   54.8550 C.3    98  LEU98       0.0019
     24  CD1       48.8400   23.7040   54.5640 C.3    98  LEU98       0.0001
     25  CD2       46.6270   24.6380   53.8300 C.3    98  LEU98       0.0001
     26  N         48.8350   17.7860   58.0690 N.3   101  GLY101     -0.1210
     27  CA        49.5790   18.3850   59.1620 C.3   101  GLY101      0.1956
     28  C         51.0770   18.3300   58.8850 C.2   101  GLY101      0.2612
     29  O         51.8910   18.3040   59.8060 O.2   101  GLY101     -0.2717
     30  N         51.4310   18.3230   57.6000 N.am  102  ALA102     -0.1965
     31  CA        52.8150   18.2660   57.1280 C.3   102  ALA102      0.1728
     32  C         53.5800   19.5620   57.3690 C.2   102  ALA102      0.2616
     33  O         52.9720   20.6250   57.4670 O.2   102  ALA102     -0.2715
     34  CB        52.8200   17.9460   55.6360 C.3   102  ALA102      0.0334
     35  N         54.9100   19.4790   57.4510 N.am  103  ASN103     -0.1958
     36  CA        55.7210   20.6770   57.6550 C.3   103  ASN103      0.1819
     37  C         56.1540   21.2640   56.3130 C.2   103  ASN103      0.2621
     38  O         55.9850   20.6250   55.2720 O.2   103  ASN103     -0.2715
     39  CB        56.9310   20.3760   58.5470 C.3   103  ASN103      0.1195
     40  CG        57.8780   19.3550   57.9530 C.2   103  ASN103      0.2630
     41  OD1       58.3330   18.4510   58.6570 O.2   103  ASN103     -0.2716
     42  ND2       58.2090   19.5030   56.6660 N.am  103  ASN103     -0.0877
     43  N         56.7170   22.4700   56.3260 N.am  104  ARG104     -0.1977
     44  CA        57.1080   23.1320   55.0820 C.3   104  ARG104      0.1597
     45  C         58.0790   22.3810   54.1770 C.2   104  ARG104      0.2287
     46  O         58.0280   22.5420   52.9510 O.2   104  ARG104     -0.2864
     47  CB        57.6400   24.5440   55.3700 C.3   104  ARG104      0.0334
     48  CG        58.7370   24.6070   56.4220 C.3   104  ARG104      0.0492
     49  CD        60.1450   24.5530   55.8140 C.3   104  ARG104      0.2205
     50  NE        60.7090   25.8860   55.5850 N.pl3 104  ARG104     -0.0865
     51  CZ        61.0050   26.7490   56.5570 C.cat 104  ARG104      0.5346
     52  NH1       60.7890   26.4210   57.8260 N.pl3 104  ARG104      0.1354
     53  NH2       61.5190   27.9400   56.2630 N.pl3 104  ARG104      0.1354
     54  N         55.8270   19.8240   52.3180 N.3   107  ILE107     -0.1231
     55  CA        54.9510   20.5380   51.4080 C.3   107  ILE107      0.1692
     56  C         55.7620   21.1950   50.2960 C.2   107  ILE107      0.2591
     57  O         55.3270   21.2370   49.1520 O.2   107  ILE107     -0.2718
     58  CB        54.1040   21.5920   52.1620 C.3   107  ILE107      0.0266
     59  CG1       53.1300   20.8820   53.1080 C.3   107  ILE107      0.0019
     60  CG2       53.3350   22.4580   51.1700 C.3   107  ILE107      0.0020
     61  CD1       52.2630   21.8180   53.9440 C.3   107  ILE107      0.0001
     62  N         56.9470   21.6960   50.6230 N.am  108  ALA108     -0.1980
     63  CA        57.7820   22.3360   49.6110 C.3   108  ALA108      0.1597
     64  C         58.2930   21.2940   48.6130 C.2   108  ALA108      0.2287
     65  O         58.3980   21.5710   47.4170 O.2   108  ALA108     -0.2864
     66  CB        58.9490   23.0540   50.2710 C.3   108  ALA108      0.0319
     67  N         55.3300   20.3930   46.2940 N.3   111  ILE111     -0.1245
     68  CA        55.1480   21.4660   45.3130 C.3   111  ILE111      0.1561
     69  C         56.2620   21.4600   44.2570 C.2   111  ILE111      0.2260
     70  O         55.9870   21.5660   43.0580 O.2   111  ILE111     -0.2867
     71  CB        55.1540   22.8550   45.9680 C.3   111  ILE111      0.0252
     72  CG1       54.1520   22.9040   47.1270 C.3   111  ILE111      0.0019
     73  CG2       54.8460   23.9260   44.9190 C.3   111  ILE111      0.0019
     74  CD1       52.7290   22.5820   46.7500 C.3   111  ILE111      0.0001
@<TRIPOS>BOND
     1    70    69    2
     2    69    68    1
     3    73    71    1
     4    68    71    1
     5    68    67    1
     6    71    72    1
     7    74    72    1
     8    65    64    2
     9    10    11    1
    10    64    63    1
    11    14    11    1
    12    14    15    1
    13    57    56    2
    14    11    12    1
    15    63    66    1
    16    63    62    1
    17    15    16    1
    18    15    17    1
    19    56    62   am
    20    56    55    1
    21    12    13    2
    22    60    58    1
    23    55    58    1
    24    55    54    1
    25    58    59    1
    26    46    45    2
    27    59    61    1
    28    25    23    1
    29    18    19    1
    30    45    44    1
    31    24    23    1
    32    22    23    1
    33    22    19    1
    34    44    47    1
    35    44    43    1
    36    38    37    2
    37    19    20    1
    38    47    48    1
    39    50    49    1
    40    50    51    2
    41    34    31    1
    42    49    48    1
    43    20    21    2
    44    53    51    1
    45    37    43   am
    46    37    36    1
    47    51    52    1
    48    42    40   am
    49     4     3    2
    50    31    32    1
    51    31    30    1
    52    32    35   am
    53    32    33    2
    54    35    36    1
    55    30    28   am
    56    36    39    1
    57     3     2    1
    58    40    39    1
    59    40    41    2
    60    26    27    1
    61     2     1    1
    62     2     5    1
    63    28    27    1
    64    28    29    2
    65     9     8    1
    66     7     8    1
    67     7     6    1
    68     5     6    1
