@<TRIPOS>MOLECULE
tmp/4fbzA01.pdb
 105 101 0 0 0
SMALL
GASTEIGER

@<TRIPOS>ATOM
      1  N         32.8320   25.9280   41.4070 N.3    23  THR23      -0.1218
      2  CA        33.2890   27.1790   41.9850 C.3    23  THR23       0.1862
      3  C         32.1720   27.8750   42.7490 C.2    23  THR23       0.2287
      4  O         32.3390   28.2280   43.9160 O.2    23  THR23      -0.2866
      5  CB        33.7970   28.1380   40.8930 C.3    23  THR23       0.1770
      6  OG1       34.9860   27.6000   40.3020 O.3    23  THR23      -0.2211
      7  CG2       34.0910   29.5080   41.4840 C.3    23  THR23       0.0375
      8  N         31.3700   26.0850   45.8900 N.3    26  PHE26      -0.1227
      9  CA        32.3400   26.3420   46.9540 C.3    26  PHE26       0.1736
     10  C         32.2870   27.7680   47.4930 C.2    26  PHE26       0.2595
     11  O         32.5440   27.9920   48.6760 O.2    26  PHE26      -0.2718
     12  CB        33.7550   26.0000   46.4780 C.3    26  PHE26       0.0547
     13  CG        33.9660   24.5290   46.2410 C.ar   26  PHE26      -0.0202
     14  CD1       33.5240   23.5920   47.1780 C.ar   26  PHE26      -0.0042
     15  CD2       34.5980   24.0730   45.0880 C.ar   26  PHE26      -0.0042
     16  CE1       33.7080   22.2220   46.9680 C.ar   26  PHE26      -0.0003
     17  CE2       34.7880   22.7100   44.8660 C.ar   26  PHE26      -0.0003
     18  CZ        34.3400   21.7790   45.8100 C.ar   26  PHE26      -0.0000
     19  N         31.9590   28.7290   46.6370 N.am   27  VAL27      -0.1980
     20  CA        31.8580   30.1170   47.0800 C.3    27  VAL27       0.1595
     21  C         30.6970   30.2490   48.0650 C.2    27  VAL27       0.2287
     22  O         30.8400   30.8480   49.1300 O.2    27  VAL27      -0.2864
     23  CB        31.6130   31.0760   45.8970 C.3    27  VAL27       0.0276
     24  CG1       31.2940   32.4690   46.4160 C.3    27  VAL27       0.0022
     25  CG2       32.8500   31.1210   45.0000 C.3    27  VAL27       0.0022
     26  N         31.3510   28.2410   51.1780 N.3    30  GLY30      -0.1210
     27  CA        32.3290   28.8640   52.0530 C.3    30  GLY30       0.1956
     28  C         31.8000   30.0860   52.7780 C.2    30  GLY30       0.2612
     29  O         32.4670   30.6330   53.6610 O.2    30  GLY30      -0.2717
     30  N         30.5970   30.5120   52.4010 N.am   31  ARG31      -0.1965
     31  CA        29.9430   31.6750   53.0060 C.3    31  ARG31       0.1729
     32  C         29.6400   31.4520   54.4830 C.2    31  ARG31       0.2617
     33  O         28.9000   30.5320   54.8380 O.2    31  ARG31      -0.2715
     34  CB        28.6320   31.9820   52.2690 C.3    31  ARG31       0.0348
     35  CG        28.6590   33.2190   51.3740 C.3    31  ARG31       0.0492
     36  CD        29.8790   33.2370   50.4710 C.3    31  ARG31       0.2205
     37  NE        31.0640   33.7230   51.1730 N.pl3  31  ARG31      -0.0865
     38  CZ        32.3080   33.6240   50.7130 C.cat  31  ARG31       0.5346
     39  NH1       32.5500   33.0440   49.5440 N.pl3  31  ARG31       0.1354
     40  NH2       33.3130   34.1260   51.4150 N.pl3  31  ARG31       0.1354
     41  N         30.2140   32.2890   55.3420 N.am   32  GLY32      -0.1940
     42  CA        29.9550   32.1640   56.7660 C.3    32  GLY32       0.2014
     43  C         31.0360   31.5130   57.6100 C.2    32  GLY32       0.2638
     44  O         30.9010   31.4320   58.8330 O.2    32  GLY32      -0.2714
     45  N         32.1060   31.0460   56.9780 N.am   33  VAL33      -0.1977
     46  CA        33.1860   30.4110   57.7200 C.3    33  VAL33       0.1596
     47  C         34.1160   31.4730   58.2970 C.2    33  VAL33       0.2287
     48  O         34.7150   32.2520   57.5510 O.2    33  VAL33      -0.2864
     49  CB        34.0020   29.4680   56.8160 C.3    33  VAL33       0.0276
     50  CG1       35.0670   28.7660   57.6320 C.3    33  VAL33       0.0022
     51  CG2       33.0810   28.4520   56.1550 C.3    33  VAL33       0.0022
     52  N         38.8230   28.2950   56.3520 N.3    39  GLN39      -0.1245
     53  CA        38.8860   29.2100   55.2250 C.3    39  GLN39       0.1566
     54  C         39.9870   28.8690   54.2280 C.2    39  GLN39       0.2260
     55  O         39.7720   28.9310   53.0200 O.2    39  GLN39      -0.2867
     56  CB        39.1240   30.6230   55.7240 C.3    39  GLN39       0.0367
     57  CG        37.9970   31.2350   56.5110 C.3    39  GLN39       0.0905
     58  CD        38.3930   32.5960   57.0500 C.2    39  GLN39       0.2608
     59  OE1       39.2100   33.2970   56.4470 O.2    39  GLN39      -0.2717
     60  NE2       37.8160   32.9810   58.1840 N.am   39  GLN39      -0.0878
     61  N         38.8520   26.4830   51.8260 N.3    42  TYR42      -0.1227
     62  CA        37.9040   27.0410   50.8670 C.3    42  TYR42       0.1736
     63  C         38.5710   27.9280   49.8080 C.2    42  TYR42       0.2595
     64  O         38.2250   27.8570   48.6250 O.2    42  TYR42      -0.2718
     65  CB        36.8100   27.8100   51.6070 C.3    42  TYR42       0.0548
     66  CG        35.6870   26.9030   52.0580 C.ar   42  TYR42      -0.0200
     67  CD1       34.7650   26.3930   51.1330 C.ar   42  TYR42      -0.0009
     68  CD2       35.5760   26.5000   53.3880 C.ar   42  TYR42      -0.0009
     69  CE1       33.7610   25.4980   51.5260 C.ar   42  TYR42       0.0417
     70  CE2       34.5770   25.6040   53.7900 C.ar   42  TYR42       0.0417
     71  CZ        33.6770   25.1060   52.8550 C.ar   42  TYR42       0.1957
     72  OH        32.7060   24.2100   53.2470 O.3    42  TYR42      -0.2866
     73  N         39.5350   28.7440   50.2220 N.am   43  ILE43      -0.1980
     74  CA        40.2350   29.6190   49.2880 C.3    43  ILE43       0.1595
     75  C         41.0330   28.7930   48.2840 C.2    43  ILE43       0.2287
     76  O         40.8830   28.9510   47.0680 O.2    43  ILE43      -0.2864
     77  CB        41.1890   30.5620   50.0370 C.3    43  ILE43       0.0276
     78  CG1       40.3750   31.4910   50.9360 C.3    43  ILE43       0.0022
     79  CG2       42.0310   31.3460   49.0470 C.3    43  ILE43       0.0022
     80  CD1       41.1820   32.2320   51.9470 C.3    43  ILE43       0.0001
     81  N         38.6240   26.7490   46.0590 N.3    46  THR46      -0.1203
     82  CA        37.9070   27.6110   45.1320 C.3    46  THR46       0.1994
     83  C         38.7980   28.1150   44.0070 C.2    46  THR46       0.2617
     84  O         38.3600   28.1920   42.8620 O.2    46  THR46      -0.2717
     85  CB        37.2930   28.8050   45.8520 C.3    46  THR46       0.1784
     86  OG1       36.3750   28.3300   46.8440 O.3    46  THR46      -0.2211
     87  CG2       36.5540   29.6940   44.8590 C.3    46  THR46       0.0376
     88  N         40.0440   28.4640   44.3190 N.am   47  PHE47      -0.1975
     89  CA        40.9560   28.9170   43.2800 C.3    47  PHE47       0.1639
     90  C         41.2790   27.7810   42.2940 C.2    47  PHE47       0.2290
     91  O         41.5510   28.0120   41.1160 O.2    47  PHE47      -0.2864
     92  CB        42.2370   29.4550   43.9080 C.3    47  PHE47       0.0560
     93  CG        42.1730   30.9150   44.2330 C.ar   47  PHE47      -0.0200
     94  CD1       41.9370   31.8530   43.2200 C.ar   47  PHE47      -0.0042
     95  CD2       42.3440   31.3630   45.5390 C.ar   47  PHE47      -0.0042
     96  CE1       41.8740   33.2120   43.5050 C.ar   47  PHE47      -0.0003
     97  CE2       42.2840   32.7160   45.8320 C.ar   47  PHE47      -0.0003
     98  CZ        42.0470   33.6440   44.8110 C.ar   47  PHE47      -0.0000
     99  N         38.1640   27.6910   39.7610 N.3    50  THR50      -0.1218
    100  CA        38.0090   28.8350   38.8640 C.3    50  THR50       0.1862
    101  C         39.1500   28.8720   37.8450 C.2    50  THR50       0.2287
    102  O         38.9440   29.2430   36.6840 O.2    50  THR50      -0.2866
    103  CB        37.9280   30.1850   39.6230 C.3    50  THR50       0.1770
    104  OG1       39.2030   30.8290   39.6030 O.3    50  THR50      -0.2211
    105  CG2       37.4840   29.9690   41.0580 C.3    50  THR50       0.0375
@<TRIPOS>BOND
     1   102   101    2
     2   101   100    1
     3   100   103    1
     4   100    99    1
     5   104   103    1
     6   103   105    1
     7     6     5    1
     8     5     7    1
     9     5     2    1
    10    91    90    2
    11     1     2    1
    12     2     3    1
    13    90    89    1
    14     3     4    2
    15    84    83    2
    16    94    96   ar
    17    94    93   ar
    18    89    92    1
    19    89    88    1
    20    96    98   ar
    21    92    93    1
    22    83    88   am
    23    83    82    1
    24    93    95   ar
    25    98    97   ar
    26    87    85    1
    27    17    15   ar
    28    17    18   ar
    29    25    23    1
    30    15    13   ar
    31    82    85    1
    32    82    81    1
    33    95    97   ar
    34    18    16   ar
    35    85    86    1
    36     8     9    1
    37    23    24    1
    38    23    20    1
    39    13    12    1
    40    13    14   ar
    41    12     9    1
    42    19    20    1
    43    19    10   am
    44     9    10    1
    45    16    14   ar
    46    76    75    2
    47    20    21    1
    48    10    11    2
    49    21    22    2
    50    75    74    1
    51    64    63    2
    52    79    77    1
    53    74    77    1
    54    74    73    1
    55    39    38    1
    56    63    73   am
    57    63    62    1
    58    77    78    1
    59    36    37    1
    60    36    35    1
    61    38    37    2
    62    38    40    1
    63    62    65    1
    64    62    61    1
    65    78    80    1
    66    67    69   ar
    67    67    66   ar
    68    26    27    1
    69    35    34    1
    70    69    71   ar
    71    65    66    1
    72    27    28    1
    73    66    68   ar
    74    34    31    1
    75    30    28   am
    76    30    31    1
    77    28    29    2
    78    71    72    1
    79    71    70   ar
    80    31    32    1
    81    55    54    2
    82    68    70   ar
    83    54    53    1
    84    32    33    2
    85    32    41   am
    86    53    56    1
    87    53    52    1
    88    41    42    1
    89    56    57    1
    90    51    49    1
    91    59    58    2
    92    57    58    1
    93    42    43    1
    94    49    50    1
    95    49    46    1
    96    45    43   am
    97    45    46    1
    98    58    60   am
    99    48    47    2
   100    43    44    2
   101    46    47    1
