@<TRIPOS>MOLECULE
tmp/4fbzA05.pdb
 88 80 0 0 0
SMALL
GASTEIGER

@<TRIPOS>ATOM
      1  N         31.4260   21.0650   28.6570 N.3    14  ILE14      -0.1245
      2  CA        30.9120   20.3600   29.8260 C.3    14  ILE14       0.1561
      3  C         31.9100   20.6790   30.9450 C.2    14  ILE14       0.2260
      4  O         31.5280   21.0670   32.0560 O.2    14  ILE14      -0.2867
      5  CB        30.9060   18.8170   29.6170 C.3    14  ILE14       0.0252
      6  CG1       30.2510   18.4440   28.2830 C.3    14  ILE14       0.0019
      7  CG2       30.1860   18.1440   30.7720 C.3    14  ILE14       0.0019
      8  CD1       28.8130   18.8010   28.1810 C.3    14  ILE14       0.0001
      9  N         31.6440   24.1710   32.0920 N.3    17  ILE17      -0.1231
     10  CA        30.4170   24.2630   32.8900 C.3    17  ILE17       0.1692
     11  C         30.5940   23.6550   34.2710 C.2    17  ILE17       0.2592
     12  O         30.2470   24.2760   35.2810 O.2    17  ILE17      -0.2718
     13  CB        29.2220   23.5410   32.2040 C.3    17  ILE17       0.0266
     14  CG1       28.8610   24.2440   30.8950 C.3    17  ILE17       0.0019
     15  CG2       28.0180   23.5200   33.1330 C.3    17  ILE17       0.0020
     16  CD1       28.6100   25.7230   31.0630 C.3    17  ILE17       0.0001
     17  N         31.1250   22.4370   34.3140 N.am   18  GLY18      -0.1957
     18  CA        31.3300   21.7730   35.5890 C.3    18  GLY18       0.1869
     19  C         32.2190   22.5570   36.5380 C.2    18  GLY18       0.2309
     20  O         31.8680   22.7640   37.7000 O.2    18  GLY18      -0.2863
     21  N         30.4910   25.5770   37.8670 N.3    21  LEU21      -0.1231
     22  CA        29.4900   25.1770   38.8460 C.3    21  LEU21       0.1693
     23  C         30.1180   24.7880   40.1860 C.2    21  LEU21       0.2592
     24  O         29.5870   25.1200   41.2450 O.2    21  LEU21      -0.2718
     25  CB        28.6610   24.0130   38.2990 C.3    21  LEU21       0.0284
     26  CG        27.2650   24.3960   37.8000 C.3    21  LEU21       0.0019
     27  CD1       27.3730   25.5500   36.8200 C.3    21  LEU21       0.0001
     28  CD2       26.6020   23.1930   37.1530 C.3    21  LEU21       0.0001
     29  N         31.2370   24.0740   40.1490 N.am   22  GLY22      -0.1957
     30  CA        31.8940   23.7000   41.3930 C.3    22  GLY22       0.1869
     31  C         32.3430   24.9420   42.1520 C.2    22  GLY22       0.2309
     32  O         32.2470   25.0180   43.3780 O.2    22  GLY22      -0.2863
     33  N         29.5330   26.6340   43.8410 N.3    25  TYR25      -0.1241
     34  CA        29.1510   25.7760   44.9500 C.3    25  TYR25       0.1605
     35  C         30.0610   26.0590   46.1370 C.2    25  TYR25       0.2264
     36  O         29.5900   26.2600   47.2560 O.2    25  TYR25      -0.2867
     37  CB        29.2610   24.2990   44.5530 C.3    25  TYR25       0.0534
     38  CG        28.8970   23.3550   45.6760 C.ar   25  TYR25      -0.0201
     39  CD1       27.6110   23.3560   46.2170 C.ar   25  TYR25      -0.0009
     40  CD2       29.8500   22.4900   46.2330 C.ar   25  TYR25      -0.0009
     41  CE1       27.2770   22.5290   47.2870 C.ar   25  TYR25       0.0417
     42  CE2       29.5250   21.6540   47.3070 C.ar   25  TYR25       0.0417
     43  CZ        28.2320   21.6840   47.8310 C.ar   25  TYR25       0.1957
     44  OH        27.8870   20.8950   48.9100 O.3    25  TYR25      -0.2866
     45  N         29.2560   27.7180   49.5510 N.3    29  ARG29      -0.1245
     46  CA        29.4950   26.7700   50.6210 C.3    29  ARG29       0.1563
     47  C         30.4620   27.3660   51.6490 C.2    29  ARG29       0.2260
     48  O         30.3980   27.0460   52.8390 O.2    29  ARG29      -0.2867
     49  CB        30.0740   25.4870   50.0350 C.3    29  ARG29       0.0307
     50  CG        30.0260   24.3110   50.9700 C.3    29  ARG29       0.0489
     51  CD        28.6010   23.8530   51.1960 C.3    29  ARG29       0.2205
     52  NE        28.5240   22.9740   52.3550 N.pl3  29  ARG29      -0.0865
     53  CZ        29.2090   21.8460   52.4620 C.cat  29  ARG29       0.5346
     54  NH1       30.0090   21.4670   51.4760 N.pl3  29  ARG29       0.1354
     55  NH2       29.1140   21.1090   53.5570 N.pl3  29  ARG29       0.1354
     56  N         37.4940   16.9090   36.4680 N.3   213  LEU213     -0.1245
     57  CA        36.3080   17.1290   37.2860 C.3   213  LEU213      0.1561
     58  C         36.3630   16.3510   38.5860 C.2   213  LEU213      0.2260
     59  O         36.0080   16.8690   39.6500 O.2   213  LEU213     -0.2867
     60  CB        35.0540   16.7430   36.5080 C.3   213  LEU213      0.0270
     61  CG        34.6720   17.7020   35.3750 C.3   213  LEU213      0.0019
     62  CD1       33.5160   17.0950   34.5850 C.3   213  LEU213      0.0001
     63  CD2       34.2890   19.0810   35.9400 C.3   213  LEU213      0.0001
     64  N         36.5480   19.0350   41.4760 N.3   217  VAL217     -0.1245
     65  CA        35.2350   19.2310   42.0680 C.3   217  VAL217      0.1561
     66  C         34.9380   18.0740   43.0110 C.2   217  VAL217      0.2260
     67  O         34.4630   18.2830   44.1280 O.2   217  VAL217     -0.2867
     68  CB        34.1250   19.2990   41.0140 C.3   217  VAL217      0.0252
     69  CG1       32.8140   19.6490   41.6950 C.3   217  VAL217      0.0019
     70  CG2       34.4580   20.3440   39.9650 C.3   217  VAL217      0.0019
     71  N         34.6470   18.5360   46.8650 N.3   221  VAL221     -0.1245
     72  CA        33.4110   18.1600   47.5180 C.3   221  VAL221      0.1561
     73  C         33.6300   17.2400   48.7090 C.2   221  VAL221      0.2260
     74  O         33.0050   17.4470   49.7490 O.2   221  VAL221     -0.2867
     75  CB        32.4230   17.5220   46.5130 C.3   221  VAL221      0.0252
     76  CG1       31.2540   16.8560   47.2520 C.3   221  VAL221      0.0019
     77  CG2       31.8910   18.6020   45.5820 C.3   221  VAL221      0.0019
     78  N         33.3690   18.6760   52.7180 N.3   225  ARG225     -0.1245
     79  CA        32.0850   18.1060   53.1120 C.3   225  ARG225      0.1563
     80  C         31.6710   18.5030   54.5290 C.2   225  ARG225      0.2260
     81  O         30.6110   19.0940   54.7320 O.2   225  ARG225     -0.2867
     82  CB        32.1380   16.5840   53.0020 C.3   225  ARG225      0.0307
     83  CG        30.7750   15.9130   52.9590 C.3   225  ARG225      0.0489
     84  CD        30.5560   14.9960   54.1540 C.3   225  ARG225      0.2205
     85  NE        30.1380   15.7200   55.3540 N.pl3 225  ARG225     -0.0865
     86  CZ        30.0580   15.1740   56.5650 C.cat 225  ARG225      0.5346
     87  NH1       30.3740   13.8960   56.7420 N.pl3 225  ARG225      0.1354
     88  NH2       29.6530   15.9010   57.6000 N.pl3 225  ARG225      0.1354
@<TRIPOS>BOND
     1     8     6    1
     2     6     5    1
     3     1     2    1
     4     5     2    1
     5     5     7    1
     6     2     3    1
     7    14    16    1
     8    14    13    1
     9     3     4    2
    10     9    10    1
    11    13    10    1
    12    13    15    1
    13    10    11    1
    14    11    17   am
    15    11    12    2
    16    17    18    1
    17    62    61    1
    18    61    63    1
    19    61    60    1
    20    18    19    1
    21    56    57    1
    22    60    57    1
    23    19    20    2
    24    27    26    1
    25    28    26    1
    26    57    58    1
    27    26    25    1
    28    21    22    1
    29    25    22    1
    30    58    59    2
    31    22    23    1
    32    70    68    1
    33    29    23   am
    34    29    30    1
    35    23    24    2
    36    68    69    1
    37    68    65    1
    38    30    31    1
    39    64    65    1
    40    65    66    1
    41    31    32    2
    42    66    67    2
    43    33    34    1
    44    37    34    1
    45    37    38    1
    46    34    35    1
    47    77    75    1
    48    38    39   ar
    49    38    40   ar
    50    35    36    2
    51    39    41   ar
    52    40    42   ar
    53    75    76    1
    54    75    72    1
    55    71    72    1
    56    41    43   ar
    57    42    43   ar
    58    72    73    1
    59    43    44    1
    60    73    74    2
    61    45    46    1
    62    49    46    1
    63    49    50    1
    64    46    47    1
    65    50    51    1
    66    51    52    1
    67    54    53    1
    68    47    48    2
    69    52    53    2
    70    53    55    1
    71    78    79    1
    72    83    82    1
    73    83    84    1
    74    82    79    1
    75    79    80    1
    76    84    85    1
    77    80    81    2
    78    85    86    2
    79    86    87    1
    80    86    88    1
