@<TRIPOS>MOLECULE
tmp/4fbzA00.pdb
 188 184 0 0 0
SMALL
GASTEIGER

@<TRIPOS>ATOM
      1  N         48.3120   22.5810   30.6220 N.3    82  TYR82      -0.1241
      2  CA        49.5050   22.8020   31.4410 C.3    82  TYR82       0.1605
      3  C         49.4560   24.0830   32.2630 C.2    82  TYR82       0.2264
      4  O         49.8370   24.0720   33.4330 O.2    82  TYR82      -0.2867
      5  CB        50.7510   22.7890   30.5510 C.3    82  TYR82       0.0534
      6  CG        50.7900   21.5500   29.6990 C.ar   82  TYR82      -0.0201
      7  CD1       51.0220   20.2970   30.2730 C.ar   82  TYR82      -0.0009
      8  CD2       50.4450   21.6040   28.3490 C.ar   82  TYR82      -0.0009
      9  CE1       50.8890   19.1330   29.5280 C.ar   82  TYR82       0.0417
     10  CE2       50.3100   20.4490   27.5980 C.ar   82  TYR82       0.0417
     11  CZ        50.5270   19.2150   28.1920 C.ar   82  TYR82       0.1957
     12  OH        50.3400   18.0650   27.4550 O.3    82  TYR82      -0.2866
     13  N         47.1920   23.0290   35.1470 N.3    85  TRP85      -0.1241
     14  CA        47.8570   22.1550   36.1040 C.3    85  TRP85       0.1605
     15  C         49.0260   22.8070   36.8340 C.2    85  TRP85       0.2264
     16  O         49.2450   22.5430   38.0170 O.2    85  TRP85      -0.2867
     17  CB        48.3340   20.8710   35.4130 C.3    85  TRP85       0.0550
     18  CG        47.2670   20.1690   34.6290 C.ar   85  TRP85       0.0003
     19  CD1       45.9170   20.2550   34.8210 C.ar   85  TRP85       0.0946
     20  CD2       47.4600   19.2600   33.5360 C.ar   85  TRP85       0.0152
     21  NE1       45.2570   19.4580   33.9150 N.ar   85  TRP85      -0.2442
     22  CE2       46.1800   18.8350   33.1150 C.ar   85  TRP85       0.0810
     23  CE3       48.5910   18.7620   32.8720 C.ar   85  TRP85       0.0012
     24  CZ2       45.9980   17.9330   32.0570 C.ar   85  TRP85       0.0191
     25  CZ3       48.4080   17.8610   31.8160 C.ar   85  TRP85       0.0001
     26  CH2       47.1200   17.4580   31.4250 C.ar   85  TRP85       0.0015
     27  N         46.9670   24.5860   39.6090 N.3    88  THR88      -0.1203
     28  CA        46.0100   23.7790   40.3600 C.3    88  THR88       0.1994
     29  C         46.5990   22.5480   41.0620 C.2    88  THR88       0.2618
     30  O         46.2160   22.2390   42.2030 O.2    88  THR88      -0.2717
     31  CB        44.8200   23.3470   39.4570 C.3    88  THR88       0.1784
     32  OG1       45.3100   22.6490   38.3090 O.3    88  THR88      -0.2211
     33  CG2       44.0440   24.5630   38.9770 C.3    88  THR88       0.0376
     34  N         47.5310   21.8500   40.4160 N.am   89  THR89      -0.1952
     35  CA        48.1000   20.6690   41.0560 C.3    89  THR89       0.1897
     36  C         48.8740   21.0180   42.3120 C.2    89  THR89       0.2313
     37  O         48.7700   20.3220   43.3130 O.2    89  THR89      -0.2863
     38  CB        48.9710   19.8240   40.0790 C.3    89  THR89       0.1794
     39  OG1       49.8430   20.6710   39.3200 O.3    89  THR89      -0.2208
     40  CG2       48.0740   19.0590   39.1170 C.3    89  THR89       0.0378
     41  N         46.3680   21.6140   45.0260 N.3    92  LEU92      -0.1245
     42  CA        45.7570   20.3770   45.5150 C.3    92  LEU92       0.1561
     43  C         46.6590   19.7500   46.5670 C.2    92  LEU92       0.2260
     44  O         46.1800   19.2660   47.5980 O.2    92  LEU92      -0.2867
     45  CB        45.5360   19.3850   44.3720 C.3    92  LEU92       0.0270
     46  CG        44.4270   19.7870   43.3960 C.3    92  LEU92       0.0019
     47  CD1       44.5800   19.0150   42.1050 C.3    92  LEU92       0.0001
     48  CD2       43.0650   19.5570   44.0280 C.3    92  LEU92       0.0001
     49  N         57.1360   18.2370   37.3980 N.3   117  MET117     -0.1230
     50  CA        56.2960   17.2860   36.6630 C.3   117  MET117      0.1702
     51  C         55.4950   17.9490   35.5410 C.2   117  MET117      0.2592
     52  O         55.5100   17.4760   34.4090 O.2   117  MET117     -0.2718
     53  CB        55.3320   16.5850   37.6270 C.3   117  MET117      0.0401
     54  CG        54.3530   15.6150   36.9650 C.3   117  MET117      0.0596
     55  SD        53.2980   14.8000   38.1890 S.3   117  MET117     -0.1393
     56  CE        52.0180   16.0700   38.4490 C.3   117  MET117      0.0692
     57  N         54.7790   19.0330   35.8370 N.am  118  ILE118     -0.1980
     58  CA        54.0190   19.7030   34.7840 C.3   118  ILE118      0.1595
     59  C         54.9530   20.4060   33.7970 C.2   118  ILE118      0.2287
     60  O         54.6940   20.4260   32.5950 O.2   118  ILE118     -0.2864
     61  CB        53.0040   20.7200   35.3640 C.3   118  ILE118      0.0276
     62  CG1       51.7500   19.9800   35.8320 C.3   118  ILE118      0.0022
     63  CG2       52.5840   21.7410   34.2980 C.3   118  ILE118      0.0022
     64  CD1       51.9980   19.0140   36.9280 C.3   118  ILE118      0.0001
     65  N         56.3510   18.0680   31.6760 N.3   121  GLY121     -0.1225
     66  CA        55.1760   17.5670   30.9900 C.3   121  GLY121      0.1811
     67  C         54.8510   18.4140   29.7720 C.2   121  GLY121      0.2280
     68  O         54.5480   17.8720   28.7090 O.2   121  GLY121     -0.2866
     69  N         57.4320   17.9320   27.0220 N.3   124  ALA124     -0.1245
     70  CA        57.0800   16.6990   26.3100 C.3   124  ALA124      0.1562
     71  C         55.9950   16.9460   25.2720 C.2   124  ALA124      0.2260
     72  O         56.0540   16.4230   24.1560 O.2   124  ALA124     -0.2867
     73  CB        56.5990   15.6430   27.2960 C.3   124  ALA124      0.0290
     74  N         58.1690   12.5430   28.7200 N.3   137  TRP137     -0.1241
     75  CA        57.0160   11.9220   29.3510 C.3   137  TRP137      0.1605
     76  C         57.6140   11.0660   30.4640 C.2   137  TRP137      0.2264
     77  O         57.0990   11.0260   31.5800 O.2   137  TRP137     -0.2867
     78  CB        56.2800   11.0430   28.3330 C.3   137  TRP137      0.0550
     79  CG        55.2140   10.1700   28.9180 C.ar  137  TRP137      0.0003
     80  CD1       53.9300   10.5210   29.2070 C.ar  137  TRP137      0.0946
     81  CD2       55.3540    8.7980   29.3140 C.ar  137  TRP137      0.0152
     82  NE1       53.2590    9.4580   29.7600 N.ar  137  TRP137     -0.2442
     83  CE2       54.1090    8.3860   29.8380 C.ar  137  TRP137      0.0810
     84  CE3       56.4140    7.8770   29.2760 C.ar  137  TRP137      0.0012
     85  CZ2       53.8890    7.0890   30.3240 C.ar  137  TRP137      0.0191
     86  CZ3       56.1990    6.5840   29.7590 C.ar  137  TRP137      0.0001
     87  CH2       54.9420    6.2040   30.2760 C.ar  137  TRP137      0.0015
     88  N         58.9060   13.2990   33.4350 N.3   140  SER140     -0.1202
     89  CA        57.7130   13.7480   34.1480 C.3   140  SER140      0.2020
     90  C         57.0330   12.6380   34.9480 C.2   140  SER140      0.2619
     91  O         56.6170   12.8540   36.0880 O.2   140  SER140     -0.2717
     92  CB        56.7190   14.3620   33.1630 C.3   140  SER140      0.2103
     93  OG        55.5290   14.7400   33.8210 O.3   140  SER140     -0.2182
     94  N         56.9110   11.4550   34.3550 N.am  141  THR141     -0.1952
     95  CA        56.2910   10.3370   35.0600 C.3   141  THR141      0.1897
     96  C         57.1330    9.9470   36.2720 C.2   141  THR141      0.2313
     97  O         56.5970    9.5740   37.3160 O.2   141  THR141     -0.2863
     98  CB        56.1230    9.1070   34.1430 C.3   141  THR141      0.1794
     99  OG1       55.2090    9.4240   33.0820 O.3   141  THR141     -0.2208
    100  CG2       55.5890    7.9250   34.9340 C.3   141  THR141      0.0378
    101  N         56.2310   12.1240   39.0050 N.3   144  LEU144     -0.1245
    102  CA        54.9200   11.7680   39.5370 C.3   144  LEU144      0.1561
    103  C         55.0980   10.6650   40.5750 C.2   144  LEU144      0.2260
    104  O         54.5060   10.7180   41.6630 O.2   144  LEU144     -0.2867
    105  CB        53.9850   11.2640   38.4340 C.3   144  LEU144      0.0270
    106  CG        52.6480   10.7040   38.9410 C.3   144  LEU144      0.0019
    107  CD1       51.9130   11.7600   39.7620 C.3   144  LEU144      0.0001
    108  CD2       51.8040   10.2540   37.7670 C.3   144  LEU144      0.0001
    109  N         45.5090   10.5790   39.4650 N.3   181  TRP181     -0.1241
    110  CA        46.7390   11.1320   38.9200 C.3   181  TRP181      0.1605
    111  C         47.5540   10.1570   38.0670 C.2   181  TRP181      0.2264
    112  O         48.1480   10.5570   37.0670 O.2   181  TRP181     -0.2867
    113  CB        47.5890   11.7150   40.0510 C.3   181  TRP181      0.0550
    114  CG        47.0360   13.0210   40.6200 C.ar  181  TRP181      0.0003
    115  CD1       45.7190   13.3260   40.8590 C.ar  181  TRP181      0.0946
    116  CD2       47.7930   14.1550   41.0680 C.ar  181  TRP181      0.0152
    117  NE1       45.6140   14.5730   41.4280 N.ar  181  TRP181     -0.2442
    118  CE2       46.8690   15.1050   41.5710 C.ar  181  TRP181      0.0810
    119  CE3       49.1630   14.4610   41.0980 C.ar  181  TRP181      0.0012
    120  CZ2       47.2760   16.3490   42.0970 C.ar  181  TRP181      0.0191
    121  CZ3       49.5670   15.6970   41.6210 C.ar  181  TRP181      0.0001
    122  CH2       48.6220   16.6220   42.1140 C.ar  181  TRP181      0.0015
    123  N         46.4790   10.1350   34.3220 N.3   184  TYR184     -0.1228
    124  CA        46.8350   11.2030   33.3890 C.3   184  TYR184      0.1721
    125  C         47.9320   10.7920   32.4070 C.2   184  TYR184      0.2437
    126  O         47.7660   10.9200   31.1930 O.2   184  TYR184     -0.2733
    127  CB        47.2660   12.4700   34.1400 C.3   184  TYR184      0.0547
    128  CG        46.1150   13.2840   34.6760 C.ar  184  TYR184     -0.0200
    129  CD1       45.4990   12.9550   35.8820 C.ar  184  TYR184     -0.0009
    130  CD2       45.6130   14.3580   33.9510 C.ar  184  TYR184     -0.0009
    131  CE1       44.4030   13.6800   36.3470 C.ar  184  TYR184      0.0417
    132  CE2       44.5270   15.0860   34.4060 C.ar  184  TYR184      0.0417
    133  CZ        43.9250   14.7450   35.5990 C.ar  184  TYR184      0.1957
    134  OH        42.8450   15.4830   36.0370 O.3   184  TYR184     -0.2866
    135  N         49.0700   10.2940   32.9170 N.am  185  PRO185     -0.2729
    136  CA        50.1310    9.8960   31.9880 C.3   185  PRO185      0.1401
    137  C         49.6990    8.8130   30.9940 C.2   185  PRO185      0.2269
    138  O         50.1750    8.7860   29.8530 O.2   185  PRO185     -0.2865
    139  CB        51.2620    9.4480   32.9220 C.3   185  PRO185      0.0296
    140  CG        50.5420    9.0140   34.1750 C.3   185  PRO185      0.0237
    141  CD        49.4770   10.0710   34.3170 C.3   185  PRO185      0.0939
    142  N         47.6660   10.3790   28.3010 N.3   188  TRP188     -0.1241
    143  CA        48.5640   11.1960   27.4900 C.3   188  TRP188      0.1605
    144  C         49.3420   10.3130   26.5060 C.2   188  TRP188      0.2264
    145  O         49.3340   10.5460   25.2950 O.2   188  TRP188     -0.2867
    146  CB        49.5350   11.9410   28.4140 C.3   188  TRP188      0.0550
    147  CG        50.3130   13.0550   27.7760 C.ar  188  TRP188      0.0003
    148  CD1       50.0280   14.3930   27.8280 C.ar  188  TRP188      0.0946
    149  CD2       51.5190   12.9330   27.0140 C.ar  188  TRP188      0.0152
    150  NE1       50.9860   15.1100   27.1490 N.ar  188  TRP188     -0.2442
    151  CE2       51.9110   14.2380   26.6370 C.ar  188  TRP188      0.0810
    152  CE3       52.3060   11.8460   26.6120 C.ar  188  TRP188      0.0012
    153  CZ2       53.0570   14.4870   25.8770 C.ar  188  TRP188      0.0191
    154  CZ3       53.4510   12.0910   25.8540 C.ar  188  TRP188      0.0001
    155  CH2       53.8140   13.4050   25.4940 C.ar  188  TRP188      0.0015
    156  N         40.2480   13.3160   29.9600 N.3   208  PHE208     -0.1241
    157  CA        40.8000   14.3860   30.7750 C.3   208  PHE208      0.1605
    158  C         39.6860   15.1780   31.4360 C.2   208  PHE208      0.2264
    159  O         39.8740   15.7160   32.5290 O.2   208  PHE208     -0.2867
    160  CB        41.6980   15.3220   29.9470 C.3   208  PHE208      0.0534
    161  CG        43.1050   14.8090   29.7660 C.ar  208  PHE208     -0.0203
    162  CD1       43.8180   14.3000   30.8470 C.ar  208  PHE208     -0.0042
    163  CD2       43.7180   14.8410   28.5180 C.ar  208  PHE208     -0.0042
    164  CE1       45.1210   13.8300   30.6920 C.ar  208  PHE208     -0.0003
    165  CE2       45.0280   14.3710   28.3500 C.ar  208  PHE208     -0.0003
    166  CZ        45.7300   13.8640   29.4420 C.ar  208  PHE208     -0.0000
    167  N         39.8060   15.6550   35.3730 N.3   212  ASP212     -0.1239
    168  CA        39.8640   16.9920   35.9610 C.3   212  ASP212      0.1674
    169  C         38.7010   17.2630   36.8990 C.2   212  ASP212      0.2266
    170  O         38.8980   17.7820   38.0020 O.2   212  ASP212     -0.2867
    171  CB        39.9010   18.0890   34.8890 C.3   212  ASP212      0.1410
    172  CG        41.1790   18.0710   34.0700 C.2   212  ASP212      0.3668
    173  OD1       42.1920   17.4870   34.5290 O.co2 212  ASP212     -0.2456
    174  OD2       41.1710   18.6560   32.9650 O.co2 212  ASP212     -0.2456
    175  N         39.1460   15.1250   39.9950 N.3   215  ALA215     -0.1231
    176  CA        40.3190   15.5290   40.7640 C.3   215  ALA215      0.1694
    177  C         40.2050   16.9050   41.3860 C.2   215  ALA215      0.2591
    178  O         41.0460   17.2870   42.2000 O.2   215  ALA215     -0.2718
    179  CB        41.5510   15.4620   39.8960 C.3   215  ALA215      0.0304
    180  N         39.1610   17.6460   41.0190 N.am  216  LYS216     -0.1980
    181  CA        38.9780   18.9880   41.5520 C.3   216  LYS216      0.1596
    182  C         37.6330   19.2190   42.2180 C.2   216  LYS216      0.2287
    183  O         37.5750   19.5800   43.3930 O.2   216  LYS216     -0.2864
    184  CB        39.1770   20.0060   40.4430 C.3   216  LYS216      0.0298
    185  CG        40.5650   20.0030   39.8540 C.3   216  LYS216      0.0038
    186  CD        40.5890   20.9580   38.6790 C.3   216  LYS216      0.0206
    187  CE        41.9820   21.2990   38.2320 C.3   216  LYS216      0.1093
    188  NZ        42.6300   20.2590   37.4410 N.3   216  LYS216     -0.1314
@<TRIPOS>BOND
     1    72    71    2
     2    71    70    1
     3   145   144    2
     4   155   154   ar
     5   155   153   ar
     6   154   152   ar
     7   153   151   ar
     8    70    69    1
     9    70    73    1
    10   144   143    1
    11   152   149   ar
    12   151   149   ar
    13   151   150   ar
    14   149   147   ar
    15   150   148   ar
    16    12    11    1
    17   143   142    1
    18   143   146    1
    19    10    11   ar
    20    10     8   ar
    21   147   148   ar
    22   147   146    1
    23    11     9   ar
    24    78    79    1
    25    78    75    1
    26     8     6   ar
    27   165   163   ar
    28   165   166   ar
    29   163   161   ar
    30    68    67    2
    31    74    75    1
    32    79    80   ar
    33    79    81   ar
    34    80    82   ar
    35    84    81   ar
    36    84    86   ar
    37    81    83   ar
    38    75    76    1
    39   166   164   ar
    40     9     7   ar
    41     6     7   ar
    42     6     5    1
    43    86    87   ar
    44    82    83   ar
    45   161   160    1
    46   161   162   ar
    47    67    66    1
    48    83    85   ar
    49   138   137    2
    50   160   157    1
    51   156   157    1
    52    87    85   ar
    53    76    77    2
    54     5     2    1
    55     1     2    1
    56   164   162   ar
    57   157   158    1
    58    66    65    1
    59   137   136    1
    60   126   125    2
    61    26    25   ar
    62    26    24   ar
    63   158   159    2
    64     2     3    1
    65    25    23   ar
    66   136   135    1
    67   136   139    1
    68    24    22   ar
    69     3     4    2
    70   125   135   am
    71   125   124    1
    72    60    59    2
    73    23    20   ar
    74   135   141    1
    75   139   140    1
    76   174   172   ar
    77    99    98    1
    78    22    20   ar
    79    22    21   ar
    80    92    93    1
    81    92    89    1
    82   124   127    1
    83   124   123    1
    84    88    89    1
    85    20    18   ar
    86    59    58    1
    87    21    19   ar
    88   130   132   ar
    89   130   128   ar
    90   172   173   ar
    91   172   171    1
    92   127   128    1
    93    98   100    1
    94    98    95    1
    95    89    90    1
    96   140   141    1
    97    63    61    1
    98    94    90   am
    99    94    95    1
   100   132   133   ar
   101    52    51    2
   102    18    19   ar
   103    18    17    1
   104   128   129   ar
   105    58    61    1
   106    58    57    1
   107   171   168    1
   108    90    91    2
   109    95    96    1
   110    13    14    1
   111    61    62    1
   112   167   168    1
   113    17    14    1
   114    51    57   am
   115    51    50    1
   116   133   134    1
   117   133   131   ar
   118    62    64    1
   119   129   131   ar
   120   168   169    1
   121    14    15    1
   122    96    97    2
   123    50    49    1
   124    50    53    1
   125    15    16    2
   126   169   170    2
   127    54    53    1
   128    54    55    1
   129   112   111    2
   130   188   187    1
   131   108   106    1
   132   111   110    1
   133    55    56    1
   134   187   186    1
   135    32    31    1
   136   105   106    1
   137   105   102    1
   138   186   185    1
   139   110   109    1
   140   110   113    1
   141   106   107    1
   142    33    31    1
   143   101   102    1
   144    40    38    1
   145    39    38    1
   146    31    28    1
   147   102   103    1
   148    27    28    1
   149   185   184    1
   150   179   176    1
   151   175   176    1
   152   113   114    1
   153    38    35    1
   154    28    29    1
   155    34    35    1
   156    34    29   am
   157   184   181    1
   158   103   104    2
   159   114   115   ar
   160   114   116   ar
   161   176   177    1
   162   115   117   ar
   163   180   177   am
   164   180   181    1
   165    35    36    1
   166    29    30    2
   167   116   119   ar
   168   116   118   ar
   169   119   121   ar
   170   177   178    2
   171   117   118   ar
   172   181   182    1
   173   118   120   ar
   174   121   122   ar
   175   120   122   ar
   176    47    46    1
   177   182   183    2
   178    36    37    2
   179    46    48    1
   180    46    45    1
   181    45    42    1
   182    41    42    1
   183    42    43    1
   184    43    44    2
