@<TRIPOS>MOLECULE
tmp/4fc0A00.pdb
 215 206 0 0 0
SMALL
GASTEIGER

@<TRIPOS>ATOM
      1  N         43.2110  -42.3620   17.4540 N.3    16  ILE16      -0.1245
      2  CA        42.5990  -42.8370   16.2170 C.3    16  ILE16       0.1561
      3  C         43.5270  -43.7460   15.4260 C.2    16  ILE16       0.2260
      4  O         43.0860  -44.7690   14.9030 O.2    16  ILE16      -0.2867
      5  CB        42.1850  -41.6620   15.3190 C.3    16  ILE16       0.0252
      6  CG1       41.1810  -40.7700   16.0510 C.3    16  ILE16       0.0019
      7  CG2       41.5910  -42.1700   14.0140 C.3    16  ILE16       0.0019
      8  CD1       39.9000  -41.4800   16.4680 C.3    16  ILE16       0.0001
      9  N         47.8730  -39.8670   15.5650 N.3    24  VAL24      -0.1245
     10  CA        46.7630  -38.9460   15.3720 C.3    24  VAL24       0.1561
     11  C         45.6310  -39.2130   16.3690 C.2    24  VAL24       0.2260
     12  O         45.2760  -40.3630   16.6320 O.2    24  VAL24      -0.2867
     13  CB        46.2350  -39.0130   13.9360 C.3    24  VAL24       0.0252
     14  CG1       45.6320  -40.3810   13.6450 C.3    24  VAL24       0.0019
     15  CG2       45.2260  -37.9140   13.7060 C.3    24  VAL24       0.0019
     16  N         41.0950  -33.0150   14.4160 N.3    34  ALA34      -0.1245
     17  CA        42.0730  -34.0990   14.4350 C.3    34  ALA34       0.1562
     18  C         43.4430  -33.5240   14.7840 C.2    34  ALA34       0.2260
     19  O         43.8830  -32.5490   14.1880 O.2    34  ALA34      -0.2867
     20  CB        42.1140  -34.8080   13.0880 C.3    34  ALA34       0.0290
     21  N         47.4210  -34.4430   14.9580 N.3    36  LYS36      -0.1245
     22  CA        48.5050  -35.3470   14.5900 C.3    36  LYS36       0.1561
     23  C         49.7580  -34.9100   15.3170 C.2    36  LYS36       0.2260
     24  O         50.2270  -33.7900   15.1250 O.2    36  LYS36      -0.2867
     25  CB        48.7450  -35.3180   13.0840 C.3    36  LYS36       0.0271
     26  CG        49.7870  -36.3240   12.6030 C.3    36  LYS36       0.0035
     27  CD        49.8060  -36.4750   11.0810 C.3    36  LYS36       0.0206
     28  CE        50.5660  -35.3570   10.3950 C.3    36  LYS36       0.1093
     29  NZ        50.7510  -35.6410    8.9420 N.3    36  LYS36      -0.1314
     30  N         55.2350  -29.5790    6.1150 N.3    54  GLU54      -0.1245
     31  CA        53.8240  -29.9460    6.0240 C.3    54  GLU54       0.1567
     32  C         52.9540  -28.7140    6.2540 C.2    54  GLU54       0.2260
     33  O         52.0710  -28.4110    5.4530 O.2    54  GLU54      -0.2867
     34  CB        53.4730  -31.0560    7.0140 C.3    54  GLU54       0.0388
     35  CG        52.0140  -31.5180    6.9480 C.3    54  GLU54       0.1160
     36  CD        51.7600  -32.8400    7.6860 C.2    54  GLU54       0.3649
     37  OE1       52.7070  -33.6520    7.8210 O.co2  54  GLU54      -0.2457
     38  OE2       50.6060  -33.0760    8.1210 O.co2  54  GLU54      -0.2457
     39  N         52.9120  -26.3530    3.3630 N.3    57  VAL57      -0.1231
     40  CA        52.0220  -26.7390    2.2680 C.3    57  VAL57       0.1692
     41  C         50.5790  -26.5690    2.6970 C.2    57  VAL57       0.2591
     42  O         49.7900  -25.9320    2.0050 O.2    57  VAL57      -0.2718
     43  CB        52.2660  -28.2040    1.8110 C.3    57  VAL57       0.0266
     44  CG1       51.0340  -28.7920    1.1730 C.3    57  VAL57       0.0020
     45  CG2       53.4220  -28.2580    0.8350 C.3    57  VAL57       0.0020
     46  N         50.2400  -27.1330    3.8470 N.am   58  LEU58      -0.1980
     47  CA        48.8630  -27.0960    4.3440 C.3    58  LEU58       0.1596
     48  C         48.2370  -25.6970    4.3540 C.2    58  LEU58       0.2287
     49  O         47.0600  -25.5460    4.0260 O.2    58  LEU58      -0.2864
     50  CB        48.7810  -27.7120    5.7430 C.3    58  LEU58       0.0297
     51  CG        48.4880  -29.2100    5.7660 C.3    58  LEU58       0.0022
     52  CD1       48.5680  -29.7360    7.1910 C.3    58  LEU58       0.0001
     53  CD2       47.1230  -29.5010    5.1510 C.3    58  LEU58       0.0001
     54  N         46.7090  -23.9980    1.1020 N.3    61  THR61      -0.1218
     55  CA        45.4730  -24.5520    0.5580 C.3    61  THR61       0.1862
     56  C         44.2240  -24.0480    1.2820 C.2    61  THR61       0.2287
     57  O         44.1190  -24.1590    2.4950 O.2    61  THR61      -0.2866
     58  CB        45.4720  -26.0900    0.6610 C.3    61  THR61       0.1770
     59  OG1       45.4540  -26.4770    2.0410 O.3    61  THR61      -0.2211
     60  CG2       46.6880  -26.6820   -0.0130 C.3    61  THR61       0.0375
     61  N         39.8220  -30.0120   -0.1650 N.3    66  ILE66      -0.1231
     62  CA        41.0900  -30.2770    0.4990 C.3    66  ILE66       0.1692
     63  C         40.8750  -30.2020    2.0110 C.2    66  ILE66       0.2591
     64  O         40.1930  -29.3080    2.5050 O.2    66  ILE66      -0.2718
     65  CB        42.1900  -29.2710    0.0570 C.3    66  ILE66       0.0266
     66  CG1       43.1080  -29.8740   -1.0220 C.3    66  ILE66       0.0019
     67  CG2       43.0640  -28.8770    1.2350 C.3    66  ILE66       0.0020
     68  CD1       42.4970  -29.9940   -2.3950 C.3    66  ILE66       0.0001
     69  N         41.4470  -31.1580    2.7340 N.am   67  LEU67      -0.1980
     70  CA        41.4060  -31.1800    4.1950 C.3    67  LEU67       0.1596
     71  C         41.7670  -29.8080    4.7550 C.2    67  LEU67       0.2287
     72  O         42.7560  -29.2050    4.3500 O.2    67  LEU67      -0.2864
     73  CB        42.3990  -32.2150    4.7160 C.3    67  LEU67       0.0297
     74  CG        42.3850  -32.5790    6.1930 C.3    67  LEU67       0.0022
     75  CD1       41.0880  -33.3020    6.5500 C.3    67  LEU67       0.0001
     76  CD2       43.5950  -33.4430    6.5060 C.3    67  LEU67       0.0001
     77  N         50.0090  -30.9500   14.4020 N.3    80  ILE80      -0.1245
     78  CA        49.2500  -30.2350   13.3750 C.3    80  ILE80       0.1561
     79  C         47.7790  -30.5630   13.5310 C.2    80  ILE80       0.2260
     80  O         47.3990  -31.7310   13.6440 O.2    80  ILE80      -0.2867
     81  CB        49.6880  -30.5870   11.9380 C.3    80  ILE80       0.0252
     82  CG1       51.2050  -30.4550   11.7940 C.3    80  ILE80       0.0019
     83  CG2       49.0040  -29.6700   10.9430 C.3    80  ILE80       0.0019
     84  CD1       51.7130  -30.5070   10.3520 C.3    80  ILE80       0.0001
     85  N         43.9400  -30.2770   12.0260 N.3    82  THR82      -0.1203
     86  CA        43.0910  -30.0870   10.8620 C.3    82  THR82       0.1994
     87  C         41.6380  -30.1940   11.3160 C.2    82  THR82       0.2618
     88  O         41.3720  -30.3530   12.5020 O.2    82  THR82      -0.2717
     89  CB        43.3700  -31.1640    9.7950 C.3    82  THR82       0.1784
     90  OG1       42.9030  -32.4400   10.2600 O.3    82  THR82      -0.2211
     91  CG2       44.8550  -31.2380    9.4830 C.3    82  THR82       0.0376
     92  N         40.7010  -30.1020   10.3790 N.am   83  GLN83      -0.1965
     93  CA        39.3050  -30.4230   10.6660 C.3    83  GLN83       0.1733
     94  C         39.1740  -31.9060   10.9730 C.2    83  GLN83       0.2616
     95  O         40.0260  -32.6950   10.5900 O.2    83  GLN83      -0.2715
     96  CB        38.4010  -30.0620    9.4820 C.3    83  GLN83       0.0408
     97  CG        38.6810  -30.8510    8.1930 C.3    83  GLN83       0.0908
     98  CD        37.7270  -30.4990    7.0550 C.2    83  GLN83       0.2608
     99  OE1       38.1620  -30.1330    5.9590 O.2    83  GLN83      -0.2717
    100  NE2       36.4200  -30.6110    7.3110 N.am   83  GLN83      -0.0878
    101  N         38.1070  -32.2780   11.6640 N.am   84  TRP84      -0.1960
    102  CA        37.8040  -33.6810   11.9160 C.3    84  TRP84       0.1771
    103  C         36.8440  -34.1720   10.8540 C.2    84  TRP84       0.2620
    104  O         35.7700  -33.6090   10.7020 O.2    84  TRP84      -0.2715
    105  CB        37.1650  -33.8660   13.2920 C.3    84  TRP84       0.0590
    106  CG        36.7420  -35.2820   13.5710 C.ar   84  TRP84       0.0006
    107  CD1       35.4670  -35.7680   13.5870 C.ar   84  TRP84       0.0946
    108  CD2       37.5950  -36.3930   13.8660 C.ar   84  TRP84       0.0152
    109  NE1       35.4710  -37.1100   13.8790 N.ar   84  TRP84      -0.2442
    110  CE2       36.7660  -37.5180   14.0500 C.ar   84  TRP84       0.0810
    111  CE3       38.9790  -36.5490   13.9850 C.ar   84  TRP84       0.0012
    112  CZ2       37.2740  -38.7780   14.3510 C.ar   84  TRP84       0.0191
    113  CZ3       39.4820  -37.8020   14.2850 C.ar   84  TRP84       0.0001
    114  CH2       38.6300  -38.9010   14.4590 C.ar   84  TRP84       0.0015
    115  N         37.2300  -35.2250   10.1320 N.am   85  CYS85      -0.1954
    116  CA        36.3690  -35.8270    9.1140 C.3    85  CYS85       0.1843
    117  C         35.4650  -36.9120    9.7000 C.2    85  CYS85       0.2625
    118  O         35.9470  -37.8770   10.2900 O.2    85  CYS85      -0.2714
    119  CB        37.2050  -36.4220    7.9850 C.3    85  CYS85       0.0997
    120  SG        38.3450  -35.2610    7.1780 S.3    85  CYS85      -0.0797
    121  N         34.1550  -36.7180    9.5610 N.am   86  GLU86      -0.1963
    122  CA        33.1580  -37.7180    9.9220 C.3    86  GLU86       0.1733
    123  C         32.8330  -38.5800    8.6920 C.2    86  GLU86       0.2617
    124  O         32.6640  -38.0570    7.5990 O.2    86  GLU86      -0.2715
    125  CB        31.8970  -37.0230   10.4530 C.3    86  GLU86       0.0429
    126  CG        31.1880  -37.7790   11.5920 C.3    86  GLU86       0.1163
    127  CD        31.6540  -37.3900   13.0160 C.2    86  GLU86       0.3649
    128  OE1       32.1760  -36.2650   13.2240 O.co2  86  GLU86      -0.2457
    129  OE2       31.4600  -38.2180   13.9440 O.co2  86  GLU86      -0.2457
    130  N         32.7600  -39.8980    8.8680 N.am   87  GLY87      -0.1940
    131  CA        32.5300  -40.8260    7.7490 C.3    87  GLY87       0.2014
    132  C         33.6380  -41.8570    7.5410 C.2    87  GLY87       0.2639
    133  O         34.1630  -42.4270    8.4900 O.2    87  GLY87      -0.2714
    134  N         33.9860  -42.1060    6.2870 N.am   88  SER88      -0.1949
    135  CA        34.9790  -43.1200    5.9500 C.3    88  SER88       0.1924
    136  C         35.7830  -42.6860    4.7370 C.2    88  SER88       0.2314
    137  O         35.2850  -41.9350    3.8920 O.2    88  SER88      -0.2863
    138  CB        34.2960  -44.4610    5.6370 C.3    88  SER88       0.2116
    139  OG        33.9180  -45.1660    6.8070 O.3    88  SER88      -0.2180
    140  N         45.1400  -28.0510   -6.3870 N.3   120  LEU120     -0.1245
    141  CA        46.4940  -28.2900   -5.8860 C.3   120  LEU120      0.1561
    142  C         47.5430  -28.0240   -6.9560 C.2   120  LEU120      0.2260
    143  O         48.5440  -27.3620   -6.7100 O.2   120  LEU120     -0.2867
    144  CB        46.6440  -29.7260   -5.3710 C.3   120  LEU120      0.0270
    145  CG        46.0570  -30.0570   -3.9990 C.3   120  LEU120      0.0019
    146  CD1       46.3830  -31.4950   -3.6210 C.3   120  LEU120      0.0001
    147  CD2       46.5830  -29.0990   -2.9490 C.3   120  LEU120      0.0001
    148  N         51.4540  -27.5810   -6.5500 N.3   125  ILE125     -0.1231
    149  CA        51.5750  -28.6040   -5.5190 C.3   125  ILE125      0.1692
    150  C         51.3570  -29.9660   -6.1410 C.2   125  ILE125      0.2592
    151  O         50.3190  -30.2010   -6.7520 O.2   125  ILE125     -0.2718
    152  CB        50.5360  -28.4280   -4.4020 C.3   125  ILE125      0.0266
    153  CG1       50.8110  -27.1480   -3.6100 C.3   125  ILE125      0.0019
    154  CG2       50.5530  -29.6330   -3.4810 C.3   125  ILE125      0.0020
    155  CD1       49.7210  -26.7980   -2.6120 C.3   125  ILE125      0.0001
    156  N         52.3410  -30.8480   -5.9840 N.am  126  ILE126     -0.1966
    157  CA        52.2300  -32.2470   -6.4040 C.3   126  ILE126      0.1727
    158  C         51.9720  -33.0990   -5.1610 C.2   126  ILE126      0.2616
    159  O         52.7350  -33.0340   -4.1960 O.2   126  ILE126     -0.2715
    160  CB        53.5200  -32.7350   -7.0980 C.3   126  ILE126      0.0290
    161  CG1       53.8700  -31.8350   -8.2940 C.3   126  ILE126      0.0022
    162  CG2       53.3680  -34.1830   -7.5530 C.3   126  ILE126      0.0023
    163  CD1       55.2730  -32.0360   -8.8240 C.3   126  ILE126      0.0001
    164  N         50.8960  -33.8820   -5.1770 N.am  127  HIS127     -0.1973
    165  CA        50.5230  -34.6830   -4.0140 C.3   127  HIS127      0.1656
    166  C         51.5570  -35.7550   -3.6940 C.2   127  HIS127      0.2291
    167  O         51.9760  -35.8930   -2.5420 O.2   127  HIS127     -0.2864
    168  CB        49.1670  -35.3530   -4.2180 C.3   127  HIS127      0.0771
    169  CG        48.5880  -35.9210   -2.9580 C.ar  127  HIS127      0.0820
    170  ND1       49.2170  -36.9030   -2.2240 N.ar  127  HIS127     -0.2267
    171  CD2       47.4450  -35.6290   -2.2920 C.ar  127  HIS127      0.1154
    172  CE1       48.4830  -37.1990   -1.1670 C.ar  127  HIS127      0.1986
    173  NE2       47.4000  -36.4430   -1.1870 N.ar  127  HIS127     -0.2212
    174  N         38.9780  -38.8870    1.7330 N.3   136  PHE136     -0.1241
    175  CA        37.9840  -39.0890    2.7780 C.3   136  PHE136      0.1605
    176  C         36.6330  -38.6000    2.3040 C.2   136  PHE136      0.2264
    177  O         36.5120  -37.4580    1.8720 O.2   136  PHE136     -0.2867
    178  CB        38.3830  -38.3370    4.0380 C.3   136  PHE136      0.0534
    179  CG        37.8590  -38.9580    5.2930 C.ar  136  PHE136     -0.0203
    180  CD1       38.6750  -39.7620    6.0760 C.ar  136  PHE136     -0.0042
    181  CD2       36.5420  -38.7670    5.6790 C.ar  136  PHE136     -0.0042
    182  CE1       38.1930  -40.3540    7.2370 C.ar  136  PHE136     -0.0003
    183  CE2       36.0490  -39.3510    6.8390 C.ar  136  PHE136     -0.0003
    184  CZ        36.8780  -40.1480    7.6200 C.ar  136  PHE136     -0.0000
    185  N         40.4740  -34.3690    0.0400 N.3   145  ILE145     -0.1231
    186  CA        41.7890  -34.9260   -0.2320 C.3   145  ILE145      0.1692
    187  C         42.7540  -34.5310    0.8750 C.2   145  ILE145      0.2593
    188  O         42.7520  -33.3910    1.3400 O.2   145  ILE145     -0.2718
    189  CB        42.3540  -34.4390   -1.5630 C.3   145  ILE145      0.0266
    190  CG1       41.5070  -34.9750   -2.7130 C.3   145  ILE145      0.0019
    191  CG2       43.7910  -34.9030   -1.7180 C.3   145  ILE145      0.0020
    192  CD1       41.7800  -34.3020   -4.0260 C.3   145  ILE145      0.0001
    193  N         43.5780  -35.4860    1.2900 N.am  146  GLY146     -0.1942
    194  CA        44.6150  -35.2350    2.2870 C.3   146  GLY146      0.2014
    195  C         45.7690  -36.2000    2.1280 C.2   146  GLY146      0.2639
    196  O         45.9150  -36.8420    1.0890 O.2   146  GLY146     -0.2714
    197  N         46.6030  -36.2790    3.1570 N.am  147  ASP147     -0.1957
    198  CA        47.6030  -37.3340    3.2490 C.3   147  ASP147      0.1840
    199  C         47.5430  -37.9220    4.6490 C.2   147  ASP147      0.2622
    200  O         48.2070  -37.4430    5.5660 O.2   147  ASP147     -0.2715
    201  CB        49.0060  -36.8180    2.9240 C.3   147  ASP147      0.1450
    202  CG        49.9730  -37.9440    2.5940 C.2   147  ASP147      0.3671
    203  OD1       50.7510  -37.7940    1.6200 O.co2 147  ASP147     -0.2456
    204  OD2       49.9340  -38.9850    3.3000 O.co2 147  ASP147     -0.2456
    205  N         46.7510  -38.9800    4.7890 N.am  148  PHE148     -0.1974
    206  CA        46.3920  -39.5160    6.0860 C.3   148  PHE148      0.1639
    207  C         47.3590  -40.6010    6.5510 C.2   148  PHE148      0.2290
    208  O         46.9820  -41.4720    7.3430 O.2   148  PHE148     -0.2864
    209  CB        44.9680  -40.0590    6.0280 C.3   148  PHE148      0.0560
    210  CG        43.9360  -39.0130    5.7130 C.ar  148  PHE148     -0.0200
    211  CD1       43.6670  -38.6530    4.4160 C.ar  148  PHE148     -0.0042
    212  CD2       43.2360  -38.3890    6.7170 C.ar  148  PHE148     -0.0042
    213  CE1       42.7260  -37.6950    4.1300 C.ar  148  PHE148     -0.0003
    214  CE2       42.2890  -37.4290    6.4270 C.ar  148  PHE148     -0.0003
    215  CZ        42.0360  -37.0860    5.1370 C.ar  148  PHE148     -0.0000
@<TRIPOS>BOND
     1   163   161    1
     2   161   160    1
     3   162   160    1
     4   160   157    1
     5   142   143    2
     6   142   141    1
     7   151   150    2
     8   148   149    1
     9   157   156    1
    10   157   158    1
    11   140   141    1
    12   150   156   am
    13   150   149    1
    14   141   144    1
    15   149   152    1
    16   144   145    1
    17   164   158   am
    18   164   165    1
    19   158   159    2
    20   152   153    1
    21   152   154    1
    22   168   165    1
    23   168   169    1
    24   192   190    1
    25   165   166    1
    26   145   146    1
    27   145   147    1
    28   166   167    2
    29   153   155    1
    30   169   171   ar
    31   169   170   ar
    32   190   189    1
    33    68    66    1
    34   171   173   ar
    35   170   172   ar
    36   191   189    1
    37   189   186    1
    38   173   172   ar
    39    66    65    1
    40   186   185    1
    41   186   187    1
    42    61    62    1
    43    60    58    1
    44    65    62    1
    45    65    67    1
    46    62    63    1
    47    55    58    1
    48    55    54    1
    49    55    56    1
    50    58    59    1
    51    45    43    1
    52   187   193   am
    53   187   188    2
    54   196   195    2
    55    44    43    1
    56    56    57    2
    57   193   194    1
    58   203   202   ar
    59   174   175    1
    60    43    40    1
    61   177   176    2
    62    42    41    2
    63    63    64    2
    64    63    69   am
    65   195   194    1
    66   195   197   am
    67    40    41    1
    68    40    39    1
    69   176   175    1
    70   202   201    1
    71   202   204   ar
    72    41    46   am
    73    69    70    1
    74   175   178    1
    75   201   198    1
    76   197   198    1
    77   198   199    1
    78    46    47    1
    79   137   136    2
    80    49    48    2
    81   178   179    1
    82   213   211   ar
    83   213   215   ar
    84    70    73    1
    85    70    71    1
    86    47    48    1
    87    47    50    1
    88    72    71    2
    89   211   210   ar
    90   199   205   am
    91   199   200    2
    92    73    74    1
    93   136   135    1
    94   205   206    1
    95   215   214   ar
    96    53    51    1
    97   179   181   ar
    98   179   180   ar
    99    33    32    2
   100   138   135    1
   101   138   139    1
   102   181   183   ar
   103   210   209    1
   104   210   212   ar
   105    50    51    1
   106    51    52    1
   107   135   134    1
   108    99    98    2
   109    31    30    1
   110    31    32    1
   111    31    34    1
   112   209   206    1
   113   180   182   ar
   114   206   207    1
   115    74    76    1
   116    74    75    1
   117   134   132   am
   118   214   212   ar
   119   207   208    2
   120   183   184   ar
   121    35    34    1
   122    35    36    1
   123    98   100   am
   124    98    97    1
   125   120   119    1
   126   182   184   ar
   127   132   131    1
   128   132   133    2
   129   124   123    2
   130    36    37   ar
   131    36    38   ar
   132   131   130    1
   133   119   116    1
   134    97    96    1
   135   123   130   am
   136   123   122    1
   137    29    28    1
   138   116   117    1
   139   116   115    1
   140    96    93    1
   141    91    89    1
   142   121   117   am
   143   121   122    1
   144   117   118    2
   145    89    90    1
   146    89    86    1
   147   122   125    1
   148   115   103   am
   149    84    82    1
   150    92    93    1
   151    92    87   am
   152    28    27    1
   153   125   126    1
   154    95    94    2
   155    93    94    1
   156   104   103    2
   157   103   102    1
   158    86    87    1
   159    86    85    1
   160    83    81    1
   161    94   101   am
   162    27    26    1
   163    87    88    2
   164   126   127    1
   165   101   102    1
   166    82    81    1
   167   102   105    1
   168    81    78    1
   169    26    25    1
   170   127   128   ar
   171   127   129   ar
   172    25    22    1
   173    20    17    1
   174   105   106    1
   175    78    79    1
   176    78    77    1
   177    79    80    2
   178   106   107   ar
   179   106   108   ar
   180   107   109   ar
   181    14    13    1
   182    15    13    1
   183   108   111   ar
   184   108   110   ar
   185   109   110   ar
   186    13    10    1
   187   111   113   ar
   188     7     5    1
   189   110   112   ar
   190    19    18    2
   191   113   114   ar
   192   112   114   ar
   193    16    17    1
   194    17    18    1
   195    22    21    1
   196    22    23    1
   197     4     3    2
   198    24    23    2
   199     5     6    1
   200     5     2    1
   201    10     9    1
   202    10    11    1
   203     3     2    1
   204     6     8    1
   205     2     1    1
   206    11    12    2
