@<TRIPOS>MOLECULE
tmp/4fc0B00.pdb
 224 214 0 0 0
SMALL
GASTEIGER

@<TRIPOS>ATOM
      1  N         23.6850  -12.4840   -7.5820 N.3    16  ILE16      -0.1245
      2  CA        22.7950  -12.9290   -6.5000 C.3    16  ILE16       0.1561
      3  C         22.1910  -11.7600   -5.7210 C.2    16  ILE16       0.2260
      4  O         21.0580  -11.8450   -5.2530 O.2    16  ILE16      -0.2867
      5  CB        23.5360  -13.8740   -5.5210 C.3    16  ILE16       0.0252
      6  CG1       24.1630  -15.0450   -6.2830 C.3    16  ILE16       0.0019
      7  CG2       22.5880  -14.4130   -4.4590 C.3    16  ILE16       0.0019
      8  CD1       23.1870  -15.7980   -7.1910 C.3    16  ILE16       0.0001
      9  N         27.3640   -9.3830   -5.0400 N.3    24  VAL24      -0.1245
     10  CA        27.7250  -10.7850   -4.9620 C.3    24  VAL24       0.1561
     11  C         27.2700  -11.4970   -6.2290 C.2    24  VAL24       0.2260
     12  O         26.1430  -11.2990   -6.6850 O.2    24  VAL24      -0.2867
     13  CB        27.1020  -11.4730   -3.7340 C.3    24  VAL24       0.0252
     14  CG1       27.6450  -12.8940   -3.5940 C.3    24  VAL24       0.0019
     15  CG2       27.3870  -10.6710   -2.4750 C.3    24  VAL24       0.0019
     16  N         31.4600  -18.1050   -4.5200 N.3    34  ALA34      -0.1245
     17  CA        30.7930  -16.8120   -4.4190 C.3    34  ALA34       0.1562
     18  C         31.8330  -15.7150   -4.6250 C.2    34  ALA34       0.2260
     19  O         32.9180  -15.7780   -4.0510 O.2    34  ALA34      -0.2867
     20  CB        30.1430  -16.6740   -3.0700 C.3    34  ALA34       0.0290
     21  N         32.2620  -11.6680   -4.2490 N.3    36  LYS36      -0.1245
     22  CA        31.7950  -10.3620   -3.8020 C.3    36  LYS36       0.1561
     23  C         32.7730   -9.3590   -4.3660 C.2    36  LYS36       0.2260
     24  O         33.9580   -9.4230   -4.0590 O.2    36  LYS36      -0.2867
     25  CB        31.7900  -10.2950   -2.2720 C.3    36  LYS36       0.0271
     26  CG        31.0590   -9.0830   -1.6440 C.3    36  LYS36       0.0035
     27  CD        31.8820   -8.4640   -0.4860 C.3    36  LYS36       0.0206
     28  CE        31.0320   -7.9780    0.6610 C.3    36  LYS36       0.1093
     29  NZ        30.7480   -9.0710    1.6340 N.3    36  LYS36      -0.1314
     30  N         38.2170   -6.4880    5.2770 N.3    54  GLU54      -0.1245
     31  CA        37.4390   -7.7200    5.1150 C.3    54  GLU54       0.1567
     32  C         38.3620   -8.8800    4.7790 C.2    54  GLU54       0.2260
     33  O         38.2280   -9.9690    5.3250 O.2    54  GLU54      -0.2867
     34  CB        36.3680   -7.5560    4.0290 C.3    54  GLU54       0.0388
     35  CG        35.3980   -8.7440    3.9200 C.3    54  GLU54       0.1160
     36  CD        34.1140   -8.4410    3.1210 C.2    54  GLU54       0.3649
     37  OE1       33.7280   -7.2520    2.9830 O.co2  54  GLU54      -0.2457
     38  OE2       33.4730   -9.4080    2.6420 O.co2  54  GLU54      -0.2457
     39  N         40.3900   -9.8600    7.8690 N.3    57  VAL57      -0.1231
     40  CA        39.6270  -10.6400    8.8380 C.3    57  VAL57       0.1692
     41  C         39.4050  -12.0590    8.3420 C.2    57  VAL57       0.2591
     42  O         39.5700  -13.0140    9.0960 O.2    57  VAL57      -0.2718
     43  CB        38.2640   -9.9740    9.1460 C.3    57  VAL57       0.0266
     44  CG1       37.2170  -11.0110    9.4810 C.3    57  VAL57       0.0020
     45  CG2       38.4120   -8.9820   10.2910 C.3    57  VAL57       0.0020
     46  N         39.0300  -12.1820    7.0720 N.am   58  LEU58      -0.1980
     47  CA        38.7210  -13.4790    6.4660 C.3    58  LEU58       0.1596
     48  C         39.9160  -14.4390    6.4020 C.2    58  LEU58       0.2287
     49  O         39.7510  -15.6510    6.5730 O.2    58  LEU58      -0.2864
     50  CB        38.1340  -13.2800    5.0690 C.3    58  LEU58       0.0297
     51  CG        36.6270  -13.0320    5.0600 C.3    58  LEU58       0.0022
     52  CD1       36.1970  -12.3310    3.7840 C.3    58  LEU58       0.0001
     53  CD2       35.8820  -14.3470    5.2350 C.3    58  LEU58       0.0001
     54  N         40.7400  -16.6150    9.5300 N.3    61  THR61      -0.1218
     55  CA        39.7970  -17.6820    9.8780 C.3    61  THR61       0.1862
     56  C         40.0140  -18.9730    9.0870 C.2    61  THR61       0.2287
     57  O         40.0170  -18.9490    7.8540 O.2    61  THR61      -0.2866
     58  CB        38.3320  -17.2240    9.6570 C.3    61  THR61       0.1770
     59  OG1       38.0950  -16.9640    8.2650 O.3    61  THR61      -0.2211
     60  CG2       38.0480  -15.9800   10.4590 C.3    61  THR61       0.0375
     61  N         32.9060  -21.3260    9.7890 N.3    66  ILE66      -0.1231
     62  CA        33.0450  -20.0100    9.1690 C.3    66  ILE66       0.1692
     63  C         33.1370  -20.1900    7.6620 C.2    66  ILE66       0.2591
     64  O         33.7820  -21.1160    7.1810 O.2    66  ILE66      -0.2718
     65  CB        34.2860  -19.2450    9.6780 C.3    66  ILE66       0.0266
     66  CG1       34.0340  -18.6710   11.0730 C.3    66  ILE66       0.0019
     67  CG2       34.6440  -18.0960    8.7390 C.3    66  ILE66       0.0020
     68  CD1       33.9320  -19.7120   12.1320 C.3    66  ILE66       0.0001
     69  N         32.4700  -19.3110    6.9220 N.am   67  LEU67      -0.1980
     70  CA        32.4910  -19.3320    5.4620 C.3    67  LEU67       0.1596
     71  C         33.9320  -19.3480    4.9680 C.2    67  LEU67       0.2287
     72  O         34.7230  -18.4770    5.3260 O.2    67  LEU67      -0.2864
     73  CB        31.7770  -18.0940    4.9230 C.3    67  LEU67       0.0297
     74  CG        31.6310  -18.0010    3.4110 C.3    67  LEU67       0.0022
     75  CD1       30.6440  -19.0410    2.9140 C.3    67  LEU67       0.0001
     76  CD2       31.1890  -16.6080    3.0240 C.3    67  LEU67       0.0001
     77  N         36.3490  -10.4640   -3.6100 N.3    80  ILE80      -0.1245
     78  CA        36.6480  -11.4800   -2.6030 C.3    80  ILE80       0.1561
     79  C         35.9450  -12.7810   -2.9880 C.2    80  ILE80       0.2260
     80  O         34.7460  -12.7880   -3.2410 O.2    80  ILE80      -0.2867
     81  CB        36.1870  -11.0290   -1.1920 C.3    80  ILE80       0.0252
     82  CG1       36.8190   -9.6830   -0.8310 C.3    80  ILE80       0.0019
     83  CG2       36.5520  -12.0580   -0.1400 C.3    80  ILE80       0.0019
     84  CD1       36.5470   -9.2480    0.5820 C.3    80  ILE80       0.0001
     85  N         34.8760  -16.5770   -1.9310 N.3    82  THR82      -0.1203
     86  CA        34.6470  -17.5380   -0.8450 C.3    82  THR82       0.1994
     87  C         33.9980  -18.7730   -1.4370 C.2    82  THR82       0.2618
     88  O         33.6900  -18.8010   -2.6300 O.2    82  THR82      -0.2717
     89  CB        33.7080  -16.9750    0.2370 C.3    82  THR82       0.1784
     90  OG1       32.3840  -16.8500   -0.2970 O.3    82  THR82      -0.2211
     91  CG2       34.1880  -15.6150    0.7150 C.3    82  THR82       0.0376
     92  N         33.7840  -19.7860   -0.6070 N.am   83  GLN83      -0.1965
     93  CA        33.0740  -20.9800   -1.0420 C.3    83  GLN83       0.1733
     94  C         31.6230  -20.6410   -1.3400 C.2    83  GLN83       0.2616
     95  O         31.0590  -19.7140   -0.7670 O.2    83  GLN83      -0.2715
     96  CB        33.1370  -22.0860    0.0140 C.3    83  GLN83       0.0408
     97  CG        32.3370  -21.7990    1.2780 C.3    83  GLN83       0.0908
     98  CD        32.3800  -22.9340    2.2610 C.2    83  GLN83       0.2608
     99  OE1       32.5740  -22.7230    3.4580 O.2    83  GLN83      -0.2717
    100  NE2       32.1970  -24.1540    1.7670 N.am   83  GLN83      -0.0878
    101  N         31.0350  -21.3960   -2.2550 N.am   84  TRP84      -0.1960
    102  CA        29.6430  -21.2290   -2.6130 C.3    84  TRP84       0.1771
    103  C         28.8250  -22.0940   -1.6720 C.2    84  TRP84       0.2620
    104  O         29.0620  -23.2950   -1.5850 O.2    84  TRP84      -0.2715
    105  CB        29.4120  -21.6690   -4.0500 C.3    84  TRP84       0.0590
    106  CG        27.9900  -21.6430   -4.4150 C.ar   84  TRP84       0.0006
    107  CD1       27.1710  -22.7110   -4.5970 C.ar   84  TRP84       0.0946
    108  CD2       27.1930  -20.4820   -4.6190 C.ar   84  TRP84       0.0152
    109  NE1       25.9070  -22.2880   -4.9190 N.ar   84  TRP84      -0.2442
    110  CE2       25.8930  -20.9190   -4.9340 C.ar   84  TRP84       0.0810
    111  CE3       27.4520  -19.1110   -4.5710 C.ar   84  TRP84       0.0012
    112  CZ2       24.8550  -20.0370   -5.2070 C.ar   84  TRP84       0.0191
    113  CZ3       26.4210  -18.2330   -4.8380 C.ar   84  TRP84       0.0001
    114  CH2       25.1360  -18.6980   -5.1500 C.ar   84  TRP84       0.0015
    115  N         27.8750  -21.4920   -0.9630 N.am   85  CYS85      -0.1954
    116  CA        27.0420  -22.2450   -0.0330 C.3    85  CYS85       0.1843
    117  C         25.8100  -22.7860   -0.7470 C.2    85  CYS85       0.2625
    118  O         25.4200  -22.2750   -1.7950 O.2    85  CYS85      -0.2714
    119  CB        26.6490  -21.3840    1.1650 C.3    85  CYS85       0.0997
    120  SG        28.0310  -20.9540    2.2590 S.3    85  CYS85      -0.0797
    121  N         25.1780  -23.7930   -0.1520 N.am   86  GLU86      -0.1963
    122  CA        24.2050  -24.6260   -0.8490 C.3    86  GLU86       0.1733
    123  C         23.0200  -24.9440    0.0560 C.2    86  GLU86       0.2617
    124  O         23.1840  -25.5480    1.1040 O.2    86  GLU86      -0.2715
    125  CB        24.8760  -25.9230   -1.2960 C.3    86  GLU86       0.0429
    126  CG        24.3060  -26.5170   -2.5790 C.3    86  GLU86       0.1163
    127  CD        24.9890  -25.9950   -3.8300 C.2    86  GLU86       0.3649
    128  OE1       26.2240  -25.8090   -3.8090 O.co2  86  GLU86      -0.2457
    129  OE2       24.2910  -25.7830   -4.8470 O.co2  86  GLU86      -0.2457
    130  N         21.8260  -24.5400   -0.3610 N.am   87  GLY87      -0.1940
    131  CA        20.6220  -24.6880    0.4560 C.3    87  GLY87       0.2014
    132  C         20.0050  -23.3360    0.7610 C.2    87  GLY87       0.2639
    133  O         19.5370  -22.6440   -0.1410 O.2    87  GLY87      -0.2714
    134  N         19.9990  -22.9580    2.0340 N.am   88  SER88      -0.1949
    135  CA        19.4880  -21.6470    2.4240 C.3    88  SER88       0.1924
    136  C         19.8760  -21.2640    3.8490 C.2    88  SER88       0.2314
    137  O         20.3700  -22.0860    4.6260 O.2    88  SER88      -0.2863
    138  CB        17.9650  -21.5760    2.2410 C.3    88  SER88       0.2116
    139  OG        17.3340  -22.7840    2.6320 O.3    88  SER88      -0.2180
    140  N         35.7550  -17.3480   16.5810 N.3   120  LEU120     -0.1245
    141  CA        35.9680  -15.9500   16.2470 C.3   120  LEU120      0.1561
    142  C         36.4680  -15.2030   17.4630 C.2   120  LEU120      0.2260
    143  O         37.4660  -14.4900   17.4010 O.2   120  LEU120     -0.2867
    144  CB        34.6720  -15.3150   15.7420 C.3   120  LEU120      0.0270
    145  CG        34.1400  -15.8100   14.3930 C.3   120  LEU120      0.0019
    146  CD1       32.8300  -15.1040   14.0480 C.3   120  LEU120      0.0001
    147  CD2       35.1600  -15.6010   13.2990 C.3   120  LEU120      0.0001
    148  N         37.7720  -11.6070   17.2560 N.3   125  ILE125     -0.1231
    149  CA        36.9610  -11.0570   16.1860 C.3   125  ILE125      0.1692
    150  C         35.5280  -10.9810   16.6870 C.2   125  ILE125      0.2592
    151  O         34.9420  -11.9990   17.0750 O.2   125  ILE125     -0.2718
    152  CB        36.9850  -11.9530   14.9320 C.3   125  ILE125      0.0266
    153  CG1       38.4050  -12.0860   14.3840 C.3   125  ILE125      0.0019
    154  CG2       36.0700  -11.3970   13.8570 C.3   125  ILE125      0.0020
    155  CD1       38.4720  -12.8840   13.1070 C.3   125  ILE125      0.0001
    156  N         34.9750   -9.7690   16.6820 N.am  126  ILE126     -0.1966
    157  CA        33.5820   -9.5470   17.0600 C.3   126  ILE126      0.1727
    158  C         32.7750   -9.3990   15.7670 C.2   126  ILE126      0.2616
    159  O         33.0830   -8.5630   14.9190 O.2   126  ILE126     -0.2715
    160  CB        33.4070   -8.3140   17.9880 C.3   126  ILE126      0.0290
    161  CG1       34.5600   -8.2070   18.9940 C.3   126  ILE126      0.0022
    162  CG2       32.0880   -8.4080   18.7450 C.3   126  ILE126      0.0023
    163  CD1       34.4800   -7.0030   19.9090 C.3   126  ILE126      0.0001
    164  N         31.7560  -10.2360   15.6190 N.am  127  HIS127     -0.1973
    165  CA        30.9770  -10.3040   14.3920 C.3   127  HIS127      0.1656
    166  C         30.2460   -8.9940   14.1660 C.2   127  HIS127      0.2291
    167  O         30.3730   -8.3760   13.1030 O.2   127  HIS127     -0.2864
    168  CB        29.9720  -11.4480   14.4910 C.3   127  HIS127      0.0771
    169  CG        29.3260  -11.8080   13.1910 C.ar  127  HIS127      0.0820
    170  ND1       28.4340  -10.9810   12.5460 N.ar  127  HIS127     -0.2267
    171  CD2       29.4220  -12.9230   12.4300 C.ar  127  HIS127      0.1154
    172  CE1       28.0180  -11.5640   11.4360 C.ar  127  HIS127      0.1986
    173  NE2       28.6040  -12.7440   11.3410 N.ar  127  HIS127     -0.2212
    174  N         24.2550  -19.7130    7.3490 N.3   136  PHE136     -0.1241
    175  CA        23.8840  -20.5320    6.2030 C.3   136  PHE136      0.1605
    176  C         23.8870  -22.0050    6.5900 C.2   136  PHE136      0.2264
    177  O         24.8250  -22.4820    7.2170 O.2   136  PHE136     -0.2867
    178  CB        24.8280  -20.2920    5.0200 C.3   136  PHE136      0.0534
    179  CG        24.1540  -20.4230    3.6750 C.ar  136  PHE136     -0.0203
    180  CD1       23.9000  -19.3040    2.8980 C.ar  136  PHE136     -0.0042
    181  CD2       23.7510  -21.6600    3.2050 C.ar  136  PHE136     -0.0042
    182  CE1       23.2790  -19.4170    1.6720 C.ar  136  PHE136     -0.0003
    183  CE2       23.1250  -21.7800    1.9790 C.ar  136  PHE136     -0.0003
    184  CZ        22.8930  -20.6550    1.2110 C.ar  136  PHE136     -0.0000
    185  N         28.9640  -19.6110    9.1640 N.3   145  ILE145     -0.1231
    186  CA        28.7040  -18.2410    9.5970 C.3   145  ILE145      0.1692
    187  C         29.4190  -17.2690    8.6610 C.2   145  ILE145      0.2593
    188  O         30.5720  -17.4950    8.2800 O.2   145  ILE145     -0.2718
    189  CB        29.1710  -17.9890   11.0440 C.3   145  ILE145      0.0266
    190  CG1       28.5920  -19.0320   11.9900 C.3   145  ILE145      0.0019
    191  CG2       28.7220  -16.6280   11.5040 C.3   145  ILE145      0.0020
    192  CD1       28.9980  -18.8280   13.4290 C.3   145  ILE145      0.0001
    193  N         28.7290  -16.1940    8.2950 N.am  146  GLY146     -0.1942
    194  CA        29.2880  -15.1970    7.3890 C.3   146  GLY146      0.2014
    195  C         28.6480  -13.8400    7.5780 C.2   146  GLY146      0.2639
    196  O         27.9400  -13.6170    8.5630 O.2   146  GLY146     -0.2714
    197  N         28.9250  -12.9270    6.6470 N.am  147  ASP147     -0.1957
    198  CA        28.1320  -11.7140    6.4950 C.3   147  ASP147      0.1840
    199  C         27.5060  -11.7320    5.1090 C.2   147  ASP147      0.2622
    200  O         28.1260  -11.3060    4.1370 O.2   147  ASP147     -0.2715
    201  CB        28.9830  -10.4590    6.6890 C.3   147  ASP147      0.1450
    202  CG        28.1360   -9.2100    6.8890 C.2   147  ASP147      0.3671
    203  OD1       27.9330   -8.8110    8.0620 O.co2 147  ASP147     -0.2456
    204  OD2       27.6460   -8.6530    5.8810 O.co2 147  ASP147     -0.2456
    205  N         26.2790  -12.2370    5.0230 N.am  148  PHE148     -0.1960
    206  CA        25.6050  -12.4320    3.7390 C.3   148  PHE148      0.1771
    207  C         24.6830  -11.2480    3.3950 C.2   148  PHE148      0.2620
    208  O         23.5000  -11.4350    3.0620 O.2   148  PHE148     -0.2715
    209  CB        24.8130  -13.7450    3.7530 C.3   148  PHE148      0.0574
    210  CG        25.6570  -14.9610    4.0190 C.ar  148  PHE148     -0.0200
    211  CD1       25.7480  -15.4950    5.2920 C.ar  148  PHE148     -0.0042
    212  CD2       26.3610  -15.5700    2.9960 C.ar  148  PHE148     -0.0042
    213  CE1       26.5280  -16.6120    5.5470 C.ar  148  PHE148     -0.0003
    214  CE2       27.1450  -16.6920    3.2390 C.ar  148  PHE148     -0.0003
    215  CZ        27.2290  -17.2130    4.5180 C.ar  148  PHE148     -0.0000
    216  N         25.2350  -10.0340    3.4670 N.am  149  GLY149     -0.1954
    217  CA        24.4740   -8.8080    3.2250 C.3   149  GLY149      0.1869
    218  C         23.6880   -8.8170    1.9220 C.2   149  GLY149      0.2309
    219  O         24.2480   -8.5290    0.8480 O.2   149  GLY149     -0.2863
    220  N         22.7010  -11.1600    0.0380 N.3   151  ALA151     -0.1245
    221  CA        22.8280  -12.4560   -0.6550 C.3   151  ALA151      0.1562
    222  C         21.8160  -13.4780   -0.1060 C.2   151  ALA151      0.2260
    223  O         21.4220  -14.4110   -0.8170 O.2   151  ALA151     -0.2867
    224  CB        24.2530  -13.0000   -0.5220 C.3   151  ALA151      0.0290
@<TRIPOS>BOND
     1     1     2    1
     2     8     6    1
     3    12    11    2
     4     2     3    1
     5     2     5    1
     6     6     5    1
     7    11    10    1
     8     3     4    2
     9     5     7    1
    10   112   114   ar
    11   112   110   ar
    12   114   113   ar
    13     9    10    1
    14    10    13    1
    15   110   109   ar
    16   110   108   ar
    17   109   107   ar
    18   129   127   ar
    19   113   111   ar
    20    18    17    1
    21    18    19    2
    22   108   111   ar
    23   108   106   ar
    24   107   106   ar
    25    16    17    1
    26    17    20    1
    27   106   105    1
    28    23    24    2
    29    23    22    1
    30    21    22    1
    31   105   102    1
    32   127   128   ar
    33   127   126    1
    34    22    25    1
    35    13    14    1
    36    13    15    1
    37    77    78    1
    38    80    79    2
    39    79    78    1
    40    88    87    2
    41   102   101    1
    42   102   103    1
    43    78    81    1
    44   126   125    1
    45    25    26    1
    46   101    94   am
    47    85    86    1
    48   118   117    2
    49   103   104    2
    50   103   115   am
    51    26    27    1
    52    87    86    1
    53    87    92   am
    54    94    93    1
    55    94    95    2
    56   125   122    1
    57    81    82    1
    58    81    83    1
    59    93    92    1
    60    93    96    1
    61   115   116    1
    62   122   121    1
    63   122   123    1
    64    86    89    1
    65    82    84    1
    66   223   222    2
    67   117   121   am
    68   117   116    1
    69   221   224    1
    70   221   222    1
    71   221   220    1
    72    27    28    1
    73   130   123   am
    74   130   131    1
    75    90    89    1
    76   133   132    2
    77   116   119    1
    78    96    97    1
    79   123   124    2
    80    89    91    1
    81   131   132    1
    82    28    29    1
    83   132   134   am
    84   219   218    2
    85   119   120    1
    86   184   182   ar
    87   184   183   ar
    88    97    98    1
    89   182   180   ar
    90   100    98   am
    91   218   217    1
    92   183   181   ar
    93   134   135    1
    94   138   135    1
    95   138   139    1
    96    98    99    2
    97   135   136    1
    98    38    36   ar
    99   180   179   ar
   100    75    74    1
   101    37    36   ar
   102   212   214   ar
   103   212   210   ar
   104    76    74    1
   105   208   207    2
   106    36    35    1
   107   181   179   ar
   108   217   216    1
   109   214   215   ar
   110   207   216   am
   111   207   206    1
   112    74    73    1
   113   179   178    1
   114   206   209    1
   115   206   205    1
   116   209   210    1
   117    52    51    1
   118   136   137    2
   119    35    34    1
   120   210   211   ar
   121    34    31    1
   122   200   199    2
   123   215   213   ar
   124    32    31    1
   125    32    33    2
   126    73    70    1
   127    71    72    2
   128    71    70    1
   129   178   175    1
   130   205   199   am
   131    51    50    1
   132    51    53    1
   133    50    47    1
   134   199   198    1
   135    31    30    1
   136   211   213   ar
   137    70    69    1
   138   204   202   ar
   139   175   176    1
   140   175   174    1
   141    48    47    1
   142    48    49    2
   143    47    46    1
   144   198   197    1
   145   198   201    1
   146   176   177    2
   147   197   195   am
   148   201   202    1
   149   202   203   ar
   150    69    63   am
   151    46    41   am
   152    64    63    2
   153   194   195    1
   154   194   193    1
   155   195   196    2
   156    63    62    1
   157    57    56    2
   158    39    40    1
   159    59    58    1
   160   188   187    2
   161   193   187   am
   162    41    40    1
   163    41    42    2
   164   187   186    1
   165    67    65    1
   166    40    43    1
   167    56    55    1
   168    43    44    1
   169    43    45    1
   170   185   186    1
   171    62    65    1
   172    62    61    1
   173    54    55    1
   174   186   189    1
   175    58    55    1
   176    58    60    1
   177    65    66    1
   178   189   191    1
   179   189   190    1
   180    66    68    1
   181   173   172   ar
   182   173   171   ar
   183   172   170   ar
   184   190   192    1
   185   171   169   ar
   186   170   169   ar
   187   167   166    2
   188   155   153    1
   189   169   168    1
   190   147   145    1
   191   154   152    1
   192   146   145    1
   193   166   165    1
   194   153   152    1
   195   165   168    1
   196   165   164    1
   197   145   144    1
   198   159   158    2
   199   152   149    1
   200   164   158   am
   201   144   141    1
   202   158   157    1
   203   149   150    1
   204   149   148    1
   205   141   140    1
   206   141   142    1
   207   156   150   am
   208   156   157    1
   209   150   151    2
   210   157   160    1
   211   143   142    2
   212   160   162    1
   213   160   161    1
   214   161   163    1
