@<TRIPOS>MOLECULE
tmp/4fc7A01.pdb
 150 142 0 0 0
SMALL
GASTEIGER

@<TRIPOS>ATOM
      1  N         50.2840   12.6150   28.6420 N.3    57  ARG57      -0.1245
      2  CA        50.8390   13.9290   28.8430 C.3    57  ARG57       0.1563
      3  C         51.9110   13.8230   29.9560 C.2    57  ARG57       0.2260
      4  O         52.9500   14.4920   29.9230 O.2    57  ARG57      -0.2867
      5  CB        49.7530   14.9000   29.2520 C.3    57  ARG57       0.0307
      6  CG        48.7120   15.2840   28.2000 C.3    57  ARG57       0.0489
      7  CD        47.4830   15.9400   28.7960 C.3    57  ARG57       0.2205
      8  NE        46.8790   15.0850   29.8430 N.pl3  57  ARG57      -0.0865
      9  CZ        45.7840   15.3620   30.5660 C.cat  57  ARG57       0.5346
     10  NH1       45.1320   16.5310   30.3920 N.pl3  57  ARG57       0.1354
     11  NH2       45.3780   14.5190   31.5410 N.pl3  57  ARG57       0.1354
     12  N         46.4030   16.1900   21.4700 N.3    85  ARG85      -0.1245
     13  CA        45.9180   17.3840   20.8260 C.3    85  ARG85       0.1563
     14  C         46.9910   18.1740   20.0380 C.2    85  ARG85       0.2260
     15  O         46.6920   19.1690   19.4300 O.2    85  ARG85      -0.2867
     16  CB        45.2810   18.3070   21.8060 C.3    85  ARG85       0.0307
     17  CG        43.9970   17.8160   22.3880 C.3    85  ARG85       0.0489
     18  CD        43.5950   18.6460   23.5810 C.3    85  ARG85       0.2205
     19  NE        44.4480   18.3300   24.7050 N.pl3  85  ARG85      -0.0865
     20  CZ        44.2290   18.7590   25.9240 C.cat  85  ARG85       0.5346
     21  NH1       45.0340   18.4370   26.9160 N.pl3  85  ARG85       0.1354
     22  NH2       43.1720   19.5250   26.1330 N.pl3  85  ARG85       0.1354
     23  N         41.5040    9.7030   27.0580 N.3   112  ALA112     -0.1231
     24  CA        40.2080   10.3800   27.1410 C.3   112  ALA112      0.1694
     25  C         40.1970   11.2810   28.3550 C.2   112  ALA112      0.2593
     26  O         41.0230   11.1120   29.2200 O.2   112  ALA112     -0.2718
     27  CB        39.1170    9.3590   27.3310 C.3   112  ALA112      0.0304
     28  N         39.2000   12.1580   28.4390 N.am  113  GLY113     -0.1942
     29  CA        38.9770   12.9610   29.6690 C.3   113  GLY113      0.2014
     30  C         37.4980   12.9990   29.9450 C.2   113  GLY113      0.2639
     31  O         36.7170   13.0900   28.9970 O.2   113  GLY113     -0.2714
     32  N         37.0650   12.9100   31.2150 N.am  114  ASN114     -0.1958
     33  CA        35.6020   12.8650   31.5110 C.3   114  ASN114      0.1819
     34  C         35.4170   13.3210   32.9670 C.2   114  ASN114      0.2621
     35  O         36.4040   13.3360   33.7850 O.2   114  ASN114     -0.2715
     36  CB        35.0810   11.4140   31.2730 C.3   114  ASN114      0.1195
     37  CG        33.6130   11.3610   31.0550 C.2   114  ASN114      0.2630
     38  OD1       32.9500   12.4070   31.1220 O.2   114  ASN114     -0.2716
     39  ND2       33.0660   10.1280   30.8770 N.am  114  ASN114     -0.0877
     40  N         34.1700   13.6530   33.3220 N.am  115  PHE115     -0.1960
     41  CA        33.8030   14.0530   34.6690 C.3   115  PHE115      0.1771
     42  C         32.2740   14.2170   34.6180 C.2   115  PHE115      0.2619
     43  O         31.7130   14.3420   33.4990 O.2   115  PHE115     -0.2715
     44  CB        34.4670   15.4090   35.0080 C.3   115  PHE115      0.0574
     45  CG        34.4020   16.4210   33.8700 C.ar  115  PHE115     -0.0200
     46  CD1       33.2490   17.2370   33.6820 C.ar  115  PHE115     -0.0042
     47  CD2       35.4820   16.5830   33.0230 C.ar  115  PHE115     -0.0042
     48  CE1       33.2280   18.1770   32.6440 C.ar  115  PHE115     -0.0003
     49  CE2       35.4640   17.4830   31.9440 C.ar  115  PHE115     -0.0003
     50  CZ        34.3140   18.2970   31.7590 C.ar  115  PHE115     -0.0000
     51  N         31.5830   14.2050   35.7780 N.am  116  LEU116     -0.1963
     52  CA        30.1400   14.4250   35.7290 C.3   116  LEU116      0.1728
     53  C         29.7800   15.9070   35.7020 C.2   116  LEU116      0.2616
     54  O         30.3540   16.6800   36.4420 O.2   116  LEU116     -0.2715
     55  CB        29.4560   13.7410   36.8770 C.3   116  LEU116      0.0311
     56  CG        29.6720   12.2570   36.9640 C.3   116  LEU116      0.0022
     57  CD1       29.2040   11.8840   38.3750 C.3   116  LEU116      0.0001
     58  CD2       28.9330   11.5390   35.8260 C.3   116  LEU116      0.0001
     59  N         28.8420   16.3160   34.8180 N.am  117  CYS117     -0.1968
     60  CA        28.4250   17.7180   34.8180 C.3   117  CYS117      0.1712
     61  C         27.1360   17.8630   34.0620 C.2   117  CYS117      0.2296
     62  O         27.0220   17.3210   32.9340 O.2   117  CYS117     -0.2864
     63  CB        29.4900   18.5990   34.1310 C.3   117  CYS117      0.0983
     64  SG        29.1920   20.4080   34.3010 S.3   117  CYS117     -0.0798
     65  N         25.1660   23.4160   33.1620 N.3   121  ALA121     -0.1231
     66  CA        26.3080   24.0060   33.9030 C.3   121  ALA121      0.1694
     67  C         27.6490   23.8200   33.1850 C.2   121  ALA121      0.2592
     68  O         28.6860   24.2830   33.6850 O.2   121  ALA121     -0.2718
     69  CB        26.4100   23.3710   35.2990 C.3   121  ALA121      0.0304
     70  N         27.6630   23.0920   32.0600 N.am  122  LEU122     -0.1966
     71  CA        28.9070   22.7010   31.4540 C.3   122  LEU122      0.1728
     72  C         29.3810   23.8410   30.5990 C.2   122  LEU122      0.2616
     73  O         28.6180   24.3360   29.7610 O.2   122  LEU122     -0.2715
     74  CB        28.6990   21.4440   30.5750 C.3   122  LEU122      0.0311
     75  CG        29.8570   20.9500   29.7520 C.3   122  LEU122      0.0022
     76  CD1       30.9070   20.2760   30.6610 C.3   122  LEU122      0.0001
     77  CD2       29.3920   19.9270   28.7020 C.3   122  LEU122      0.0001
     78  N         30.6370   24.2610   30.7500 N.am  123  SER123     -0.1950
     79  CA        31.0630   25.4590   29.9930 C.3   123  SER123      0.1924
     80  C         31.3590   25.1130   28.5070 C.2   123  SER123      0.2314
     81  O         31.6160   23.9430   28.1330 O.2   123  SER123     -0.2863
     82  CB        32.2880   26.1010   30.6240 C.3   123  SER123      0.2116
     83  OG        33.4970   25.3870   30.2470 O.3   123  SER123     -0.2180
     84  N         34.0430   25.8340   26.8990 N.3   125  ASN125     -0.1225
     85  CA        35.3800   25.2740   26.7840 C.3   125  ASN125      0.1785
     86  C         35.4720   23.8110   27.3810 C.2   125  ASN125      0.2597
     87  O         36.2510   22.9990   26.8750 O.2   125  ASN125     -0.2718
     88  CB        36.4370   26.1460   27.4400 C.3   125  ASN125      0.1169
     89  CG        37.8470   25.6070   27.1670 C.2   125  ASN125      0.2627
     90  OD1       38.2470   25.4470   26.0180 O.2   125  ASN125     -0.2716
     91  ND2       38.5720   25.2630   28.2080 N.am  125  ASN125     -0.0877
     92  N         34.7010   23.4930   28.4400 N.am  126  ALA126     -0.1979
     93  CA        34.7370   22.1550   29.0290 C.3   126  ALA126      0.1597
     94  C         34.2370   21.1480   27.9800 C.2   126  ALA126      0.2287
     95  O         34.8220   20.0530   27.8460 O.2   126  ALA126     -0.2864
     96  CB        33.8830   22.0810   30.2660 C.3   126  ALA126      0.0319
     97  N         36.8560   20.8350   25.1120 N.3   129  THR129     -0.1203
     98  CA        38.0700   20.1190   25.5520 C.3   129  THR129      0.1994
     99  C         37.8770   18.5830   25.4960 C.2   129  THR129      0.2617
    100  O         38.7770   17.8730   25.1220 O.2   129  THR129     -0.2717
    101  CB        38.3530   20.4700   27.0390 C.3   129  THR129      0.1784
    102  OG1       38.7130   21.8580   27.1100 O.3   129  THR129     -0.2211
    103  CG2       39.5030   19.5990   27.5760 C.3   129  THR129      0.0376
    104  N         36.7270   18.0950   25.9540 N.am  130  VAL130     -0.1979
    105  CA        36.4420   16.6700   25.8830 C.3   130  VAL130      0.1595
    106  C         36.3990   16.2000   24.3730 C.2   130  VAL130      0.2287
    107  O         37.0550   15.1850   23.9530 O.2   130  VAL130     -0.2864
    108  CB        35.1690   16.3540   26.6970 C.3   130  VAL130      0.0276
    109  CG1       34.7740   14.9020   26.4640 C.3   130  VAL130      0.0022
    110  CG2       35.3250   16.5950   28.2660 C.3   130  VAL130      0.0022
    111  N         40.0640   16.1710   23.0300 N.3   133  ILE133     -0.1245
    112  CA        40.8860   15.0300   23.5240 C.3   133  ILE133      0.1561
    113  C         40.4060   13.7180   22.8930 C.2   133  ILE133      0.2260
    114  O         41.1880   12.9840   22.2670 O.2   133  ILE133     -0.2867
    115  CB        40.8100   14.9490   25.0640 C.3   133  ILE133      0.0252
    116  CG1       41.5920   16.0920   25.7160 C.3   133  ILE133      0.0019
    117  CG2       41.3660   13.6450   25.6320 C.3   133  ILE133      0.0019
    118  CD1       41.2850   17.4520   25.1300 C.3   133  ILE133      0.0001
    119  N         40.1760    5.3580   37.2150 N.3   212  GLU212     -0.1231
    120  CA        39.7920    6.7830   37.3780 C.3   212  GLU212      0.1699
    121  C         38.3530    7.0800   36.8630 C.2   212  GLU212      0.2592
    122  O         37.5720    7.8090   37.4970 O.2   212  GLU212     -0.2718
    123  CB        40.8460    7.6970   36.6850 C.3   212  GLU212      0.0402
    124  CG        40.5810    9.1720   36.8640 C.3   212  GLU212      0.1161
    125  CD        40.7430    9.6550   38.3090 C.2   212  GLU212      0.3649
    126  OE1       41.1450    8.8560   39.2140 O.co2 212  GLU212     -0.2457
    127  OE2       40.4380   10.8600   38.5450 O.co2 212  GLU212     -0.2457
    128  N         37.9970    6.4570   35.7520 N.am  213  GLY213     -0.1957
    129  CA        36.6730    6.5910   35.1860 C.3   213  GLY213      0.1869
    130  C         35.6190    6.3260   36.2490 C.2   213  GLY213      0.2309
    131  O         34.7940    7.1950   36.5200 O.2   213  GLY213     -0.2863
    132  N         35.5420    8.7500   39.2470 N.3   216  ARG216     -0.1231
    133  CA        34.9230   10.0260   38.9390 C.3   216  ARG216      0.1694
    134  C         33.4660    9.8990   38.6010 C.2   216  ARG216      0.2591
    135  O         32.6990   10.7780   38.9140 O.2   216  ARG216     -0.2718
    136  CB        35.5640   10.6680   37.6960 C.3   216  ARG216      0.0321
    137  CG        36.9590   11.1760   37.9030 C.3   216  ARG216      0.0489
    138  CD        37.3910   11.9050   36.6260 C.3   216  ARG216      0.2205
    139  NE        38.7790   12.2560   36.7680 N.pl3 216  ARG216     -0.0865
    140  CZ        39.3630   13.2820   36.1860 C.cat 216  ARG216      0.5346
    141  NH1       38.6740   14.0480   35.3560 N.pl3 216  ARG216      0.1354
    142  NH2       40.6540   13.4990   36.4090 N.pl3 216  ARG216      0.1354
    143  N         33.0960    8.8580   37.8570 N.am  217  LEU217     -0.1980
    144  CA        31.7640    8.8360   37.2820 C.3   217  LEU217      0.1596
    145  C         30.8320    7.9130   38.0180 C.2   217  LEU217      0.2287
    146  O         29.6260    7.9730   37.8310 O.2   217  LEU217     -0.2864
    147  CB        31.8470    8.4060   35.7820 C.3   217  LEU217      0.0297
    148  CG        32.9180    9.1750   34.9890 C.3   217  LEU217      0.0022
    149  CD1       33.2450    8.5110   33.6240 C.3   217  LEU217      0.0001
    150  CD2       32.4840   10.6490   34.7770 C.3   217  LEU217      0.0001
@<TRIPOS>BOND
     1    15    14    2
     2    14    13    1
     3    13    12    1
     4    13    16    1
     5    16    17    1
     6   114   113    2
     7    17    18    1
     8   113   112    1
     9   111   112    1
    10   112   115    1
    11    18    19    1
    12   107   106    2
    13   106   105    1
    14    19    20    2
    15   115   117    1
    16   115   116    1
    17    97    98    1
    18   100    99    2
    19   118   116    1
    20    99    98    1
    21    99   104   am
    22    98   101    1
    23   105   104    1
    24   105   108    1
    25    20    22    1
    26    20    21    1
    27    90    89    2
    28   109   108    1
    29   108   110    1
    30    85    84    1
    31    85    86    1
    32    85    88    1
    33    87    86    2
    34   101   102    1
    35   101   103    1
    36    23    24    1
    37    24    27    1
    38    24    25    1
    39    89    88    1
    40    89    91   am
    41    86    92   am
    42    95    94    2
    43    94    93    1
    44    81    80    2
    45     6     7    1
    46     6     5    1
    47    25    28   am
    48    25    26    2
    49    28    29    1
    50    92    93    1
    51    80    79    1
    52     1     2    1
    53    77    75    1
    54     7     8    1
    55     2     5    1
    56     2     3    1
    57    31    30    2
    58    93    96    1
    59    29    30    1
    60    75    74    1
    61    75    76    1
    62    73    72    2
    63     8     9    2
    64     4     3    2
    65    30    32   am
    66    79    82    1
    67    79    78    1
    68    83    82    1
    69    10     9    1
    70     9    11    1
    71    74    71    1
    72    72    78   am
    73    72    71    1
    74    39    37   am
    75    37    38    2
    76    37    36    1
    77    32    33    1
    78    36    33    1
    79    71    70    1
    80    33    34    1
    81    50    49   ar
    82    50    48   ar
    83    49    47   ar
    84    70    67   am
    85    48    46   ar
    86    62    61    2
    87    34    40   am
    88    34    35    2
    89    47    45   ar
    90    65    66    1
    91    67    68    2
    92    67    66    1
    93    40    41    1
    94    43    42    2
    95   149   148    1
    96    46    45   ar
    97    45    44    1
    98    66    69    1
    99    61    60    1
   100    63    64    1
   101    63    60    1
   102    42    41    1
   103    42    51   am
   104    41    44    1
   105   150   148    1
   106    59    60    1
   107    59    53   am
   108   148   147    1
   109   129   128    1
   110   129   130    1
   111   141   140    1
   112    53    52    1
   113    53    54    2
   114    52    51    1
   115    52    55    1
   116   128   121   am
   117   147   144    1
   118    58    56    1
   119   140   142    1
   120   140   139    2
   121   130   131    2
   122   138   139    1
   123   138   137    1
   124   123   124    1
   125   123   120    1
   126   121   120    1
   127   121   122    2
   128   124   125    1
   129    55    56    1
   130    56    57    1
   131   119   120    1
   132   144   143    1
   133   144   145    1
   134   136   137    1
   135   136   133    1
   136   146   145    2
   137   143   134   am
   138   125   127   ar
   139   125   126   ar
   140   134   135    2
   141   134   133    1
   142   133   132    1
