@<TRIPOS>MOLECULE
tmp/4fcbB00.pdb
 188 182 0 0 0
SMALL
GASTEIGER

@<TRIPOS>ATOM
      1  N         17.8830  -47.5040  -15.9430 N.3    78  TYR78      -0.1227
      2  CA        16.9250  -46.4360  -15.6100 C.3    78  TYR78       0.1736
      3  C         15.4480  -46.8500  -15.6050 C.2    78  TYR78       0.2595
      4  O         14.7810  -46.6820  -14.5930 O.2    78  TYR78      -0.2718
      5  CB        17.1200  -45.1970  -16.5000 C.3    78  TYR78       0.0548
      6  CG        16.1120  -44.0900  -16.2290 C.ar   78  TYR78      -0.0200
      7  CD1       16.1010  -43.4120  -15.0040 C.ar   78  TYR78      -0.0009
      8  CD2       15.1620  -43.7320  -17.1870 C.ar   78  TYR78      -0.0009
      9  CE1       15.1750  -42.3960  -14.7470 C.ar   78  TYR78       0.0417
     10  CE2       14.2270  -42.7210  -16.9390 C.ar   78  TYR78       0.0417
     11  CZ        14.2420  -42.0570  -15.7160 C.ar   78  TYR78       0.1957
     12  OH        13.3280  -41.0540  -15.4610 O.3    78  TYR78      -0.2866
     13  N         14.9440  -47.3690  -16.7250 N.am   79  HIS79      -0.1975
     14  CA        13.5200  -47.7090  -16.8540 C.3    79  HIS79       0.1656
     15  C         13.1310  -48.9870  -16.0930 C.2    79  HIS79       0.2291
     16  O         12.5410  -49.9150  -16.6520 O.2    79  HIS79      -0.2864
     17  CB        13.1260  -47.8060  -18.3290 C.3    79  HIS79       0.0771
     18  CG        13.1480  -46.4910  -19.0490 C.ar   79  HIS79       0.0820
     19  ND1       14.2600  -46.0240  -19.7150 N.ar   79  HIS79      -0.2267
     20  CD2       12.1930  -45.5420  -19.2010 C.ar   79  HIS79       0.1154
     21  CE1       13.9900  -44.8480  -20.2500 C.ar   79  HIS79       0.1986
     22  NE2       12.7430  -44.5310  -19.9510 N.ar   79  HIS79      -0.2212
     23  N          6.6180  -38.7840  -24.0300 N.3   176  LEU176     -0.1245
     24  CA         7.0490  -37.3830  -23.9500 C.3   176  LEU176      0.1561
     25  C          6.6770  -36.5600  -25.1790 C.2   176  LEU176      0.2260
     26  O          6.5290  -35.3360  -25.0860 O.2   176  LEU176     -0.2867
     27  CB         8.5580  -37.2770  -23.6680 C.3   176  LEU176      0.0270
     28  CG         9.0610  -35.9480  -23.0760 C.3   176  LEU176      0.0019
     29  CD1        8.4060  -35.6290  -21.7230 C.3   176  LEU176      0.0001
     30  CD2       10.5810  -35.9260  -22.9580 C.3   176  LEU176      0.0001
     31  N          6.7970  -38.7990  -14.0450 N.3   215  ASP215     -0.1225
     32  CA         7.8140  -39.4850  -14.8510 C.3   215  ASP215      0.1805
     33  C          9.1880  -38.8130  -14.7530 C.2   215  ASP215      0.2597
     34  O         10.2050  -39.4950  -14.6700 O.2   215  ASP215     -0.2718
     35  CB         7.3610  -39.5500  -16.3230 C.3   215  ASP215      0.1424
     36  CG         7.9780  -40.7170  -17.1060 C.2   215  ASP215      0.3668
     37  OD1        8.4680  -41.7090  -16.5220 O.co2 215  ASP215     -0.2456
     38  OD2        7.9400  -40.6440  -18.3500 O.co2 215  ASP215     -0.2456
     39  N          9.1970  -37.4810  -14.7430 N.am  216  LEU216     -0.1979
     40  CA        10.4270  -36.6950  -14.7570 C.3   216  LEU216      0.1596
     41  C         10.9410  -36.2590  -13.3750 C.2   216  LEU216      0.2287
     42  O         11.8990  -35.4940  -13.2960 O.2   216  LEU216     -0.2864
     43  CB        10.2560  -35.4510  -15.6550 C.3   216  LEU216      0.0297
     44  CG         9.8570  -35.5900  -17.1430 C.3   216  LEU216      0.0022
     45  CD1        9.7890  -34.2110  -17.8050 C.3   216  LEU216      0.0001
     46  CD2       10.7450  -36.5460  -17.9330 C.3   216  LEU216      0.0001
     47  N         12.8310  -37.1710  -11.0170 N.3   218  SER218     -0.1202
     48  CA        14.2620  -37.2540  -10.6980 C.3   218  SER218      0.2020
     49  C         14.9070  -35.8830  -10.6390 C.2   218  SER218      0.2618
     50  O         15.8450  -35.6580   -9.8670 O.2   218  SER218     -0.2717
     51  CB        14.9900  -38.0720  -11.7560 C.3   218  SER218      0.2103
     52  OG        14.8100  -39.4530  -11.5170 O.3   218  SER218     -0.2182
     53  N         14.4070  -34.9660  -11.4610 N.am  219  VAL219     -0.1979
     54  CA        14.9450  -33.6090  -11.5080 C.3   219  VAL219      0.1595
     55  C         14.4660  -32.7170  -10.3530 C.2   219  VAL219      0.2287
     56  O         14.8610  -31.5510  -10.2700 O.2   219  VAL219     -0.2864
     57  CB        14.6080  -32.9210  -12.8520 C.3   219  VAL219      0.0276
     58  CG1       15.0940  -33.7670  -14.0140 C.3   219  VAL219      0.0022
     59  CG2       13.1050  -32.6530  -12.9570 C.3   219  VAL219      0.0022
     60  N         19.7090  -36.1480   -7.2920 N.3   226  THR226     -0.1218
     61  CA        19.4720  -35.7960   -8.6960 C.3   226  THR226      0.1862
     62  C         20.6900  -36.1070   -9.5820 C.2   226  THR226      0.2287
     63  O         20.5360  -36.7250  -10.6370 O.2   226  THR226     -0.2866
     64  CB        18.9640  -34.3370   -8.8430 C.3   226  THR226      0.1770
     65  OG1       17.6460  -34.2510   -8.2830 O.3   226  THR226     -0.2211
     66  CG2       18.9030  -33.9000  -10.3170 C.3   226  THR226      0.0375
     67  N         20.9860  -38.9260  -12.8300 N.3   230  ALA230     -0.1245
     68  CA        21.4260  -38.5230  -14.1670 C.3   230  ALA230      0.1562
     69  C         22.3660  -39.5690  -14.7770 C.2   230  ALA230      0.2260
     70  O         22.2820  -39.8480  -15.9660 O.2   230  ALA230     -0.2867
     71  CB        22.0930  -37.1570  -14.1290 C.3   230  ALA230      0.0290
     72  N         20.3870  -42.5580  -16.1270 N.3   233  ILE233     -0.1231
     73  CA        19.7190  -42.2150  -17.3770 C.3   233  ILE233      0.1692
     74  C         20.6680  -42.4030  -18.5680 C.2   233  ILE233      0.2592
     75  O         20.3490  -43.1230  -19.5170 O.2   233  ILE233     -0.2718
     76  CB        19.1390  -40.7830  -17.3090 C.3   233  ILE233      0.0266
     77  CG1       18.0180  -40.7420  -16.2570 C.3   233  ILE233      0.0019
     78  CG2       18.6270  -40.3320  -18.6750 C.3   233  ILE233      0.0020
     79  CD1       17.6980  -39.3790  -15.7130 C.3   233  ILE233      0.0001
     80  N         21.8370  -41.7730  -18.4930 N.am  234  TYR234     -0.1976
     81  CA        22.8540  -41.8960  -19.5360 C.3   234  TYR234      0.1639
     82  C         23.4760  -43.2840  -19.6550 C.2   234  TYR234      0.2290
     83  O         23.8150  -43.7080  -20.7610 O.2   234  TYR234     -0.2864
     84  CB        23.9300  -40.8280  -19.3610 C.3   234  TYR234      0.0560
     85  CG        23.4270  -39.4710  -19.7600 C.ar  234  TYR234     -0.0198
     86  CD1       22.9090  -38.5970  -18.8110 C.ar  234  TYR234     -0.0009
     87  CD2       23.4220  -39.0760  -21.1000 C.ar  234  TYR234     -0.0009
     88  CE1       22.4220  -37.3560  -19.1800 C.ar  234  TYR234      0.0417
     89  CE2       22.9340  -37.8370  -21.4770 C.ar  234  TYR234      0.0417
     90  CZ        22.4400  -36.9810  -20.5110 C.ar  234  TYR234      0.1957
     91  OH        21.9560  -35.7470  -20.8660 O.3   234  TYR234     -0.2866
     92  N         21.2430  -44.9100  -21.8940 N.3   237  PHE237     -0.1227
     93  CA        21.4000  -44.2750  -23.2040 C.3   237  PHE237      0.1736
     94  C         22.6240  -44.8270  -23.9370 C.2   237  PHE237      0.2595
     95  O         22.5440  -45.1980  -25.1130 O.2   237  PHE237     -0.2718
     96  CB        21.5600  -42.7510  -23.0750 C.3   237  PHE237      0.0547
     97  CG        20.2810  -42.0000  -22.7900 C.ar  237  PHE237     -0.0202
     98  CD1       19.0310  -42.5490  -23.0750 C.ar  237  PHE237     -0.0042
     99  CD2       20.3390  -40.7110  -22.2640 C.ar  237  PHE237     -0.0042
    100  CE1       17.8560  -41.8310  -22.8130 C.ar  237  PHE237     -0.0003
    101  CE2       19.1740  -39.9820  -22.0050 C.ar  237  PHE237     -0.0003
    102  CZ        17.9310  -40.5450  -22.2790 C.ar  237  PHE237     -0.0000
    103  N         23.7460  -44.8770  -23.2200 N.am  238  TRP238     -0.1976
    104  CA        25.0260  -45.3190  -23.7660 C.3   238  TRP238      0.1640
    105  C         25.0580  -46.8160  -24.0180 C.2   238  TRP238      0.2290
    106  O         25.6760  -47.2650  -24.9830 O.2   238  TRP238     -0.2864
    107  CB        26.1770  -44.9160  -22.8440 C.3   238  TRP238      0.0576
    108  CG        26.2560  -43.4320  -22.5890 C.ar  238  TRP238      0.0006
    109  CD1       25.8710  -42.4260  -23.4370 C.ar  238  TRP238      0.0946
    110  CD2       26.7740  -42.7920  -21.4200 C.ar  238  TRP238      0.0152
    111  NE1       26.1030  -41.2050  -22.8600 N.ar  238  TRP238     -0.2442
    112  CE2       26.6600  -41.3960  -21.6230 C.ar  238  TRP238      0.0810
    113  CE3       27.3180  -43.2600  -20.2140 C.ar  238  TRP238      0.0012
    114  CZ2       27.0730  -40.4610  -20.6660 C.ar  238  TRP238      0.0191
    115  CZ3       27.7290  -42.3280  -19.2600 C.ar  238  TRP238      0.0001
    116  CH2       27.6010  -40.9450  -19.4930 C.ar  238  TRP238      0.0015
    117  N         24.4450  -38.2340  -30.3610 N.3   253  PRO253     -0.2102
    118  CA        25.3580  -37.7990  -29.2880 C.3   253  PRO253      0.1504
    119  C         24.8890  -38.0960  -27.8580 C.2   253  PRO253      0.2575
    120  O         25.7160  -38.3780  -26.9970 O.2   253  PRO253     -0.2718
    121  CB        25.4410  -36.2890  -29.5060 C.3   253  PRO253      0.0282
    122  CG        25.2900  -36.1380  -30.9760 C.3   253  PRO253      0.0208
    123  CD        24.3180  -37.2000  -31.4070 C.3   253  PRO253      0.0893
    124  N         23.5780  -38.0280  -27.6270 N.am  254  MET254     -0.1980
    125  CA        22.9490  -38.3190  -26.3260 C.3   254  MET254      0.1605
    126  C         23.1700  -39.7680  -25.8590 C.2   254  MET254      0.2287
    127  O         23.1560  -40.0600  -24.6560 O.2   254  MET254     -0.2864
    128  CB        21.4470  -38.0230  -26.4220 C.3   254  MET254      0.0413
    129  CG        20.6500  -38.1630  -25.1390 C.3   254  MET254      0.0598
    130  SD        18.8770  -38.1350  -25.4850 S.3   254  MET254     -0.1393
    131  CE        18.5570  -39.8500  -25.8540 C.3   254  MET254      0.0692
    132  N         25.8650  -41.5970  -27.0750 N.3   256  ASP256     -0.1239
    133  CA        27.2850  -41.8600  -27.2900 C.3   256  ASP256      0.1674
    134  C         28.0730  -41.6010  -26.0020 C.2   256  ASP256      0.2266
    135  O         28.1430  -40.4650  -25.5340 O.2   256  ASP256     -0.2867
    136  CB        27.8060  -40.9680  -28.4290 C.3   256  ASP256      0.1410
    137  CG        29.1740  -41.3980  -28.9540 C.2   256  ASP256      0.3668
    138  OD1       29.8740  -42.2060  -28.3010 O.co2 256  ASP256     -0.2456
    139  OD2       29.5510  -40.9130  -30.0410 O.co2 256  ASP256     -0.2456
    140  N         30.8640  -38.9950  -25.5620 N.3   259  LYS259     -0.1245
    141  CA        30.4560  -37.6020  -25.4130 C.3   259  LYS259      0.1561
    142  C         29.9060  -37.2970  -24.0100 C.2   259  LYS259      0.2260
    143  O         28.9770  -36.4970  -23.8630 O.2   259  LYS259     -0.2867
    144  CB        29.4420  -37.2340  -26.5020 C.3   259  LYS259      0.0271
    145  CG        29.9870  -37.3480  -27.9210 C.3   259  LYS259      0.0035
    146  CD        28.8790  -37.1800  -28.9420 C.3   259  LYS259      0.0206
    147  CE        29.3360  -37.5490  -30.3460 C.3   259  LYS259      0.1093
    148  NZ        30.3630  -36.6010  -30.8590 N.3   259  LYS259     -0.1314
    149  N         29.2180  -33.6570  -22.6480 N.3   262  GLU262     -0.1231
    150  CA        28.0220  -32.9110  -23.0010 C.3   262  GLU262      0.1699
    151  C         26.8410  -33.1590  -22.0460 C.2   262  GLU262      0.2592
    152  O         25.7890  -32.5450  -22.1980 O.2   262  GLU262     -0.2718
    153  CB        27.6190  -33.1940  -24.4550 C.3   262  GLU262      0.0402
    154  CG        28.3270  -32.3340  -25.4860 C.3   262  GLU262      0.1161
    155  CD        29.5220  -33.0190  -26.1070 C.2   262  GLU262      0.3649
    156  OE1       29.3210  -33.9190  -26.9520 O.co2 262  GLU262     -0.2457
    157  OE2       30.6640  -32.6420  -25.7720 O.co2 262  GLU262     -0.2457
    158  N         27.0210  -34.0380  -21.0600 N.am  263  VAL263     -0.1980
    159  CA        25.9460  -34.3660  -20.1080 C.3   263  VAL263      0.1595
    160  C         25.3560  -33.1600  -19.3300 C.2   263  VAL263      0.2287
    161  O         24.1450  -32.9430  -19.3850 O.2   263  VAL263     -0.2864
    162  CB        26.3340  -35.5300  -19.1510 C.3   263  VAL263      0.0276
    163  CG1       25.3600  -35.6300  -17.9830 C.3   263  VAL263      0.0022
    164  CG2       26.3790  -36.8480  -19.9140 C.3   263  VAL263      0.0022
    165  N         23.5380  -30.9860  -21.6940 N.3   266  GLY266     -0.1210
    166  CA        22.3240  -31.7260  -22.0050 C.3   266  GLY266      0.1956
    167  C         21.2680  -31.5840  -20.9180 C.2   266  GLY266      0.2611
    168  O         20.0850  -31.4240  -21.2150 O.2   266  GLY266     -0.2717
    169  N         21.7020  -31.6220  -19.6610 N.am  267  GLN267     -0.1979
    170  CA        20.7970  -31.4780  -18.5200 C.3   267  GLN267      0.1601
    171  C         20.1430  -30.1010  -18.4910 C.2   267  GLN267      0.2287
    172  O         18.9150  -29.9960  -18.4090 O.2   267  GLN267     -0.2864
    173  CB        21.5280  -31.7680  -17.1970 C.3   267  GLN267      0.0394
    174  CG        21.8410  -33.2490  -16.9850 C.3   267  GLN267      0.0908
    175  CD        20.5820  -34.1030  -16.9540 C.2   267  GLN267      0.2608
    176  OE1       19.6470  -33.8310  -16.1990 O.2   267  GLN267     -0.2717
    177  NE2       20.5470  -35.1290  -17.7940 N.am  267  GLN267     -0.0878
    178  N         17.6200  -29.7610  -21.3200 N.3   270  PHE270     -0.1241
    179  CA        16.4130  -30.5080  -20.9930 C.3   270  PHE270      0.1605
    180  C         15.5520  -29.7860  -19.9510 C.2   270  PHE270      0.2264
    181  O         14.3210  -29.6850  -20.0980 O.2   270  PHE270     -0.2867
    182  CB        16.7950  -31.9110  -20.5160 C.3   270  PHE270      0.0534
    183  CG        15.6220  -32.7870  -20.1590 C.ar  270  PHE270     -0.0203
    184  CD1       14.9330  -33.4850  -21.1440 C.ar  270  PHE270     -0.0042
    185  CD2       15.2300  -32.9400  -18.8260 C.ar  270  PHE270     -0.0042
    186  CE1       13.8520  -34.3080  -20.8130 C.ar  270  PHE270     -0.0003
    187  CE2       14.1610  -33.7500  -18.4870 C.ar  270  PHE270     -0.0003
    188  CZ        13.4690  -34.4400  -19.4830 C.ar  270  PHE270     -0.0000
@<TRIPOS>BOND
     1   123   122    1
     2   123   117    1
     3   122   121    1
     4   148   147    1
     5   117   118    1
     6   147   146    1
     7   139   137   ar
     8   121   118    1
     9   118   119    1
    10   137   136    1
    11   137   138   ar
    12   146   145    1
    13   136   133    1
    14   145   144    1
    15   119   124   am
    16   119   120    2
    17   124   125    1
    18   133   132    1
    19   133   134    1
    20   156   155   ar
    21   144   141    1
    22   128   125    1
    23   128   129    1
    24   125   126    1
    25   155   157   ar
    26   155   154    1
    27   134   135    2
    28   126   127    2
    29   131   130    1
    30   140   141    1
    31   154   153    1
    32   130   129    1
    33   141   142    1
    34    25    26    2
    35    25    24    1
    36    95    94    2
    37   106   105    2
    38   153   150    1
    39    23    24    1
    40   105   104    1
    41   142   143    2
    42    24    27    1
    43    94   103   am
    44    94    93    1
    45   104   103    1
    46   104   107    1
    47    27    28    1
    48   109   111   ar
    49   109   108   ar
    50    93    96    1
    51    93    92    1
    52    28    30    1
    53    28    29    1
    54    98   100   ar
    55    98    97   ar
    56    96    97    1
    57   150   149    1
    58   150   151    1
    59   111   112   ar
    60   107   108    1
    61   100   102   ar
    62    97    99   ar
    63   108   110   ar
    64   102   101   ar
    65    99   101   ar
    66   152   151    2
    67   151   158   am
    68   166   165    1
    69   166   167    1
    70   112   110   ar
    71   112   114   ar
    72    89    87   ar
    73    89    90   ar
    74   110   113   ar
    75   178   179    1
    76   168   167    2
    77   184   186   ar
    78   184   183   ar
    79    87    85   ar
    80   158   159    1
    81   179   182    1
    82   179   180    1
    83   167   169   am
    84    91    90    1
    85   186   188   ar
    86    83    82    2
    87   114   116   ar
    88   182   183    1
    89    90    88   ar
    90    21    22   ar
    91    21    19   ar
    92   113   115   ar
    93   183   185   ar
    94   159   160    1
    95   159   162    1
    96   181   180    2
    97    22    20   ar
    98   164   162    1
    99    85    84    1
   100    85    86   ar
   101    19    18   ar
   102   169   170    1
   103    82    81    1
   104    81    84    1
   105    81    80    1
   106    75    74    2
   107   116   115   ar
   108   188   187   ar
   109   161   160    2
   110    20    18   ar
   111    88    86   ar
   112   162   163    1
   113    18    17    1
   114   185   187   ar
   115    78    76    1
   116    74    80   am
   117    74    73    1
   118   170   171    1
   119   170   173    1
   120   171   172    2
   121    38    36   ar
   122    17    14    1
   123    46    44    1
   124    45    44    1
   125   177   175   am
   126    73    76    1
   127    73    72    1
   128    76    77    1
   129   173   174    1
   130     8    10   ar
   131     8     6   ar
   132    44    43    1
   133    36    37   ar
   134    36    35    1
   135   174   175    1
   136   175   176    2
   137    10    11   ar
   138    14    13    1
   139    14    15    1
   140    13     3   am
   141    16    15    2
   142     5     6    1
   143     5     2    1
   144    35    32    1
   145    77    79    1
   146     6     7   ar
   147    70    69    2
   148     1     2    1
   149    11    12    1
   150    11     9   ar
   151    43    40    1
   152     2     3    1
   153     3     4    2
   154     7     9   ar
   155    32    33    1
   156    32    31    1
   157    69    68    1
   158    40    39    1
   159    40    41    1
   160    33    39   am
   161    33    34    2
   162    68    71    1
   163    68    67    1
   164    58    57    1
   165    41    42    2
   166    59    57    1
   167    57    54    1
   168    51    52    1
   169    51    48    1
   170    54    53    1
   171    54    55    1
   172    53    49   am
   173    47    48    1
   174    48    49    1
   175    49    50    2
   176    63    62    2
   177    55    56    2
   178    66    64    1
   179    62    61    1
   180    64    61    1
   181    64    65    1
   182    61    60    1
