@<TRIPOS>MOLECULE
tmp/4fcdA00.pdb
 156 150 0 0 0
SMALL
GASTEIGER

@<TRIPOS>ATOM
      1  N         11.1480  -14.9650  -31.3320 N.3    77  TYR77      -0.1227
      2  CA        12.3020  -14.3180  -30.6880 C.3    77  TYR77       0.1736
      3  C         12.0610  -12.9030  -30.1500 C.2    77  TYR77       0.2595
      4  O         12.3680  -12.6240  -28.9890 O.2    77  TYR77      -0.2718
      5  CB        13.5370  -14.3320  -31.5960 C.3    77  TYR77       0.0548
      6  CG        14.7180  -13.5820  -31.0080 C.ar   77  TYR77      -0.0200
      7  CD1       15.3960  -14.0800  -29.9000 C.ar   77  TYR77      -0.0009
      8  CD2       15.1470  -12.3680  -31.5530 C.ar   77  TYR77      -0.0009
      9  CE1       16.4750  -13.4100  -29.3540 C.ar   77  TYR77       0.0417
     10  CE2       16.2370  -11.6810  -31.0060 C.ar   77  TYR77       0.0417
     11  CZ        16.8940  -12.2150  -29.9030 C.ar   77  TYR77       0.1957
     12  OH        17.9700  -11.5690  -29.3360 O.3    77  TYR77      -0.2866
     13  N         11.5370  -12.0140  -30.9910 N.am   78  HIS78      -0.1975
     14  CA        11.3820  -10.6060  -30.6120 C.3    78  HIS78       0.1656
     15  C         10.1590  -10.4200  -29.7190 C.2    78  HIS78       0.2291
     16  O          9.1800   -9.7770  -30.1000 O.2    78  HIS78      -0.2864
     17  CB        11.3250   -9.7010  -31.8470 C.3    78  HIS78       0.0771
     18  CG        12.6380   -9.5610  -32.5540 C.ar   78  HIS78       0.0820
     19  ND1       12.8960  -10.1600  -33.7680 N.ar   78  HIS78      -0.2267
     20  CD2       13.7700   -8.9000  -32.2130 C.ar   78  HIS78       0.1154
     21  CE1       14.1280   -9.8700  -34.1490 C.ar   78  HIS78       0.1986
     22  NE2       14.6820   -9.1110  -33.2200 N.ar   78  HIS78      -0.2212
     23  N          6.9550   -5.6470  -32.0350 N.3   120  HIS120     -0.1241
     24  CA         7.7200   -6.2680  -33.1190 C.3   120  HIS120      0.1621
     25  C          6.8920   -7.3700  -33.7930 C.2   120  HIS120      0.2264
     26  O          6.1460   -8.0930  -33.1290 O.2   120  HIS120     -0.2867
     27  CB         9.0480   -6.8200  -32.6010 C.3   120  HIS120      0.0745
     28  CG        10.1270   -6.8850  -33.6370 C.ar  120  HIS120      0.0817
     29  ND1       10.1590   -7.8520  -34.6200 N.ar  120  HIS120     -0.2268
     30  CD2       11.2240   -6.1160  -33.8330 C.ar  120  HIS120      0.1154
     31  CE1       11.2230   -7.6700  -35.3820 C.ar  120  HIS120      0.1986
     32  NE2       11.8860   -6.6210  -34.9270 N.ar  120  HIS120     -0.2212
     33  N         12.4080    0.5660  -35.3090 N.3   145  GLU145     -0.1245
     34  CA        12.9390    1.2260  -34.1130 C.3   145  GLU145      0.1567
     35  C         12.2190    2.5420  -33.8400 C.2   145  GLU145      0.2260
     36  O         11.9320    2.8660  -32.6870 O.2   145  GLU145     -0.2867
     37  CB        14.4530    1.4380  -34.2080 C.3   145  GLU145      0.0388
     38  CG        15.2790    0.1460  -34.2510 C.3   145  GLU145      0.1160
     39  CD        15.0650   -0.6670  -35.5330 C.2   145  GLU145      0.3649
     40  OE1       14.7140   -0.0750  -36.5850 O.co2 145  GLU145     -0.2457
     41  OE2       15.2410   -1.8990  -35.4830 O.co2 145  GLU145     -0.2457
     42  N         19.4000    0.4710  -31.5650 N.3   186  THR186     -0.1218
     43  CA        19.2270   -0.9830  -31.6960 C.3   186  THR186      0.1862
     44  C         18.9190   -1.4140  -33.1400 C.2   186  THR186      0.2287
     45  O         18.7710   -2.6140  -33.4280 O.2   186  THR186     -0.2866
     46  CB        18.1510   -1.5590  -30.7490 C.3   186  THR186      0.1770
     47  OG1       16.8860   -0.9610  -31.0330 O.3   186  THR186     -0.2211
     48  CG2       18.5140   -1.3490  -29.2840 C.3   186  THR186      0.0375
     49  N         20.5210   -2.3900  -36.0390 N.3   188  LEU188     -0.1245
     50  CA        21.8560   -2.9480  -36.2790 C.3   188  LEU188      0.1561
     51  C         22.5600   -2.3030  -37.4750 C.2   188  LEU188      0.2260
     52  O         23.7870   -2.2550  -37.5180 O.2   188  LEU188     -0.2867
     53  CB        21.7840   -4.4740  -36.4510 C.3   188  LEU188      0.0270
     54  CG        23.0690   -5.2920  -36.2800 C.3   188  LEU188      0.0019
     55  CD1       23.7360   -5.0860  -34.9030 C.3   188  LEU188      0.0001
     56  CD2       22.7870   -6.7680  -36.5270 C.3   188  LEU188      0.0001
     57  N         21.2650   -5.9300  -26.6110 N.3   227  ASP227     -0.1225
     58  CA        20.3830   -6.4890  -27.6320 C.3   227  ASP227      0.1805
     59  C         20.9000   -7.8240  -28.1630 C.2   227  ASP227      0.2597
     60  O         20.1170   -8.6830  -28.5570 O.2   227  ASP227     -0.2718
     61  CB        20.2530   -5.4830  -28.7840 C.3   227  ASP227      0.1424
     62  CG        19.0350   -5.7320  -29.6730 C.2   227  ASP227      0.3668
     63  OD1       18.0480   -6.3700  -29.2470 O.co2 227  ASP227     -0.2456
     64  OD2       19.0780   -5.2560  -30.8320 O.co2 227  ASP227     -0.2456
     65  N         22.2210   -7.9820  -28.1800 N.am  228  LEU228     -0.1979
     66  CA        22.8530   -9.1940  -28.6880 C.3   228  LEU228      0.1596
     67  C         23.1220  -10.2580  -27.6080 C.2   228  LEU228      0.2287
     68  O         23.5330  -11.3650  -27.9360 O.2   228  LEU228     -0.2864
     69  CB        24.1660   -8.8650  -29.4300 C.3   228  LEU228      0.0297
     70  CG        24.1740   -7.9870  -30.6900 C.3   228  LEU228      0.0022
     71  CD1       25.5920   -7.8760  -31.2580 C.3   228  LEU228      0.0001
     72  CD2       23.2180   -8.4900  -31.7730 C.3   228  LEU228      0.0001
     73  N         22.1040  -12.6950  -25.8600 N.3   230  SER230     -0.1202
     74  CA        21.8050  -14.1300  -25.8820 C.3   230  SER230      0.2020
     75  C         22.9770  -14.9420  -26.4480 C.2   230  SER230      0.2618
     76  O         23.0220  -16.1630  -26.2900 O.2   230  SER230     -0.2717
     77  CB        20.5130  -14.4150  -26.6520 C.3   230  SER230      0.2103
     78  OG        20.6790  -14.1330  -28.0290 O.3   230  SER230     -0.2182
     79  N         23.9200  -14.2530  -27.0930 N.am  231  VAL231     -0.1979
     80  CA        25.1840  -14.8470  -27.5350 C.3   231  VAL231      0.1595
     81  C         26.2300  -14.9090  -26.4150 C.2   231  VAL231      0.2287
     82  O         27.3430  -15.4060  -26.6240 O.2   231  VAL231     -0.2864
     83  CB        25.7930  -14.1030  -28.7570 C.3   231  VAL231      0.0276
     84  CG1       24.8610  -14.1960  -29.9780 C.3   231  VAL231      0.0022
     85  CG2       26.1380  -12.6360  -28.4140 C.3   231  VAL231      0.0022
     86  N         15.3530  -17.2340  -33.3150 N.3   245  ILE245     -0.1231
     87  CA        15.7780  -16.1990  -34.2530 C.3   245  ILE245      0.1692
     88  C         15.5460  -16.6210  -35.7120 C.2   245  ILE245      0.2592
     89  O         14.9780  -15.8590  -36.5000 O.2   245  ILE245     -0.2718
     90  CB        17.2530  -15.8060  -33.9950 C.3   245  ILE245      0.0266
     91  CG1       17.3400  -14.8920  -32.7710 C.3   245  ILE245      0.0019
     92  CG2       17.8770  -15.1180  -35.2080 C.3   245  ILE245      0.0020
     93  CD1       18.6860  -14.8700  -32.1020 C.3   245  ILE245      0.0001
     94  N         15.9770  -17.8320  -36.0620 N.am  246  TYR246     -0.1976
     95  CA        15.8010  -18.3290  -37.4290 C.3   246  TYR246      0.1639
     96  C         14.3480  -18.6570  -37.7490 C.2   246  TYR246      0.2290
     97  O         13.9180  -18.5110  -38.8930 O.2   246  TYR246     -0.2864
     98  CB        16.7490  -19.4970  -37.7350 C.3   246  TYR246      0.0560
     99  CG        18.1670  -19.0220  -37.9670 C.ar  246  TYR246     -0.0198
    100  CD1       19.0490  -18.8600  -36.8990 C.ar  246  TYR246     -0.0009
    101  CD2       18.6140  -18.6860  -39.2430 C.ar  246  TYR246     -0.0009
    102  CE1       20.3410  -18.4040  -37.0960 C.ar  246  TYR246      0.0417
    103  CE2       19.9130  -18.2270  -39.4530 C.ar  246  TYR246      0.0417
    104  CZ        20.7690  -18.0940  -38.3710 C.ar  246  TYR246      0.1957
    105  OH        22.0540  -17.6410  -38.5550 O.3   246  TYR246     -0.2866
    106  N         13.3310  -15.4700  -39.1240 N.3   249  PHE249     -0.1241
    107  CA        13.9460  -15.2270  -40.4360 C.3   249  PHE249      0.1605
    108  C         13.2960  -16.0420  -41.5620 C.2   249  PHE249      0.2264
    109  O         13.1840  -15.5630  -42.6940 O.2   249  PHE249     -0.2867
    110  CB        15.4430  -15.5580  -40.4290 C.3   249  PHE249      0.0534
    111  CG        16.2890  -14.6440  -39.5800 C.ar  249  PHE249     -0.0203
    112  CD1       15.8350  -13.3860  -39.1820 C.ar  249  PHE249     -0.0042
    113  CD2       17.5740  -15.0380  -39.2160 C.ar  249  PHE249     -0.0042
    114  CE1       16.6380  -12.5520  -38.4130 C.ar  249  PHE249     -0.0003
    115  CE2       18.3850  -14.2090  -38.4500 C.ar  249  PHE249     -0.0003
    116  CZ        17.9160  -12.9620  -38.0460 C.ar  249  PHE249     -0.0000
    117  N         19.9870  -16.9240  -45.1990 N.3   266  MET266     -0.1230
    118  CA        19.6280  -16.7040  -43.8020 C.3   266  MET266      0.1702
    119  C         18.1310  -16.8610  -43.5380 C.2   266  MET266      0.2592
    120  O         17.7240  -17.3890  -42.5050 O.2   266  MET266     -0.2718
    121  CB        20.0770  -15.3010  -43.3930 C.3   266  MET266      0.0401
    122  CG        20.1030  -15.0380  -41.9090 C.3   266  MET266      0.0596
    123  SD        20.3820  -13.2900  -41.5720 S.3   266  MET266     -0.1393
    124  CE        18.7180  -12.6490  -41.7180 C.3   266  MET266      0.0692
    125  N         17.3210  -16.4000  -44.4840 N.am  267  MET267     -0.1979
    126  CA        15.8710  -16.4070  -44.3330 C.3   267  MET267      0.1605
    127  C         15.2050  -17.5450  -45.1160 C.2   267  MET267      0.2287
    128  O         13.9740  -17.5960  -45.2400 O.2   267  MET267     -0.2864
    129  CB        15.3030  -15.0430  -44.7430 C.3   267  MET267      0.0413
    130  CG        15.7880  -13.8730  -43.8780 C.3   267  MET267      0.0598
    131  SD        15.1630  -12.2900  -44.4790 S.3   267  MET267     -0.1393
    132  CE        16.0010  -11.1310  -43.3880 C.3   267  MET267      0.0692
    133  N         26.7990  -19.2220  -40.9610 N.3   278  GLY278     -0.1210
    134  CA        26.2300  -17.8890  -40.7840 C.3   278  GLY278      0.1956
    135  C         26.4210  -17.3040  -39.3900 C.2   278  GLY278      0.2611
    136  O         26.7680  -16.1260  -39.2440 O.2   278  GLY278     -0.2717
    137  N         26.2070  -18.1260  -38.3620 N.am  279  GLN279     -0.1979
    138  CA        26.3990  -17.6890  -36.9810 C.3   279  GLN279      0.1601
    139  C         27.8650  -17.3810  -36.6860 C.2   279  GLN279      0.2287
    140  O         28.1630  -16.4370  -35.9560 O.2   279  GLN279     -0.2864
    141  CB        25.8370  -18.7120  -35.9890 C.3   279  GLN279      0.0394
    142  CG        24.3210  -18.6870  -35.8620 C.3   279  GLN279      0.0908
    143  CD        23.8030  -17.4020  -35.2390 C.2   279  GLN279      0.2608
    144  OE1       23.8880  -17.2060  -34.0230 O.2   279  GLN279     -0.2717
    145  NE2       23.2570  -16.5200  -36.0690 N.am  279  GLN279     -0.0878
    146  N         28.4690  -14.0530  -38.1880 N.3   282  PHE282     -0.1241
    147  CA        27.8510  -13.0340  -37.3370 C.3   282  PHE282      0.1605
    148  C         28.7150  -12.6990  -36.1290 C.2   282  PHE282      0.2264
    149  O         28.8760  -11.5300  -35.7960 O.2   282  PHE282     -0.2867
    150  CB        26.4630  -13.4700  -36.8780 C.3   282  PHE282      0.0534
    151  CG        25.7020  -12.4000  -36.1440 C.ar  282  PHE282     -0.0203
    152  CD1       25.0500  -11.3850  -36.8430 C.ar  282  PHE282     -0.0042
    153  CD2       25.6240  -12.4120  -34.7470 C.ar  282  PHE282     -0.0042
    154  CE1       24.3360  -10.3950  -36.1640 C.ar  282  PHE282     -0.0003
    155  CE2       24.9160  -11.4240  -34.0600 C.ar  282  PHE282     -0.0003
    156  CZ        24.2690  -10.4180  -34.7660 C.ar  282  PHE282     -0.0000
@<TRIPOS>BOND
     1   128   127    2
     2   117   118    1
     3   127   126    1
     4   129   126    1
     5   129   130    1
     6   125   126    1
     7   125   119   am
     8   131   130    1
     9   131   132    1
    10   118   119    1
    11   118   121    1
    12   119   120    2
    13   121   122    1
    14   109   108    2
    15   122   123    1
    16   124   123    1
    17   108   107    1
    18   133   134    1
    19   134   135    1
    20   107   110    1
    21   107   106    1
    22   110   111    1
    23   111   113   ar
    24   111   112   ar
    25   103   101   ar
    26   103   104   ar
    27   135   136    2
    28   135   137   am
    29   101    99   ar
    30   113   115   ar
    31   112   114   ar
    32    97    96    2
    33   105   104    1
    34   115   116   ar
    35   114   116   ar
    36   104   102   ar
    37   137   138    1
    38   146   147    1
    39    99    98    1
    40    99   100   ar
    41    96    95    1
    42    98    95    1
    43    52    51    2
    44    51    50    1
    45    95    94    1
    46   147   150    1
    47   147   148    1
    48   102   100   ar
    49   138   139    1
    50   138   141    1
    51   150   151    1
    52   152   154   ar
    53   152   151   ar
    54   139   140    2
    55    40    39   ar
    56    56    54    1
    57    89    88    2
    58    53    54    1
    59    53    50    1
    60    54    55    1
    61    50    49    1
    62   154   156   ar
    63   151   153   ar
    64   148   149    2
    65   145   143   am
    66    94    88   am
    67   141   142    1
    68   142   143    1
    69    88    87    1
    70    39    41   ar
    71    39    38    1
    72    31    32   ar
    73    31    29   ar
    74    33    34    1
    75   143   144    2
    76    92    90    1
    77    32    30   ar
    78   156   155   ar
    79   153   155   ar
    80    29    28   ar
    81    87    90    1
    82    87    86    1
    83    38    37    1
    84    37    34    1
    85    21    19   ar
    86    21    22   ar
    87    34    35    1
    88    90    91    1
    89    35    36    2
    90    30    28   ar
    91    25    26    2
    92    25    24    1
    93    19    18   ar
    94    28    27    1
    95    45    44    2
    96    22    20   ar
    97    44    43    1
    98    24    27    1
    99    24    23    1
   100    91    93    1
   101    18    20   ar
   102    18    17    1
   103    17    14    1
   104    72    70    1
   105    43    42    1
   106    43    46    1
   107     5     6    1
   108     5     2    1
   109     8     6   ar
   110     8    10   ar
   111     1     2    1
   112    71    70    1
   113    47    46    1
   114     6     7   ar
   115    10    11   ar
   116    13    14    1
   117    13     3   am
   118    64    62   ar
   119    46    48    1
   120    70    69    1
   121     2     3    1
   122    14    15    1
   123     3     4    2
   124    16    15    2
   125    84    83    1
   126    11     9   ar
   127    11    12    1
   128     7     9   ar
   129    62    63   ar
   130    62    61    1
   131    69    66    1
   132    61    58    1
   133    83    85    1
   134    83    80    1
   135    66    65    1
   136    66    67    1
   137    60    59    2
   138    65    59   am
   139    59    58    1
   140    78    77    1
   141    68    67    2
   142    58    57    1
   143    80    79    1
   144    80    81    1
   145    79    75   am
   146    77    74    1
   147    82    81    2
   148    75    76    2
   149    75    74    1
   150    74    73    1
