@<TRIPOS>MOLECULE
tmp/4fcfA01.pdb
 77 71 0 0 0
SMALL
GASTEIGER

@<TRIPOS>ATOM
      1  N          8.5480   32.5740    8.4790 N.3    45  SER45      -0.1217
      2  CA         8.0900   31.3760    7.7800 C.3    45  SER45       0.1889
      3  C          8.6850   30.0930    8.3200 C.2    45  SER45       0.2288
      4  O          8.2450   29.0060    7.9000 O.2    45  SER45      -0.2866
      5  CB         8.3730   31.4910    6.2940 C.3    45  SER45       0.2089
      6  OG         7.5020   32.3830    5.6430 O.3    45  SER45      -0.2183
      7  N          2.0920   37.0170   -1.4690 N.3    80  TYR80      -0.1241
      8  CA         3.0880   36.0240   -1.8750 C.3    80  TYR80       0.1605
      9  C          2.4850   34.6160   -1.8670 C.2    80  TYR80       0.2264
     10  O          2.5280   33.8910   -0.8820 O.2    80  TYR80      -0.2867
     11  CB         4.4090   36.1050   -1.1280 C.3    80  TYR80       0.0534
     12  CG         5.4570   35.3530   -1.9020 C.ar   80  TYR80      -0.0201
     13  CD1        5.9220   35.8530   -3.1160 C.ar   80  TYR80      -0.0009
     14  CD2        5.9570   34.1250   -1.4740 C.ar   80  TYR80      -0.0009
     15  CE1        6.8310   35.1900   -3.8810 C.ar   80  TYR80       0.0417
     16  CE2        6.8870   33.4230   -2.2960 C.ar   80  TYR80       0.0417
     17  CZ         7.3080   33.9820   -3.4690 C.ar   80  TYR80       0.1957
     18  OH         8.2330   33.3120   -4.2550 O.3    80  TYR80      -0.2866
     19  N          7.5250   28.7480    0.4820 N.3   105  SER105     -0.1217
     20  CA         7.1150   29.8020    1.4150 C.3   105  SER105      0.1889
     21  C          5.8210   30.5070    0.9720 C.2   105  SER105      0.2288
     22  O          5.6240   31.6820    1.2190 O.2   105  SER105     -0.2866
     23  CB         8.2040   30.8190    1.7050 C.3   105  SER105      0.2089
     24  OG         8.0540   31.1830    3.0300 O.3   105  SER105     -0.2183
     25  N         13.4430   27.6190   -2.0330 N.3   191  VAL191     -0.1245
     26  CA        13.7870   29.0120   -1.7860 C.3   191  VAL191      0.1561
     27  C         15.2760   29.1740   -1.5390 C.2   191  VAL191      0.2260
     28  O         15.9320   29.9820   -2.1730 O.2   191  VAL191     -0.2867
     29  CB        12.9400   29.5900   -0.6340 C.3   191  VAL191      0.0252
     30  CG1       13.3630   31.0120   -0.3660 C.3   191  VAL191      0.0019
     31  CG2       11.4350   29.5030   -0.9980 C.3   191  VAL191      0.0019
     32  N         14.1360   25.2180    6.1510 N.3   209  ARG209     -0.1231
     33  CA        13.1130   26.2260    5.9050 C.3   209  ARG209      0.1694
     34  C         13.6220   27.5450    6.4290 C.2   209  ARG209      0.2593
     35  O         14.1170   27.6290    7.5500 O.2   209  ARG209     -0.2718
     36  CB        11.8060   25.8890    6.6530 C.3   209  ARG209      0.0321
     37  CG        10.7520   26.9950    6.6220 C.3   209  ARG209      0.0489
     38  CD         9.7510   26.8090    5.5260 C.3   209  ARG209      0.2205
     39  NE        10.2530   26.8660    4.1630 N.pl3 209  ARG209     -0.0865
     40  CZ        10.4440   27.9800    3.4450 C.cat 209  ARG209      0.5346
     41  NH1       10.2190   29.1520    4.0480 N.pl3 209  ARG209      0.1354
     42  NH2       10.6540   27.9310    2.1180 N.pl3 209  ARG209      0.1354
     43  N         13.4800   28.5920    5.6130 N.am  210  THR210     -0.1939
     44  CA        13.8990   29.9280    5.9990 C.3   210  THR210      0.2028
     45  C         12.7050   30.8260    6.3650 C.2   210  THR210      0.2643
     46  O         11.5470   30.4800    6.1540 O.2   210  THR210     -0.2714
     47  CB        14.7990   30.6140    4.9370 C.3   210  THR210      0.1808
     48  OG1       14.0840   30.7150    3.7240 O.3   210  THR210     -0.2208
     49  CG2       16.0770   29.8260    4.6940 C.3   210  THR210      0.0379
     50  N         13.0270   32.0060    6.8850 N.am  211  GLY211     -0.1939
     51  CA        12.0710   33.0610    7.1290 C.3   211  GLY211      0.2014
     52  C         12.7040   34.4130    7.0450 C.2   211  GLY211      0.2638
     53  O         13.9180   34.5540    7.2490 O.2   211  GLY211     -0.2714
     54  N         11.8810   35.4190    6.7740 N.am  212  ALA212     -0.1977
     55  CA        12.3270   36.8110    6.7180 C.3   212  ALA212      0.1597
     56  C         11.2240   37.6910    7.2520 C.2   212  ALA212      0.2287
     57  O         10.0310   37.4100    7.0280 O.2   212  ALA212     -0.2864
     58  CB        12.6860   37.2350    5.2850 C.3   212  ALA212      0.0319
     59  N         15.3960   37.5330   10.3220 N.3   218  ARG218     -0.1245
     60  CA        15.7860   36.5340    9.3390 C.3   218  ARG218      0.1563
     61  C         16.0490   35.2520   10.0700 C.2   218  ARG218      0.2260
     62  O         16.5120   35.3080   11.2030 O.2   218  ARG218     -0.2867
     63  CB        17.0800   37.0260    8.6460 C.3   218  ARG218      0.0307
     64  CG        17.5260   36.2090    7.4560 C.3   218  ARG218      0.0489
     65  CD        16.6970   36.3920    6.2800 C.3   218  ARG218      0.2205
     66  NE        17.2070   35.6990    5.1110 N.pl3 218  ARG218     -0.0865
     67  CZ        16.5320   34.8540    4.3360 C.cat 218  ARG218      0.5346
     68  NH1       17.1300   34.4070    3.2240 N.pl3 218  ARG218      0.1354
     69  NH2       15.3190   34.4460    4.6340 N.pl3 218  ARG218      0.1354
     70  N         19.6510   42.6990    3.3800 N.3   245  MET245     -0.1245
     71  CA        19.3820   41.2660    3.2690 C.3   245  MET245      0.1570
     72  C         20.6470   40.5100    2.8660 C.2   245  MET245      0.2261
     73  O         20.9330   39.4540    3.4070 O.2   245  MET245     -0.2867
     74  CB        18.2540   41.0440    2.2670 C.3   245  MET245      0.0387
     75  CG        17.9170   39.6250    1.9650 C.3   245  MET245      0.0595
     76  SD        17.1420   38.7870    3.3720 S.3   245  MET245     -0.1393
     77  CE        16.7950   37.2720    2.6190 C.3   245  MET245      0.0692
@<TRIPOS>BOND
     1    18    17    1
     2    15    17   ar
     3    15    13   ar
     4    17    16   ar
     5    13    12   ar
     6    16    14   ar
     7    28    27    2
     8    25    26    1
     9    12    14   ar
    10    12    11    1
    11     8     9    1
    12     8     7    1
    13     8    11    1
    14     9    10    2
    15    26    27    1
    16    26    29    1
    17    31    29    1
    18    29    30    1
    19    19    20    1
    20    21    22    2
    21    21    20    1
    22    20    23    1
    23    23    24    1
    24    75    74    1
    25    75    76    1
    26    42    40    1
    27    74    71    1
    28    77    76    1
    29    72    71    1
    30    72    73    2
    31    68    67    1
    32    71    70    1
    33    40    41    1
    34    40    39    2
    35    48    47    1
    36    39    38    1
    37    67    69    1
    38    67    66    2
    39    49    47    1
    40    47    44    1
    41    66    65    1
    42    58    55    1
    43    38    37    1
    44    43    44    1
    45    43    34   am
    46     6     5    1
    47    33    32    1
    48    33    34    1
    49    33    36    1
    50    44    45    1
    51    46    45    2
    52    65    64    1
    53     5     2    1
    54    45    50   am
    55    34    35    2
    56    37    36    1
    57    55    54    1
    58    55    56    1
    59    54    52   am
    60    50    51    1
    61    57    56    2
    62    52    51    1
    63    52    53    2
    64    64    63    1
    65     2     3    1
    66     2     1    1
    67     4     3    2
    68    63    60    1
    69    60    61    1
    70    60    59    1
    71    61    62    2
