@<TRIPOS>MOLECULE
tmp/4fchA00.pdb
 108 109 0 0 0
SMALL
GASTEIGER

@<TRIPOS>ATOM
      1  N          8.9290   -2.9010  -18.1710 N.3    28  TYR28      -0.1241
      2  CA         7.7540   -3.6350  -17.7180 C.3    28  TYR28       0.1605
      3  C          6.4870   -2.9500  -18.2020 C.2    28  TYR28       0.2264
      4  O          6.2740   -1.7440  -18.0280 O.2    28  TYR28      -0.2867
      5  CB         7.7310   -3.7950  -16.1900 C.3    28  TYR28       0.0534
      6  CG         6.5090   -4.6380  -15.9140 C.ar   28  TYR28      -0.0201
      7  CD1        6.5460   -6.0090  -16.2410 C.ar   28  TYR28      -0.0009
      8  CD2        5.3360   -4.0570  -15.5260 C.ar   28  TYR28      -0.0009
      9  CE1        5.4090   -6.7870  -16.2600 C.ar   28  TYR28       0.0417
     10  CE2        4.1310   -4.8630  -15.4380 C.ar   28  TYR28       0.0417
     11  CZ         4.2670   -6.1990  -15.7730 C.ar   28  TYR28       0.1957
     12  OH         3.1290   -7.0170  -15.8040 O.3    28  TYR28      -0.2866
     13  N         10.3350    6.8720   -1.9500 N.3   122  TRP122     -0.1241
     14  CA         9.7940    6.3050   -3.1660 C.3   122  TRP122      0.1605
     15  C          9.8400    7.3390   -4.2940 C.2   122  TRP122      0.2264
     16  O          9.0290    7.2910   -5.2320 O.2   122  TRP122     -0.2867
     17  CB         8.3910    5.7580   -2.9440 C.3   122  TRP122      0.0550
     18  CG         8.2540    4.6980   -1.8940 C.ar  122  TRP122      0.0003
     19  CD1        7.8490    4.8360   -0.5890 C.ar  122  TRP122      0.0946
     20  CD2        8.5360    3.2990   -2.0850 C.ar  122  TRP122      0.0152
     21  NE1        7.8570    3.5990    0.0520 N.ar  122  TRP122     -0.2442
     22  CE2        8.2370    2.6490   -0.8600 C.ar  122  TRP122      0.0810
     23  CE3        8.9780    2.5350   -3.1690 C.ar  122  TRP122      0.0012
     24  CZ2        8.4010    1.2540   -0.6910 C.ar  122  TRP122      0.0191
     25  CZ3        9.1290    1.1420   -3.0090 C.ar  122  TRP122      0.0001
     26  CH2        8.8180    0.5150   -1.7800 C.ar  122  TRP122      0.0015
     27  N         14.5530   -2.1210   -3.0170 N.3   152  ARG152     -0.1245
     28  CA        14.0870   -1.8580   -4.4030 C.3   152  ARG152      0.1563
     29  C         15.1420   -0.9920   -5.0560 C.2   152  ARG152      0.2260
     30  O         15.7630   -0.1570   -4.3750 O.2   152  ARG152     -0.2867
     31  CB        12.6890   -1.2010   -4.4460 C.3   152  ARG152      0.0307
     32  CG        11.6100   -2.0210   -3.7260 C.3   152  ARG152      0.0489
     33  CD        11.1300   -3.2270   -4.5350 C.3   152  ARG152      0.2205
     34  NE        10.2670   -2.9020   -5.6680 N.pl3 152  ARG152     -0.0865
     35  CZ         8.9820   -2.6550   -5.5590 C.cat 152  ARG152      0.5346
     36  NH1        8.2380   -2.3640   -6.6210 N.pl3 152  ARG152      0.1354
     37  NH2        8.3460   -2.6580   -4.3670 N.pl3 152  ARG152      0.1354
     38  N          9.1460    4.8580  -12.1770 N.3   161  TRP161     -0.1227
     39  CA        10.3990    4.2150  -11.7450 C.3   161  TRP161      0.1737
     40  C         10.3680    2.7090  -11.8770 C.2   161  TRP161      0.2595
     41  O         11.3320    2.0840  -12.3000 O.2   161  TRP161     -0.2718
     42  CB        10.6810    4.6090  -10.2920 C.3   161  TRP161      0.0564
     43  CG         9.7800    4.0780   -9.2420 C.ar  161  TRP161      0.0003
     44  CD1        8.6800    4.6710   -8.6550 C.ar  161  TRP161      0.0946
     45  CD2       10.0170    2.8510   -8.5200 C.ar  161  TRP161      0.0152
     46  NE1        8.2070    3.8580   -7.6080 N.ar  161  TRP161     -0.2442
     47  CE2        9.0140    2.7540   -7.5320 C.ar  161  TRP161      0.0810
     48  CE3       10.9650    1.8290   -8.6370 C.ar  161  TRP161      0.0012
     49  CZ2        8.9620    1.6590   -6.6440 C.ar  161  TRP161      0.0191
     50  CZ3       10.9220    0.7700   -7.7330 C.ar  161  TRP161      0.0001
     51  CH2        9.9250    0.6890   -6.7670 C.ar  161  TRP161      0.0015
     52  N          9.2160    2.1180  -11.5360 N.am  162  TRP162     -0.1976
     53  CA         9.1370    0.6600  -11.4120 C.3   162  TRP162      0.1640
     54  C          8.9940   -0.0190  -12.7610 C.2   162  TRP162      0.2290
     55  O          8.9770   -1.2500  -12.8490 O.2   162  TRP162     -0.2864
     56  CB         7.9810    0.2980  -10.4280 C.3   162  TRP162      0.0576
     57  CG         6.7220    1.0290  -10.7270 C.ar  162  TRP162      0.0006
     58  CD1        6.2270    2.1270  -10.0200 C.ar  162  TRP162      0.0946
     59  CD2        5.7210    0.7370  -11.7220 C.ar  162  TRP162      0.0152
     60  NE1        5.0680    2.5370  -10.5810 N.ar  162  TRP162     -0.2442
     61  CE2        4.7170    1.7130  -11.6260 C.ar  162  TRP162      0.0810
     62  CE3        5.5850   -0.2810  -12.6900 C.ar  162  TRP162      0.0012
     63  CZ2        3.5740    1.6700  -12.4250 C.ar  162  TRP162      0.0191
     64  CZ3        4.4320   -0.3250  -13.4630 C.ar  162  TRP162      0.0001
     65  CH2        3.4590    0.6560  -13.3430 C.ar  162  TRP162      0.0015
     66  N         13.0660   -6.8300  -13.5910 N.3   176  ARG176     -0.1245
     67  CA        11.6660   -7.1630  -13.3570 C.3   176  ARG176      0.1563
     68  C         11.0040   -7.5380  -14.6850 C.2   176  ARG176      0.2260
     69  O         11.0310   -6.7830  -15.6690 O.2   176  ARG176     -0.2867
     70  CB        10.9600   -5.9770  -12.6910 C.3   176  ARG176      0.0307
     71  CG         9.4510   -6.1030  -12.6900 C.3   176  ARG176      0.0489
     72  CD         8.8500   -4.9070  -11.9180 C.3   176  ARG176      0.2205
     73  NE         7.4360   -4.8390  -12.3000 N.pl3 176  ARG176     -0.0865
     74  CZ         6.5430   -4.0200  -11.7300 C.cat 176  ARG176      0.5346
     75  NH1        6.9520   -3.1840  -10.7610 N.pl3 176  ARG176      0.1354
     76  NH2        5.3070   -4.0240  -12.1860 N.pl3 176  ARG176      0.1354
     77  N          4.2450   -8.4230  -13.1330 N.3   179  ASN179     -0.1225
     78  CA         3.4570   -7.3800  -12.4360 C.3   179  ASN179      0.1785
     79  C          3.6840   -7.4560  -10.9260 C.2   179  ASN179      0.2597
     80  O          2.8220   -7.9070  -10.1950 O.2   179  ASN179     -0.2718
     81  CB         1.9900   -7.5100  -12.8290 C.3   179  ASN179      0.1169
     82  CG         1.1830   -6.2900  -12.4400 C.2   179  ASN179      0.2627
     83  OD1        1.7850   -5.2630  -12.1410 O.2   179  ASN179     -0.2716
     84  ND2       -0.1360   -6.3290  -12.6030 N.am  179  ASN179     -0.0877
     85  N          4.8010   -6.9300  -10.4750 N.am  180  LEU180     -0.1966
     86  CA         5.2160   -6.8950   -9.0880 C.3   180  LEU180      0.1728
     87  C          4.3410   -5.8220   -8.4200 C.2   180  LEU180      0.2616
     88  O          4.4440   -4.6310   -8.7860 O.2   180  LEU180     -0.2715
     89  CB         6.6980   -6.5600   -9.0320 C.3   180  LEU180      0.0311
     90  CG         7.3990   -6.6560   -7.6810 C.3   180  LEU180      0.0022
     91  CD1        8.9050   -6.4480   -7.8370 C.3   180  LEU180      0.0001
     92  CD2        6.8980   -5.6460   -6.6370 C.3   180  LEU180      0.0001
     93  N          3.4950   -6.1920   -7.4750 N.am  181  ILE181     -0.1963
     94  CA         2.5820   -5.2240   -6.8420 C.3   181  ILE181      0.1727
     95  C          3.2900   -4.5630   -5.6590 C.2   181  ILE181      0.2616
     96  O          3.5080   -3.3510   -5.6740 O.2   181  ILE181     -0.2715
     97  CB         1.3000   -5.9320   -6.3790 C.3   181  ILE181      0.0290
     98  CG1        0.7030   -6.7080   -7.5450 C.3   181  ILE181      0.0022
     99  CG2        0.3880   -4.8780   -5.6820 C.3   181  ILE181      0.0023
    100  CD1        0.2900   -5.7890   -8.6470 C.3   181  ILE181      0.0001
    101  N          3.6560   -5.3730   -4.6540 N.am  182  ASP182     -0.1971
    102  CA         4.2260   -4.9420   -3.3810 C.3   182  ASP182      0.1709
    103  C          5.6410   -5.4380   -3.1690 C.2   182  ASP182      0.2293
    104  O          6.4540   -4.7420   -2.6080 O.2   182  ASP182     -0.2864
    105  CB         3.3350   -5.3600   -2.2010 C.3   182  ASP182      0.1436
    106  CG         3.8310   -4.9000   -0.8430 C.2   182  ASP182      0.3671
    107  OD1        4.2350   -3.7490   -0.7320 O.co2 182  ASP182     -0.2456
    108  OD2        3.5750   -5.6810    0.1010 O.co2 182  ASP182     -0.2456
@<TRIPOS>BOND
     1     3     4    2
     2     3     2    1
     3     1     2    1
     4     2     5    1
     5     9     7   ar
     6     9    11   ar
     7     7     6   ar
     8     5     6    1
     9     6     8   ar
    10    12    11    1
    11    11    10   ar
    12    69    68    2
    13     8    10   ar
    14    68    67    1
    15    66    67    1
    16    64    65   ar
    17    64    62   ar
    18    67    70    1
    19    65    63   ar
    20    77    78    1
    21    55    54    2
    22    81    82    1
    23    81    78    1
    24    54    53    1
    25    70    71    1
    26    71    72    1
    27    62    59   ar
    28    84    82   am
    29    82    83    2
    30    78    79    1
    31    63    61   ar
    32    73    72    1
    33    73    74    2
    34    41    40    2
    35    76    74    1
    36    38    39    1
    37    40    39    1
    38    40    52   am
    39    39    42    1
    40    74    75    1
    41    59    61   ar
    42    59    57   ar
    43    61    60   ar
    44    52    53    1
    45    53    56    1
    46    79    85   am
    47    79    80    2
    48    57    56    1
    49    57    58   ar
    50    60    58   ar
    51    85    86    1
    52    42    43    1
    53    43    44   ar
    54    43    45   ar
    55    86    89    1
    56    86    87    1
    57    89    90    1
    58    88    87    2
    59    44    46   ar
    60   100    98    1
    61    48    45   ar
    62    48    50   ar
    63    45    47   ar
    64    87    93   am
    65    91    90    1
    66    50    51   ar
    67    90    92    1
    68    46    47   ar
    69    98    97    1
    70    47    49   ar
    71    93    94    1
    72    94    97    1
    73    94    95    1
    74    51    49   ar
    75    36    35    1
    76    97    99    1
    77    96    95    2
    78    34    35    2
    79    34    33    1
    80    95   101   am
    81    35    37    1
    82    16    15    2
    83    29    28    1
    84    29    30    2
    85   101   102    1
    86    33    32    1
    87    31    28    1
    88    31    32    1
    89    28    27    1
    90    15    14    1
    91   102   103    1
    92   102   105    1
    93   103   104    2
    94    23    25   ar
    95    23    20   ar
    96    14    17    1
    97    14    13    1
    98    25    26   ar
    99    17    18    1
   100   105   106    1
   101    20    18   ar
   102    20    22   ar
   103    18    19   ar
   104    26    24   ar
   105    22    24   ar
   106    22    21   ar
   107   106   107   ar
   108   106   108   ar
   109    19    21   ar
