@<TRIPOS>MOLECULE
tmp/4fciA00.pdb
 126 116 0 0 0
SMALL
GASTEIGER

@<TRIPOS>ATOM
      1  N         27.0240   -7.6470    6.7130 N.3    97  HIS97      -0.1241
      2  CA        26.8880   -7.4860    5.2670 C.3    97  HIS97       0.1621
      3  C         25.6170   -6.8070    4.7620 C.2    97  HIS97       0.2264
      4  O         25.4950   -6.5600    3.5580 O.2    97  HIS97      -0.2867
      5  CB        27.0360   -8.8510    4.5780 C.3    97  HIS97       0.0745
      6  CG        27.8760   -8.8120    3.3380 C.ar   97  HIS97       0.0817
      7  ND1       28.3330   -9.9500    2.7120 N.ar   97  HIS97      -0.2268
      8  CD2       28.3750   -7.7690    2.6320 C.ar   97  HIS97       0.1154
      9  CE1       29.0800   -9.6110    1.6760 C.ar   97  HIS97       0.1986
     10  NE2       29.1220   -8.2930    1.6060 N.ar   97  HIS97      -0.2212
     11  N         28.2720  -17.3600    1.3550 N.3   122  HIS122     -0.1241
     12  CA        26.8350  -17.2710    1.1030 C.3   122  HIS122      0.1621
     13  C         26.4980  -16.3090   -0.0410 C.2   122  HIS122      0.2264
     14  O         27.2850  -15.4230   -0.3740 O.2   122  HIS122     -0.2867
     15  CB        26.1210  -16.8060    2.3750 C.3   122  HIS122      0.0745
     16  CG        26.5490  -17.5380    3.6110 C.ar  122  HIS122      0.0817
     17  ND1       27.5120  -17.0500    4.4710 N.ar  122  HIS122     -0.2268
     18  CD2       26.1700  -18.7370    4.1120 C.ar  122  HIS122      0.1154
     19  CE1       27.7060  -17.9190    5.4470 C.ar  122  HIS122      0.1986
     20  NE2       26.9040  -18.9510    5.2520 N.ar  122  HIS122     -0.2212
     21  N         23.6620  -14.3590   -0.0200 N.3   124  ASP124     -0.1239
     22  CA        22.9940  -13.1940    0.5740 C.3   124  ASP124      0.1674
     23  C         22.0030  -12.5920   -0.3980 C.2   124  ASP124      0.2266
     24  O         21.9160  -11.3680   -0.5420 O.2   124  ASP124     -0.2867
     25  CB        24.0120  -12.1210    0.9430 C.3   124  ASP124      0.1410
     26  CG        24.9280  -12.5430    2.0690 C.2   124  ASP124      0.3668
     27  OD1       25.8870  -11.7920    2.3350 O.co2 124  ASP124     -0.2456
     28  OD2       24.6880  -13.6070    2.6880 O.co2 124  ASP124     -0.2456
     29  N         18.5940  -13.7070   -0.4260 N.3   126  ASN126     -0.1240
     30  CA        17.2360  -14.0420    0.0110 C.3   126  ASN126      0.1653
     31  C         16.3810  -12.7780   -0.0450 C.2   126  ASN126      0.2266
     32  O         16.8740  -11.6660    0.1700 O.2   126  ASN126     -0.2867
     33  CB        17.2200  -14.5630    1.4560 C.3   126  ASN126      0.1155
     34  CG        17.2320  -16.0760    1.5400 C.2   126  ASN126      0.2627
     35  OD1       16.4030  -16.7480    0.9330 O.2   126  ASN126     -0.2716
     36  ND2       18.1670  -16.6170    2.3080 N.am  126  ASN126     -0.0877
     37  N         13.4960  -15.5290    2.7500 N.3   131  THR131     -0.1203
     38  CA        14.2960  -15.7150    3.9560 C.3   131  THR131      0.1994
     39  C         13.5480  -16.5550    4.9850 C.2   131  THR131      0.2619
     40  O         12.3280  -16.4470    5.1250 O.2   131  THR131     -0.2717
     41  CB        14.6470  -14.3590    4.6290 C.3   131  THR131      0.1784
     42  OG1       15.5040  -14.5870    5.7570 O.3   131  THR131     -0.2211
     43  CG2       13.3770  -13.6640    5.1230 C.3   131  THR131      0.0376
     44  N         14.2780  -17.4020    5.6990 N.am  132  THR132     -0.1938
     45  CA        13.6600  -18.2080    6.7410 C.3   132  THR132      0.2028
     46  C         14.2240  -17.7380    8.0870 C.2   132  THR132      0.2642
     47  O         13.6690  -18.0340    9.1500 O.2   132  THR132     -0.2714
     48  CB        13.9440  -19.7200    6.5490 C.3   132  THR132      0.1808
     49  OG1       15.3470  -19.9700    6.6660 O.3   132  THR132     -0.2208
     50  CG2       13.4690  -20.1810    5.1760 C.3   132  THR132      0.0379
     51  N         15.3140  -16.9770    8.0270 N.am  133  SER133     -0.1949
     52  CA        15.9700  -16.4720    9.2280 C.3   133  SER133      0.1924
     53  C         15.5170  -15.0600    9.6010 C.2   133  SER133      0.2314
     54  O         15.5840  -14.6670   10.7650 O.2   133  SER133     -0.2863
     55  CB        17.4860  -16.4720    9.0310 C.3   133  SER133      0.2116
     56  OG        17.8830  -15.4220    8.1630 O.3   133  SER133     -0.2180
     57  N         17.0150  -12.4630    8.9920 N.3   135  ASN135     -0.1240
     58  CA        18.2060  -11.6310    9.1630 C.3   135  ASN135      0.1653
     59  C         18.5580  -10.9520    7.8460 C.2   135  ASN135      0.2266
     60  O         18.8110  -11.6240    6.8420 O.2   135  ASN135     -0.2867
     61  CB        19.3960  -12.4740    9.6340 C.3   135  ASN135      0.1155
     62  CG        19.1280  -13.1940   10.9500 C.2   135  ASN135      0.2627
     63  OD1       18.3840  -12.7060   11.8060 O.2   135  ASN135     -0.2716
     64  ND2       19.7540  -14.3550   11.1220 N.am  135  ASN135     -0.0877
     65  N         21.2630   -9.4770    6.7700 N.3   137  HIS137     -0.1226
     66  CA        22.6060   -9.5760    6.1960 C.3   137  HIS137      0.1752
     67  C         22.6590  -10.7120    5.1820 C.2   137  HIS137      0.2596
     68  O         23.6720  -10.9060    4.5190 O.2   137  HIS137     -0.2718
     69  CB        23.6800   -9.7900    7.2760 C.3   137  HIS137      0.0759
     70  CG        23.7140  -11.1700    7.8650 C.ar  137  HIS137      0.0818
     71  ND1       24.8220  -11.6620    8.5250 N.ar  137  HIS137     -0.2268
     72  CD2       22.7740  -12.1420    7.9390 C.ar  137  HIS137      0.1154
     73  CE1       24.5620  -12.8740    8.9810 C.ar  137  HIS137      0.1986
     74  NE2       23.3250  -13.1890    8.6390 N.ar  137  HIS137     -0.2212
     75  N         21.5530  -11.4480    5.0680 N.am  138  GLY138     -0.1957
     76  CA        21.4620  -12.5590    4.1380 C.3   138  GLY138      0.1869
     77  C         20.4770  -12.2420    3.0300 C.2   138  GLY138      0.2309
     78  O         19.9960  -13.1350    2.3230 O.2   138  GLY138     -0.2863
     79  N         27.3200  -22.5090    1.1610 N.3   177  ASP177     -0.1239
     80  CA        26.0980  -22.6140    1.9720 C.3   177  ASP177      0.1674
     81  C         25.0350  -21.6470    1.4150 C.2   177  ASP177      0.2266
     82  O         24.8930  -20.5030    1.8740 O.2   177  ASP177     -0.2867
     83  CB        26.3970  -22.2930    3.4420 C.3   177  ASP177      0.1410
     84  CG        25.2090  -22.5570    4.3570 C.2   177  ASP177      0.3668
     85  OD1       24.2570  -23.2370    3.9380 O.co2 177  ASP177     -0.2456
     86  OD2       25.2340  -22.0900    5.5090 O.co2 177  ASP177     -0.2456
     87  N         20.9200  -21.2230    0.4220 N.3   179  ASP179     -0.1239
     88  CA        19.5680  -21.7430    0.6710 C.3   179  ASP179      0.1674
     89  C         18.9300  -22.1950   -0.6430 C.2   179  ASP179      0.2266
     90  O         19.4100  -21.8420   -1.7220 O.2   179  ASP179     -0.2867
     91  CB        18.6690  -20.6680    1.2990 C.3   179  ASP179      0.1410
     92  CG        18.9990  -20.3930    2.7590 C.2   179  ASP179      0.3668
     93  OD1       19.4720  -21.3190    3.4540 O.co2 179  ASP179     -0.2456
     94  OD2       18.7570  -19.2530    3.2170 O.co2 179  ASP179     -0.2456
     95  N         17.5830  -19.2590   -2.6710 N.3   182  GLU182     -0.1245
     96  CA        18.7180  -18.5210   -3.2180 C.3   182  GLU182      0.1567
     97  C         19.2440  -19.2350   -4.4710 C.2   182  GLU182      0.2260
     98  O         19.5570  -18.6030   -5.4850 O.2   182  GLU182     -0.2867
     99  CB        19.8360  -18.4360   -2.1740 C.3   182  GLU182      0.0388
    100  CG        19.5390  -17.5160   -1.0050 C.3   182  GLU182      0.1160
    101  CD        20.6820  -17.4430   -0.0090 C.2   182  GLU182      0.3649
    102  OE1       20.9130  -18.4450    0.6990 O.co2 182  GLU182     -0.2457
    103  OE2       21.3480  -16.3880    0.0660 O.co2 182  GLU182     -0.2457
    104  N         33.1730  -10.6070    2.1860 N.3   228  ASP228     -0.1239
    105  CA        32.6200  -11.0900    3.4450 C.3   228  ASP228      0.1674
    106  C         33.6890  -12.0050    4.0370 C.2   228  ASP228      0.2266
    107  O         34.0800  -13.0100    3.4340 O.2   228  ASP228     -0.2867
    108  CB        31.3320  -11.8820    3.2150 C.3   228  ASP228      0.1410
    109  CG        30.7380  -12.4380    4.5070 C.2   228  ASP228      0.3668
    110  OD1       31.4900  -12.6490    5.4820 O.co2 228  ASP228     -0.2456
    111  OD2       29.5160  -12.6870    4.5470 O.co2 228  ASP228     -0.2456
    112  N         33.7330  -14.3530    6.0680 N.3   230  ASP230     -0.1239
    113  CA        33.4920  -15.7900    6.1420 C.3   230  ASP230      0.1674
    114  C         33.6330  -16.5100    4.8010 C.2   230  ASP230      0.2266
    115  O         33.3690  -17.7040    4.7020 O.2   230  ASP230     -0.2867
    116  CB        32.1210  -16.1070    6.7800 C.3   230  ASP230      0.1410
    117  CG        30.9380  -15.6850    5.9190 C.2   230  ASP230      0.3668
    118  OD1       31.0320  -15.7180    4.6760 O.co2 230  ASP230     -0.2456
    119  OD2       29.8870  -15.3450    6.5050 O.co2 230  ASP230     -0.2456
    120  N         28.8220  -16.3420   10.9350 N.3   242  THR242     -0.1218
    121  CA        28.3710  -17.5610   10.2800 C.3   242  THR242      0.1862
    122  C         29.4750  -18.2890    9.5050 C.2   242  THR242      0.2287
    123  O         29.4790  -18.3010    8.2710 O.2   242  THR242     -0.2866
    124  CB        27.2130  -17.2450    9.3210 C.3   242  THR242      0.1770
    125  OG1       27.5570  -16.1010    8.5280 O.3   242  THR242     -0.2211
    126  CG2       25.9440  -16.9560   10.0940 C.3   242  THR242      0.0375
@<TRIPOS>BOND
     1    98    97    2
     2    97    96    1
     3    96    95    1
     4    96    99    1
     5    99   100    1
     6    90    89    2
     7   100   101    1
     8    89    88    1
     9    24    23    2
    10    29    30    1
    11    23    22    1
    12    14    13    2
    13    31    30    1
    14    31    32    2
    15    13    12    1
    16    21    22    1
    17   101   103   ar
    18   101   102   ar
    19    30    33    1
    20    87    88    1
    21    22    25    1
    22    88    91    1
    23    35    34    2
    24    25    26    1
    25    12    11    1
    26    12    15    1
    27    79    80    1
    28    91    92    1
    29    81    82    2
    30    81    80    1
    31    33    34    1
    32    34    36   am
    33    10     9   ar
    34    10     8   ar
    35     9     7   ar
    36    80    83    1
    37    26    27   ar
    38    26    28   ar
    39   104   105    1
    40    78    77    2
    41    15    16    1
    42     8     6   ar
    43     7     6   ar
    44    37    38    1
    45    92    94   ar
    46    92    93   ar
    47    77    76    1
    48   108   105    1
    49   108   109    1
    50     6     5    1
    51   107   106    2
    52    83    84    1
    53   105   106    1
    54     4     3    2
    55    16    18   ar
    56    16    17   ar
    57    85    84   ar
    58    38    41    1
    59    38    39    1
    60    18    20   ar
    61    76    75    1
    62    84    86   ar
    63    17    19   ar
    64   109   111   ar
    65   109   110   ar
    66    68    67    2
    67     5     2    1
    68    41    43    1
    69    41    42    1
    70   118   117   ar
    71   115   114    2
    72     3     2    1
    73   114   113    1
    74    39    40    2
    75    39    44   am
    76    75    67   am
    77    50    48    1
    78    67    66    1
    79    20    19   ar
    80     2     1    1
    81    44    45    1
    82   117   119   ar
    83   117   116    1
    84   112   113    1
    85   113   116    1
    86    66    65    1
    87    66    69    1
    88    48    49    1
    89    48    45    1
    90    45    46    1
    91    60    59    2
    92    69    70    1
    93    59    58    1
    94    70    72   ar
    95    70    71   ar
    96    72    74   ar
    97    51    46   am
    98    51    52    1
    99    46    47    2
   100    56    55    1
   101   123   122    2
   102    71    73   ar
   103   125   124    1
   104    74    73   ar
   105    57    58    1
   106    55    52    1
   107    58    61    1
   108    52    53    1
   109   124   126    1
   110   124   121    1
   111   122   121    1
   112    53    54    2
   113    61    62    1
   114   121   120    1
   115    62    64   am
   116    62    63    2
