@<TRIPOS>MOLECULE
tmp/4fcmB00.pdb
 162 159 0 0 0
SMALL
GASTEIGER

@<TRIPOS>ATOM
      1  N         -4.4360   -5.0650  -32.0170 N.3     6  PRO6       -0.2116
      2  CA        -3.3260   -4.9130  -31.0660 C.3     6  PRO6        0.1372
      3  C         -3.6500   -4.0370  -29.8570 C.2     6  PRO6        0.2244
      4  O         -4.5140   -3.1630  -29.9280 O.2     6  PRO6       -0.2868
      5  CB        -2.2340   -4.2420  -31.9100 C.3     6  PRO6        0.0268
      6  CG        -2.6230   -4.5020  -33.3310 C.3     6  PRO6        0.0207
      7  CD        -4.1110   -4.4860  -33.3300 C.3     6  PRO6        0.0892
      8  N          1.4290   -2.1830  -27.7210 N.3    10  LEU10      -0.1231
      9  CA         2.0360   -2.5930  -28.9800 C.3    10  LEU10       0.1693
     10  C          2.0280   -1.4360  -29.9710 C.2    10  LEU10       0.2591
     11  O          3.0230   -1.1760  -30.6480 O.2    10  LEU10      -0.2718
     12  CB         1.2790   -3.7840  -29.5640 C.3    10  LEU10       0.0284
     13  CG         1.1460   -5.0010  -28.6470 C.3    10  LEU10       0.0019
     14  CD1        0.0390   -5.9150  -29.1370 C.3    10  LEU10       0.0001
     15  CD2        2.4650   -5.7540  -28.5550 C.3    10  LEU10       0.0001
     16  N          0.8940   -0.7470  -30.0480 N.am   11  VAL11      -0.1980
     17  CA         0.7360    0.3900  -30.9460 C.3    11  VAL11       0.1595
     18  C          1.6580    1.5290  -30.5270 C.2    11  VAL11       0.2287
     19  O          2.2720    2.1900  -31.3660 O.2    11  VAL11      -0.2864
     20  CB        -0.7180    0.9040  -30.9460 C.3    11  VAL11       0.0276
     21  CG1       -0.9040    1.9810  -32.0040 C.3    11  VAL11       0.0022
     22  CG2       -1.6880   -0.2440  -31.1710 C.3    11  VAL11       0.0022
     23  N          5.5160    0.4340  -31.3110 N.3    14  GLU14      -0.1231
     24  CA         5.8750    0.3480  -32.7180 C.3    14  GLU14       0.1699
     25  C          5.9650    1.7540  -33.2960 C.2    14  GLU14       0.2592
     26  O          6.7720    2.0240  -34.1840 O.2    14  GLU14      -0.2718
     27  CB         4.8480   -0.4840  -33.4880 C.3    14  GLU14       0.0402
     28  CG         5.1200   -0.5940  -34.9820 C.3    14  GLU14       0.1161
     29  CD         6.3440   -1.4310  -35.3040 C.2    14  GLU14       0.3649
     30  OE1        6.8460   -2.1380  -34.4050 O.co2  14  GLU14      -0.2457
     31  OE2        6.8040   -1.3830  -36.4650 O.co2  14  GLU14      -0.2457
     32  N          5.1310    2.6500  -32.7770 N.am   15  PHE15      -0.1976
     33  CA         5.1620    4.0470  -33.1850 C.3    15  PHE15       0.1639
     34  C          6.4490    4.7210  -32.7260 C.2    15  PHE15       0.2290
     35  O          7.0980    5.4280  -33.4980 O.2    15  PHE15      -0.2864
     36  CB         3.9560    4.8020  -32.6260 C.3    15  PHE15       0.0560
     37  CG         4.1450    6.2890  -32.5880 C.ar   15  PHE15      -0.0200
     38  CD1        4.0860    7.0370  -33.7510 C.ar   15  PHE15      -0.0042
     39  CD2        4.3920    6.9380  -31.3900 C.ar   15  PHE15      -0.0042
     40  CE1        4.2670    8.4050  -33.7200 C.ar   15  PHE15      -0.0003
     41  CE2        4.5740    8.3050  -31.3530 C.ar   15  PHE15      -0.0003
     42  CZ         4.5100    9.0400  -32.5190 C.ar   15  PHE15      -0.0000
     43  N          9.1930    3.6640  -34.9640 N.3    18  GLN18      -0.1245
     44  CA         9.1250    4.3410  -36.2560 C.3    18  GLN18       0.1566
     45  C          9.4260    5.8320  -36.1460 C.2    18  GLN18       0.2260
     46  O          9.9350    6.4400  -37.0860 O.2    18  GLN18      -0.2867
     47  CB         7.7490    4.1430  -36.8980 C.3    18  GLN18       0.0367
     48  CG         7.4250    2.7080  -37.2730 C.3    18  GLN18       0.0905
     49  CD         6.0990    2.5850  -37.9990 C.2    18  GLN18       0.2608
     50  OE1        5.5750    3.5660  -38.5280 O.2    18  GLN18      -0.2717
     51  NE2        5.5470    1.3780  -38.0240 N.am   18  GLN18      -0.0878
     52  N          4.5640   13.6190  -41.7320 N.3    32  ARG32      -0.1231
     53  CA         3.4960   12.7560  -42.2270 C.3    32  ARG32       0.1694
     54  C          2.6440   12.2140  -41.0820 C.2    32  ARG32       0.2592
     55  O          1.5030   11.8000  -41.2860 O.2    32  ARG32      -0.2718
     56  CB         4.0740   11.5920  -43.0380 C.3    32  ARG32       0.0321
     57  CG         5.0040   12.0040  -44.1710 C.3    32  ARG32       0.0489
     58  CD         4.3000   12.8740  -45.2000 C.3    32  ARG32       0.2205
     59  NE         5.1710   13.1790  -46.3320 N.pl3  32  ARG32      -0.0865
     60  CZ         4.8410   13.9870  -47.3360 C.cat  32  ARG32       0.5346
     61  NH1        3.6560   14.5800  -47.3520 N.pl3  32  ARG32       0.1354
     62  NH2        5.7000   14.2040  -48.3230 N.pl3  32  ARG32       0.1354
     63  N          3.2090   12.2250  -39.8770 N.am   33  PHE33      -0.1962
     64  CA         2.5360   11.7040  -38.6910 C.3    33  PHE33       0.1771
     65  C          1.3980   12.5980  -38.2070 C.2    33  PHE33       0.2620
     66  O          0.5440   12.1590  -37.4360 O.2    33  PHE33      -0.2715
     67  CB         3.5400   11.5350  -37.5470 C.3    33  PHE33       0.0574
     68  CG         4.5040   10.4010  -37.7390 C.ar   33  PHE33      -0.0200
     69  CD1        4.0980    9.2170  -38.3300 C.ar   33  PHE33      -0.0042
     70  CD2        5.8190   10.5190  -37.3210 C.ar   33  PHE33      -0.0042
     71  CE1        4.9870    8.1740  -38.5020 C.ar   33  PHE33      -0.0003
     72  CE2        6.7130    9.4800  -37.4910 C.ar   33  PHE33      -0.0003
     73  CZ         6.2960    8.3050  -38.0820 C.ar   33  PHE33      -0.0000
     74  N          1.3860   13.8490  -38.6560 N.am   34  TYR34      -0.1960
     75  CA         0.5230   14.8620  -38.0530 C.3    34  TYR34       0.1771
     76  C         -0.6740   15.2690  -38.9100 C.2    34  TYR34       0.2620
     77  O         -0.7740   14.8990  -40.0800 O.2    34  TYR34      -0.2715
     78  CB         1.3490   16.0970  -37.6810 C.3    34  TYR34       0.0574
     79  CG         2.5580   15.7750  -36.8300 C.ar   34  TYR34      -0.0198
     80  CD1        2.4730   15.7700  -35.4450 C.ar   34  TYR34      -0.0009
     81  CD2        3.7810   15.4670  -37.4130 C.ar   34  TYR34      -0.0009
     82  CE1        3.5740   15.4730  -34.6640 C.ar   34  TYR34       0.0417
     83  CE2        4.8850   15.1670  -36.6400 C.ar   34  TYR34       0.0417
     84  CZ         4.7760   15.1720  -35.2670 C.ar   34  TYR34       0.1957
     85  OH         5.8740   14.8750  -34.4920 O.3    34  TYR34      -0.2866
     86  N         -1.5790   16.0320  -38.3040 N.am   35  GLY35      -0.1954
     87  CA        -2.7570   16.5370  -38.9860 C.3    35  GLY35       0.1869
     88  C         -2.9310   18.0260  -38.7520 C.2    35  GLY35       0.2309
     89  O         -2.0310   18.6850  -38.2310 O.2    35  GLY35      -0.2863
     90  N          0.4350   20.3870  -40.2230 N.3    55  GLN55      -0.1245
     91  CA         1.5690   19.7330  -40.8700 C.3    55  GLN55       0.1566
     92  C          2.6020   20.7250  -41.3970 C.2    55  GLN55       0.2260
     93  O          3.7890   20.4100  -41.4740 O.2    55  GLN55      -0.2867
     94  CB         1.1020   18.8210  -42.0060 C.3    55  GLN55       0.0367
     95  CG         0.7020   17.4240  -41.5640 C.3    55  GLN55       0.0905
     96  CD         0.6400   16.4470  -42.7220 C.2    55  GLN55       0.2608
     97  OE1        0.7370   16.8390  -43.8850 O.2    55  GLN55      -0.2717
     98  NE2        0.4860   15.1650  -42.4090 N.am   55  GLN55      -0.0878
     99  N         -1.8880    9.3800  -29.7080 N.3   111  LEU111     -0.1245
    100  CA        -2.2100    8.7820  -30.9960 C.3   111  LEU111      0.1561
    101  C         -3.7170    8.6100  -31.1490 C.2   111  LEU111      0.2260
    102  O         -4.3700    8.0010  -30.3030 O.2   111  LEU111     -0.2867
    103  CB        -1.4980    7.4360  -31.1500 C.3   111  LEU111      0.0270
    104  CG         0.0290    7.4810  -31.0400 C.3   111  LEU111      0.0019
    105  CD1        0.6140    6.0780  -31.0330 C.3   111  LEU111      0.0001
    106  CD2        0.6270    8.3080  -32.1680 C.3   111  LEU111      0.0001
    107  N         -7.1430    7.8180  -37.4760 N.3   114  GLU114     -0.1245
    108  CA        -7.3140    8.6600  -38.6430 C.3   114  GLU114      0.1567
    109  C         -8.7980    8.7030  -39.0140 C.2   114  GLU114      0.2260
    110  O         -9.1850    9.5340  -39.8140 O.2   114  GLU114     -0.2867
    111  CB        -6.5520    8.0570  -39.8330 C.3   114  GLU114      0.0388
    112  CG        -6.2690    8.9770  -41.0370 C.3   114  GLU114      0.1160
    113  CD        -5.5590    8.2260  -42.1740 C.2   114  GLU114      0.3649
    114  OE1       -4.9490    7.1700  -41.8990 O.co2 114  GLU114     -0.2457
    115  OE2       -5.6100    8.6730  -43.3400 O.co2 114  GLU114     -0.2457
    116  N         -7.1220    0.5340  -38.8390 N.3   119  ASN119     -0.1225
    117  CA        -6.2810    0.6430  -37.6500 C.3   119  ASN119      0.1785
    118  C         -5.0260    1.4980  -37.8350 C.2   119  ASN119      0.2597
    119  O         -3.9350    1.1080  -37.4180 O.2   119  ASN119     -0.2718
    120  CB        -5.9000   -0.7530  -37.1500 C.3   119  ASN119      0.1169
    121  CG        -6.0960   -0.9110  -35.6560 C.2   119  ASN119      0.2627
    122  OD1       -5.1640   -0.7300  -34.8730 O.2   119  ASN119     -0.2716
    123  ND2       -7.3150   -1.2520  -35.2530 N.am  119  ASN119     -0.0877
    124  N         -5.1830    2.6600  -38.4610 N.am  120  LYS120     -0.1966
    125  CA        -4.0670    3.5840  -38.6340 C.3   120  LYS120      0.1728
    126  C         -4.2080    4.7910  -37.7120 C.2   120  LYS120      0.2616
    127  O         -5.2900    5.3640  -37.5820 O.2   120  LYS120     -0.2715
    128  CB        -3.9480    4.0340  -40.0920 C.3   120  LYS120      0.0311
    129  CG        -3.5320    2.9250  -41.0460 C.3   120  LYS120      0.0038
    130  CD        -3.2870    3.4600  -42.4480 C.3   120  LYS120      0.0206
    131  CE        -2.9060    2.3410  -43.4040 C.3   120  LYS120      0.1093
    132  NZ        -2.7040    2.8400  -44.7920 N.3   120  LYS120     -0.1314
    133  N         -3.1050    5.1700  -37.0740 N.am  121  PHE121     -0.1960
    134  CA        -3.1150    6.2630  -36.1100 C.3   121  PHE121      0.1771
    135  C         -2.2630    7.4360  -36.5790 C.2   121  PHE121      0.2620
    136  O         -1.3720    7.2750  -37.4130 O.2   121  PHE121     -0.2715
    137  CB        -2.6110    5.7760  -34.7490 C.3   121  PHE121      0.0574
    138  CG        -3.4620    4.7030  -34.1320 C.ar  121  PHE121     -0.0200
    139  CD1       -4.4650    5.0270  -33.2330 C.ar  121  PHE121     -0.0042
    140  CD2       -3.2560    3.3690  -34.4450 C.ar  121  PHE121     -0.0042
    141  CE1       -5.2480    4.0430  -32.6610 C.ar  121  PHE121     -0.0003
    142  CE2       -4.0360    2.3800  -33.8770 C.ar  121  PHE121     -0.0003
    143  CZ        -5.0340    2.7180  -32.9830 C.ar  121  PHE121     -0.0000
    144  N         -2.5430    8.6160  -36.0360 N.am  122  TYR122     -0.1960
    145  CA        -1.7370    9.8000  -36.3080 C.3   122  TYR122      0.1771
    146  C         -1.4680   10.5500  -35.0080 C.2   122  TYR122      0.2619
    147  O         -2.2210   10.4220  -34.0420 O.2   122  TYR122     -0.2715
    148  CB        -2.4310   10.7130  -37.3240 C.3   122  TYR122      0.0574
    149  CG        -3.4480   11.6590  -36.7240 C.ar  122  TYR122     -0.0198
    150  CD1       -3.1510   13.0050  -36.5460 C.ar  122  TYR122     -0.0009
    151  CD2       -4.7040   11.2100  -36.3400 C.ar  122  TYR122     -0.0009
    152  CE1       -4.0750   13.8750  -36.0000 C.ar  122  TYR122      0.0417
    153  CE2       -5.6360   12.0730  -35.7930 C.ar  122  TYR122      0.0417
    154  CZ        -5.3160   13.4040  -35.6250 C.ar  122  TYR122      0.1957
    155  OH        -6.2390   14.2670  -35.0810 O.3   122  TYR122     -0.2866
    156  N         -0.3910   11.3280  -34.9840 N.am  123  VAL123     -0.1977
    157  CA        -0.0170   12.0700  -33.7860 C.3   123  VAL123      0.1596
    158  C         -0.9050   13.2920  -33.5850 C.2   123  VAL123      0.2287
    159  O         -0.9800   14.1660  -34.4480 O.2   123  VAL123     -0.2864
    160  CB         1.4510   12.5290  -33.8380 C.3   123  VAL123      0.0276
    161  CG1        1.8260   13.2450  -32.5500 C.3   123  VAL123      0.0022
    162  CG2        2.3630   11.3430  -34.0720 C.3   123  VAL123      0.0022
@<TRIPOS>BOND
     1    62    60    1
     2    61    60    1
     3    60    59    2
     4    59    58    1
     5    58    57    1
     6   132   131    1
     7    57    56    1
     8    97    96    2
     9   131   130    1
    10   115   113   ar
    11    56    53    1
    12    96    98   am
    13    96    95    1
    14   130   129    1
    15    53    52    1
    16    53    54    1
    17   113   114   ar
    18   113   112    1
    19    94    95    1
    20    94    91    1
    21    93    92    2
    22    92    91    1
    23    55    54    2
    24    54    63   am
    25   129   128    1
    26   112   111    1
    27    91    90    1
    28   128   125    1
    29    77    76    2
    30    63    64    1
    31   111   108    1
    32   110   109    2
    33   109   108    1
    34    87    88    1
    35    87    86    1
    36    76    86   am
    37    76    75    1
    38   116   117    1
    39    88    89    2
    40    64    65    1
    41    64    67    1
    42    74    65   am
    43    74    75    1
    44   108   107    1
    45   125   124    1
    46   125   126    1
    47    50    49    2
    48    71    69   ar
    49    71    73   ar
    50   124   118   am
    51    69    68   ar
    52    65    66    2
    53    73    72   ar
    54    75    78    1
    55    51    49   am
    56    49    48    1
    57   118   117    1
    58   118   119    2
    59    68    67    1
    60    68    70   ar
    61   126   127    2
    62   126   133   am
    63    78    79    1
    64   117   120    1
    65    72    70   ar
    66    81    79   ar
    67    81    83   ar
    68   136   135    2
    69   148   149    1
    70   148   145    1
    71    48    47    1
    72   120   121    1
    73    46    45    2
    74   133   134    1
    75    47    44    1
    76    79    80   ar
    77   149   150   ar
    78   149   151   ar
    79    83    84   ar
    80   135   134    1
    81   135   144   am
    82   150   152   ar
    83    31    29   ar
    84   151   153   ar
    85   145   144    1
    86   145   146    1
    87    44    45    1
    88    44    43    1
    89   134   137    1
    90   152   154   ar
    91   153   154   ar
    92   121   123   am
    93   121   122    2
    94   154   155    1
    95    80    82   ar
    96    29    28    1
    97    29    30   ar
    98    84    82   ar
    99    84    85    1
   100   146   156   am
   101   146   147    2
   102   156   157    1
   103    28    27    1
   104   137   138    1
   105   159   158    2
   106   140   138   ar
   107   140   142   ar
   108    26    25    2
   109   138   139   ar
   110   162   160    1
   111   142   143   ar
   112   160   157    1
   113   160   161    1
   114   157   158    1
   115    38    40   ar
   116    38    37   ar
   117    40    42   ar
   118    35    34    2
   119    27    24    1
   120     6     7    1
   121     6     5    1
   122     7     1    1
   123    25    32   am
   124    25    24    1
   125   139   141   ar
   126    33    32    1
   127    33    34    1
   128    33    36    1
   129   143   141   ar
   130    24    23    1
   131    36    37    1
   132    37    39   ar
   133    42    41   ar
   134   106   104    1
   135     1     2    1
   136    21    20    1
   137     5     2    1
   138    39    41   ar
   139    19    18    2
   140    22    20    1
   141   103   104    1
   142   103   100    1
   143   101   100    1
   144   101   102    2
   145     2     3    1
   146   104   105    1
   147   100    99    1
   148    17    20    1
   149    17    18    1
   150    17    16    1
   151    11    10    2
   152    16    10   am
   153    10     9    1
   154     4     3    2
   155    12     9    1
   156    12    13    1
   157    14    13    1
   158     9     8    1
   159    13    15    1
