@<TRIPOS>MOLECULE
tmp/4fcqA00.pdb
 158 146 0 0 0
SMALL
GASTEIGER

@<TRIPOS>ATOM
      1  N         30.7110   11.0690   16.0220 N.3    33  LEU33      -0.1245
      2  CA        30.1270   11.6190   17.2310 C.3    33  LEU33       0.1561
      3  C         28.7930   10.9040   17.5700 C.2    33  LEU33       0.2260
      4  O         28.4940   10.6200   18.7470 O.2    33  LEU33      -0.2867
      5  CB        29.9330   13.1700   17.1290 C.3    33  LEU33       0.0270
      6  CG        31.2230   13.9990   17.0720 C.3    33  LEU33       0.0019
      7  CD1       30.9700   15.5030   16.9920 C.3    33  LEU33       0.0001
      8  CD2       32.1050   13.6550   18.2780 C.3    33  LEU33       0.0001
      9  N         29.8560    7.5510   19.0760 N.3    36  ASN36      -0.1225
     10  CA        30.1530    7.6420   20.5040 C.3    36  ASN36       0.1785
     11  C         28.8790    7.8340   21.4040 C.2    36  ASN36       0.2597
     12  O         28.8170    7.3230   22.4900 O.2    36  ASN36      -0.2718
     13  CB        31.1080    8.8340   20.8100 C.3    36  ASN36       0.1169
     14  CG        32.5690    8.5970   20.3040 C.2    36  ASN36       0.2627
     15  OD1       32.8840    7.5550   19.7640 O.2    36  ASN36      -0.2716
     16  ND2       33.4260    9.5920   20.4570 N.am   36  ASN36      -0.0877
     17  N         27.9520    8.7030   20.9940 N.am   37  SER37      -0.1952
     18  CA        26.6790    8.8500   21.7110 C.3    37  SER37       0.1924
     19  C         25.9860    7.4970   21.8420 C.2    37  SER37       0.2314
     20  O         25.5500    7.1450   22.8980 O.2    37  SER37      -0.2863
     21  CB        25.7390    9.7520   20.9410 C.3    37  SER37       0.2116
     22  OG        26.2380   11.0720   20.9260 O.3    37  SER37      -0.2180
     23  N         27.7310    5.3870   24.4090 N.3    40  ALA40      -0.1245
     24  CA        27.3710    5.8950   25.7330 C.3    40  ALA40       0.1562
     25  C         25.9630    5.5100   26.1680 C.2    40  ALA40       0.2260
     26  O         25.6860    5.3390   27.3700 O.2    40  ALA40      -0.2867
     27  CB        27.5460    7.4300   25.8000 C.3    40  ALA40       0.0290
     28  N         25.9040    1.8910   27.0810 N.3    43  LYS43      -0.1245
     29  CA        26.4100    1.7740   28.4720 C.3    43  LYS43       0.1561
     30  C         25.4060    2.0950   29.5590 C.2    43  LYS43       0.2260
     31  O         25.2970    1.3550   30.5390 O.2    43  LYS43      -0.2867
     32  CB        27.6420    2.6460   28.7630 C.3    43  LYS43       0.0271
     33  CG        28.9300    2.0910   28.1540 C.3    43  LYS43       0.0035
     34  CD        30.0330    3.1440   28.0680 C.3    43  LYS43       0.0206
     35  CE        31.0590    2.7470   27.0090 C.3    43  LYS43       0.1093
     36  NZ        32.0730    3.8200   26.7670 N.3    43  LYS43      -0.1314
     37  N         25.5160   17.9570   19.4190 N.3    76  ILE76      -0.1245
     38  CA        25.0110   16.5320   19.4010 C.3    76  ILE76       0.1561
     39  C         24.7860   16.2830   20.8750 C.2    76  ILE76       0.2260
     40  O         25.7490   16.4180   21.6450 O.2    76  ILE76      -0.2867
     41  CB        26.0340   15.5380   18.8330 C.3    76  ILE76       0.0252
     42  CG1       26.2780   15.7770   17.3350 C.3    76  ILE76       0.0019
     43  CG2       25.5240   14.0720   18.9170 C.3    76  ILE76       0.0019
     44  CD1       27.1630   16.9700   16.9460 C.3    76  ILE76       0.0001
     45  N         23.2020   13.5350   23.7500 N.3    78  ASP78      -0.1239
     46  CA        22.6640   12.2010   24.0510 C.3    78  ASP78       0.1674
     47  C         22.4090   12.1130   25.5180 C.2    78  ASP78       0.2266
     48  O         23.0230   12.8580   26.3230 O.2    78  ASP78      -0.2867
     49  CB        23.6230   11.1010   23.6890 C.3    78  ASP78       0.1410
     50  CG        24.9090   11.1720   24.4990 C.2    78  ASP78       0.3668
     51  OD1       24.9230   10.9220   25.7600 O.co2  78  ASP78      -0.2456
     52  OD2       25.9080   11.5050   23.8300 O.co2  78  ASP78      -0.2456
     53  N         25.4590    7.5820   29.3890 N.3    81  ILE81      -0.1231
     54  CA        25.9480    7.4310   30.7430 C.3    81  ILE81       0.1692
     55  C         26.7180    8.6650   31.2890 C.2    81  ILE81       0.2593
     56  O         26.9460    8.7780   32.4880 O.2    81  ILE81      -0.2718
     57  CB        26.8080    6.1690   30.8350 C.3    81  ILE81       0.0266
     58  CG1       26.7910    5.6380   32.2780 C.3    81  ILE81       0.0019
     59  CG2       28.2200    6.4520   30.3210 C.3    81  ILE81       0.0020
     60  CD1       27.5920    4.3810   32.4610 C.3    81  ILE81       0.0001
     61  N         27.1690    9.5690   30.4210 N.am   82  GLY82      -0.1942
     62  CA        27.8560   10.7540   30.9340 C.3    82  GLY82       0.2014
     63  C         29.2510   10.4190   31.4070 C.2    82  GLY82       0.2638
     64  O         29.6920    9.2760   31.3640 O.2    82  GLY82      -0.2714
     65  N         29.9630   11.4400   31.8220 N.am   83  MET83      -0.1976
     66  CA        31.3590   11.2640   32.2270 C.3    83  MET83       0.1605
     67  C         31.5100   11.9820   33.5190 C.2    83  MET83       0.2287
     68  O         30.9070   13.0540   33.7400 O.2    83  MET83      -0.2864
     69  CB        32.2870   11.8910   31.1780 C.3    83  MET83       0.0413
     70  CG        32.5570   10.9960   29.9700 C.3    83  MET83       0.0598
     71  SD        33.4780   11.8400   28.6870 S.3    83  MET83      -0.1393
     72  CE        32.0650   12.7800   28.0050 C.3    83  MET83       0.0692
     73  N         36.8080   10.9330   34.1740 N.3    87  ASP87      -0.1295
     74  CA        36.5750   10.4820   32.7570 C.3    87  ASP87       0.1359
     75  C         36.9770   11.5470   31.7370 C.3    87  ASP87       0.2015
     76  O         37.7790   11.2540   30.7670 O.3    87  ASP87      -0.2188
     77  CB        35.1150   10.0490   32.5230 C.3    87  ASP87       0.1357
     78  CG        34.7620    8.7190   33.2300 C.2    87  ASP87       0.3664
     79  OD1       35.7140    7.8890   33.3920 O.co2  87  ASP87      -0.2456
     80  OD2       33.5520    8.5140   33.6050 O.co2  87  ASP87      -0.2456
     81  N         41.2550   11.8110   28.8750 N.3    91  ASN91      -0.1225
     82  CA        40.5960   12.2610   27.6680 C.3    91  ASN91       0.1785
     83  C         39.2410   11.7050   27.2400 C.2    91  ASN91       0.2597
     84  O         39.1670   10.8160   26.4320 O.2    91  ASN91      -0.2718
     85  CB        41.5910   12.2020   26.5610 C.3    91  ASN91       0.1169
     86  CG        42.5210   13.3730   26.5860 C.2    91  ASN91       0.2627
     87  OD1       42.1650   14.4580   26.1580 O.2    91  ASN91      -0.2716
     88  ND2       43.7080   13.1590   27.0810 N.am   91  ASN91      -0.0877
     89  N         38.1800   12.2850   27.7880 N.am   92  LEU92      -0.1966
     90  CA        36.8670   11.8440   27.5420 C.3    92  LEU92       0.1728
     91  C         36.7420   10.3310   27.4770 C.2    92  LEU92       0.2617
     92  O         36.1970    9.8090   26.5600 O.2    92  LEU92      -0.2715
     93  CB        36.3730   12.5800   26.3140 C.3    92  LEU92       0.0311
     94  CG        36.7550   14.0490   26.4890 C.3    92  LEU92       0.0022
     95  CD1       38.0430   14.4720   25.8720 C.3    92  LEU92       0.0001
     96  CD2       35.6790   15.0070   26.1080 C.3    92  LEU92       0.0001
     97  N         37.2090    9.6440   28.5020 N.am   93  GLY93      -0.1940
     98  CA        36.9210    8.2100   28.6510 C.3    93  GLY93       0.2014
     99  C         37.5590    7.2940   27.5790 C.2    93  GLY93       0.2639
    100  O         37.2790    6.1060   27.5500 O.2    93  GLY93      -0.2714
    101  N         38.4160    7.8360   26.7080 N.am   94  THR94      -0.1950
    102  CA        39.1010    7.0580   25.6530 C.3    94  THR94       0.1897
    103  C         40.5270    6.5310   26.0430 C.2    94  THR94       0.2313
    104  O         41.1410    6.9780   27.0520 O.2    94  THR94      -0.2863
    105  CB        39.1820    7.8130   24.3010 C.3    94  THR94       0.1794
    106  OG1       40.2300    8.7830   24.3200 O.3    94  THR94      -0.2208
    107  CG2       37.8450    8.4800   23.9270 C.3    94  THR94       0.0378
    108  N         39.4300    6.7550   18.7940 N.3   121  VAL121     -0.1245
    109  CA        39.7000    8.1910   18.9230 C.3   121  VAL121      0.1561
    110  C         38.8430    9.0850   17.9840 C.2   121  VAL121      0.2260
    111  O         39.1520   10.2630   17.7320 O.2   121  VAL121     -0.2867
    112  CB        41.1850    8.5030   18.7290 C.3   121  VAL121      0.0252
    113  CG1       41.9390    8.0020   19.9390 C.3   121  VAL121      0.0019
    114  CG2       41.7060    7.9120   17.4130 C.3   121  VAL121      0.0019
    115  N         36.3300   10.8540   18.3980 N.3   123  PHE123     -0.1227
    116  CA        35.9180   12.1740   18.9400 C.3   123  PHE123      0.1736
    117  C         36.6920   13.3430   18.2940 C.2   123  PHE123      0.2595
    118  O         36.1000   14.3750   17.8700 O.2   123  PHE123     -0.2718
    119  CB        35.9940   12.1980   20.4910 C.3   123  PHE123      0.0547
    120  CG        35.8460   13.5990   21.0840 C.ar  123  PHE123     -0.0202
    121  CD1       34.5910   14.2500   21.0910 C.ar  123  PHE123     -0.0042
    122  CD2       36.9750   14.3140   21.5200 C.ar  123  PHE123     -0.0042
    123  CE1       34.4760   15.5460   21.5700 C.ar  123  PHE123     -0.0003
    124  CE2       36.8530   15.6290   22.0110 C.ar  123  PHE123     -0.0003
    125  CZ        35.6040   16.2380   22.0260 C.ar  123  PHE123     -0.0000
    126  N         38.0080   13.1490   18.1800 N.am  124  TYR124     -0.1976
    127  CA        38.9120   14.1780   17.6970 C.3   124  TYR124      0.1639
    128  C         38.5990   14.5300   16.2760 C.2   124  TYR124      0.2290
    129  O         38.8370   15.6450   15.9050 O.2   124  TYR124     -0.2864
    130  CB        40.4130   13.8410   17.9580 C.3   124  TYR124      0.0560
    131  CG        40.6280   13.5810   19.4280 C.ar  124  TYR124     -0.0198
    132  CD1       40.9070   14.6210   20.3140 C.ar  124  TYR124     -0.0009
    133  CD2       40.4860   12.2970   19.9520 C.ar  124  TYR124     -0.0009
    134  CE1       41.0920   14.3750   21.7110 C.ar  124  TYR124      0.0417
    135  CE2       40.6380   12.0390   21.3160 C.ar  124  TYR124      0.0417
    136  CZ        40.9520   13.0890   22.1780 C.ar  124  TYR124      0.1957
    137  OH        41.1080   12.8390   23.5240 O.3   124  TYR124     -0.2866
    138  N         32.3730   20.2100   25.5860 N.3   135  VAL135     -0.1245
    139  CA        31.6810   18.9640   25.9110 C.3   135  VAL135      0.1561
    140  C         31.0770   19.2320   27.2930 C.2   135  VAL135      0.2260
    141  O         31.8180   19.4950   28.2590 O.2   135  VAL135     -0.2867
    142  CB        32.6270   17.7570   25.9210 C.3   135  VAL135      0.0252
    143  CG1       31.8740   16.4700   26.3750 C.3   135  VAL135      0.0019
    144  CG2       33.2850   17.6050   24.5560 C.3   135  VAL135      0.0019
    145  N         25.7510   13.6110   27.6160 N.3   169  THR169     -0.1218
    146  CA        26.8120   14.4380   27.0840 C.3   169  THR169      0.1862
    147  C         26.2570   15.2650   25.9220 C.2   169  THR169      0.2287
    148  O         25.4820   14.7490   25.0980 O.2   169  THR169     -0.2866
    149  CB        28.0110   13.5210   26.6970 C.3   169  THR169      0.1770
    150  OG1       28.4750   12.9720   27.9130 O.3   169  THR169     -0.2211
    151  CG2       29.1590   14.2890   26.0090 C.3   169  THR169      0.0375
    152  N         28.0410   17.5760   22.9040 N.3   171  VAL171     -0.1245
    153  CA        29.1880   18.0580   22.1980 C.3   171  VAL171      0.1561
    154  C         28.7760   19.2570   21.3800 C.2   171  VAL171      0.2260
    155  O         27.9020   19.1410   20.5260 O.2   171  VAL171     -0.2867
    156  CB        29.6880   16.9450   21.3160 C.3   171  VAL171      0.0252
    157  CG1       30.9330   17.4190   20.5780 C.3   171  VAL171      0.0019
    158  CG2       29.9690   15.7110   22.2000 C.3   171  VAL171      0.0019
@<TRIPOS>BOND
     1   129   128    2
     2     1     2    1
     3   128   127    1
     4    44    42    1
     5     7     6    1
     6     6     5    1
     7     6     8    1
     8     5     2    1
     9     2     3    1
    10    42    41    1
    11   114   112    1
    12     3     4    2
    13   127   130    1
    14   127   126    1
    15   111   110    2
    16   118   117    2
    17   130   131    1
    18   110   109    1
    19   126   117   am
    20   117   116    1
    21   115   116    1
    22   112   109    1
    23   112   113    1
    24   108   109    1
    25    41    43    1
    26    41    38    1
    27   116   119    1
    28     9    10    1
    29    38    37    1
    30    38    39    1
    31   131   133   ar
    32   131   132   ar
    33    15    14    2
    34   133   135   ar
    35    14    16   am
    36    14    13    1
    37   132   134   ar
    38   119   120    1
    39    10    13    1
    40    10    11    1
    41   155   154    2
    42   157   156    1
    43    39    40    2
    44    22    21    1
    45    21    18    1
    46    17    11   am
    47    17    18    1
    48   120   121   ar
    49   120   122   ar
    50   121   123   ar
    51   156   153    1
    52   156   158    1
    53   135   136   ar
    54   154   153    1
    55    11    12    2
    56   122   124   ar
    57   123   125   ar
    58   134   136   ar
    59    18    19    1
    60    19    20    2
    61   124   125   ar
    62   136   137    1
    63   153   152    1
    64    49    46    1
    65    49    50    1
    66    45    46    1
    67    52    50   ar
    68   107   105    1
    69    46    47    1
    70   105   106    1
    71   105   102    1
    72    23    24    1
    73    50    51   ar
    74   144   142    1
    75   148   147    2
    76    47    48    2
    77   138   139    1
    78   102   103    1
    79   102   101    1
    80    24    27    1
    81    24    25    1
    82    95    94    1
    83   139   142    1
    84   139   140    1
    85   142   143    1
    86   147   146    1
    87   151   149    1
    88   103   104    2
    89    96    94    1
    90    87    86    2
    91    25    26    2
    92    93    94    1
    93    93    90    1
    94    84    83    2
    95    92    91    2
    96    85    86    1
    97    85    82    1
    98    86    88   am
    99   149   146    1
   100   149   150    1
   101   101    99   am
   102    36    35    1
   103    35    34    1
   104    28    29    1
   105   146   145    1
   106    83    82    1
   107    83    89   am
   108   140   141    2
   109    91    90    1
   110    91    97   am
   111    90    89    1
   112   100    99    2
   113    99    98    1
   114    82    81    1
   115    72    71    1
   116    34    33    1
   117    33    32    1
   118    29    32    1
   119    29    30    1
   120    97    98    1
   121    71    70    1
   122    53    54    1
   123    30    31    2
   124    70    69    1
   125    59    57    1
   126    61    62    1
   127    61    55   am
   128    54    57    1
   129    54    55    1
   130    76    75    1
   131    57    58    1
   132    62    63    1
   133    69    66    1
   134    55    56    2
   135    64    63    2
   136    63    65   am
   137    75    74    1
   138    65    66    1
   139    66    67    1
   140    58    60    1
   141    77    74    1
   142    77    78    1
   143    74    73    1
   144    78    79   ar
   145    78    80   ar
   146    67    68    2
