@<TRIPOS>MOLECULE
tmp/4fcrA00.pdb
 159 147 0 0 0
SMALL
GASTEIGER

@<TRIPOS>ATOM
      1  N         29.7940   11.1590   16.2170 N.3    33  LEU33      -0.1245
      2  CA        29.1270   11.7920   17.4110 C.3    33  LEU33       0.1561
      3  C         27.8170   11.0680   17.7280 C.2    33  LEU33       0.2260
      4  O         27.5370   10.7870   18.9190 O.2    33  LEU33      -0.2867
      5  CB        28.9450   13.2880   17.2270 C.3    33  LEU33       0.0270
      6  CG        30.2730   14.0740   16.8790 C.3    33  LEU33       0.0019
      7  CD1       29.9380   15.5680   16.7610 C.3    33  LEU33       0.0001
      8  CD2       31.2910   13.8730   18.0120 C.3    33  LEU33       0.0001
      9  N         28.5270    7.7090   19.3700 N.3    36  ASN36      -0.1225
     10  CA        28.8950    7.9090   20.7710 C.3    36  ASN36       0.1785
     11  C         27.6620    8.2040   21.6250 C.2    36  ASN36       0.2597
     12  O         27.5250    7.6290   22.7300 O.2    36  ASN36      -0.2718
     13  CB        29.9050    9.0760   20.8670 C.3    36  ASN36       0.1169
     14  CG        31.3400    8.6070   20.5380 C.2    36  ASN36       0.2627
     15  OD1       31.5420    7.4420   20.2880 O.2    36  ASN36      -0.2716
     16  ND2       32.2820    9.5010   20.4760 N.am   36  ASN36      -0.0877
     17  N         26.7760    9.0550   21.1090 N.am   37  SER37      -0.1952
     18  CA        25.4770    9.2470   21.8340 C.3    37  SER37       0.1924
     19  C         24.6720    7.9210   21.9630 C.2    37  SER37       0.2314
     20  O         24.1460    7.6110   23.0450 O.2    37  SER37      -0.2863
     21  CB        24.5300   10.1700   21.0500 C.3    37  SER37       0.2116
     22  OG        24.9570   11.5270   21.0410 O.3    37  SER37      -0.2180
     23  N         25.7820    4.8940   21.9850 N.3    39  ASP39      -0.1225
     24  CA        26.3970    4.0770   23.0250 C.3    39  ASP39       0.1805
     25  C         26.0590    4.5020   24.4600 C.2    39  ASP39       0.2597
     26  O         25.8950    3.6650   25.3600 O.2    39  ASP39      -0.2718
     27  CB        27.9090    4.0360   22.8460 C.3    39  ASP39       0.1424
     28  CG        28.3410    3.3270   21.5900 C.2    39  ASP39       0.3668
     29  OD1       27.5750    2.6650   20.8130 O.co2  39  ASP39      -0.2456
     30  OD2       29.5320    3.5360   21.3360 O.co2  39  ASP39      -0.2456
     31  N         26.0570    5.8150   24.7030 N.am   40  ALA40      -0.1979
     32  CA        25.7450    6.4120   25.9870 C.3    40  ALA40       0.1597
     33  C         24.2590    6.1040   26.3790 C.2    40  ALA40       0.2287
     34  O         23.9620    5.8430   27.5620 O.2    40  ALA40      -0.2864
     35  CB        26.0570    7.9150   25.9550 C.3    40  ALA40       0.0319
     36  N         24.0270    2.4660   27.4800 N.3    43  LYS43      -0.1245
     37  CA        24.5660    2.3340   28.8570 C.3    43  LYS43       0.1561
     38  C         23.5270    2.6520   29.9240 C.2    43  LYS43       0.2260
     39  O         23.3480    1.8760   30.8490 O.2    43  LYS43      -0.2867
     40  CB        25.7590    3.2260   29.0600 C.3    43  LYS43       0.0271
     41  CG        26.5800    3.0170   30.3270 C.3    43  LYS43       0.0035
     42  CD        28.0570    2.9320   29.9110 C.3    43  LYS43       0.0206
     43  CE        28.6560    4.1210   29.1160 C.3    43  LYS43       0.1093
     44  NZ        28.4100    4.3460   27.6290 N.3    43  LYS43      -0.1314
     45  N         24.6190   18.4210   19.2300 N.3    76  ILE76      -0.1245
     46  CA        24.1430   17.0080   19.2710 C.3    76  ILE76       0.1561
     47  C         23.8290   16.7720   20.7530 C.2    76  ILE76       0.2260
     48  O         24.7390   16.8390   21.6320 O.2    76  ILE76      -0.2867
     49  CB        25.1410   15.9240   18.7340 C.3    76  ILE76       0.0252
     50  CG1       25.5590   16.1400   17.2750 C.3    76  ILE76       0.0019
     51  CG2       24.4640   14.5210   18.7800 C.3    76  ILE76       0.0019
     52  CD1       26.6960   17.1820   17.0430 C.3    76  ILE76       0.0001
     53  N         22.0680   14.2380   23.6590 N.3    78  ASP78      -0.1239
     54  CA        21.4170   12.9720   24.0510 C.3    78  ASP78       0.1674
     55  C         20.9800   12.9400   25.5150 C.2    78  ASP78       0.2266
     56  O         21.4230   13.7780   26.3460 O.2    78  ASP78      -0.2867
     57  CB        22.3170   11.7770   23.7050 C.3    78  ASP78       0.1410
     58  CG        23.5760   11.7540   24.5780 C.2    78  ASP78       0.3668
     59  OD1       23.5040   11.4210   25.7710 O.co2  78  ASP78      -0.2456
     60  OD2       24.6440   11.9640   23.9800 O.co2  78  ASP78      -0.2456
     61  N         23.8650    8.1610   29.3890 N.3    81  ILE81      -0.1231
     62  CA        24.4000    8.0140   30.7310 C.3    81  ILE81       0.1692
     63  C         25.0900    9.2870   31.3150 C.2    81  ILE81       0.2593
     64  O         25.0230    9.5600   32.5340 O.2    81  ILE81      -0.2718
     65  CB        25.3260    6.7300   30.8560 C.3    81  ILE81       0.0266
     66  CG1       25.7650    6.4740   32.3150 C.3    81  ILE81       0.0019
     67  CG2       26.6210    6.8900   30.0280 C.3    81  ILE81       0.0020
     68  CD1       24.6910    5.7990   33.1440 C.3    81  ILE81       0.0001
     69  N         25.7220   10.0680   30.4480 N.am   82  GLY82      -0.1942
     70  CA        26.4950   11.2580   30.8550 C.3    82  GLY82       0.2014
     71  C         27.7780   10.8200   31.5430 C.2    82  GLY82       0.2638
     72  O         28.1270    9.6090   31.6810 O.2    82  GLY82      -0.2714
     73  N         28.5020   11.8310   31.9420 N.am   83  MET83      -0.1976
     74  CA        29.7920   11.6360   32.5790 C.3    83  MET83       0.1605
     75  C         30.0120   12.4180   33.8730 C.2    83  MET83       0.2287
     76  O         29.6200   13.5760   33.9810 O.2    83  MET83      -0.2864
     77  CB        30.8860   12.0420   31.5680 C.3    83  MET83       0.0413
     78  CG        31.0480   11.1170   30.3920 C.3    83  MET83       0.0598
     79  SD        32.2570   11.8450   29.1950 S.3    83  MET83      -0.1393
     80  CE        31.2780   12.8950   28.1770 C.3    83  MET83       0.0692
     81  N         35.1960   11.2030   34.8520 N.3    87  ASP87      -0.1239
     82  CA        34.9180   10.6110   33.5260 C.3    87  ASP87       0.1674
     83  C         35.3140   11.5490   32.3660 C.2    87  ASP87       0.2266
     84  O         35.9400   11.1550   31.3730 O.2    87  ASP87      -0.2867
     85  CB        33.4190   10.2690   33.3410 C.3    87  ASP87       0.1410
     86  CG        32.9560    9.0280   34.0810 C.2    87  ASP87       0.3668
     87  OD1       33.8170    8.2180   34.5370 O.co2  87  ASP87      -0.2456
     88  OD2       31.6930    8.8880   34.2770 O.co2  87  ASP87      -0.2456
     89  N         38.3120   10.5670   30.0230 N.3    91  ASN91      -0.1225
     90  CA        37.9380   10.1720   28.6530 C.3    91  ASN91       0.1785
     91  C         38.1310   11.1800   27.5530 C.2    91  ASN91       0.2597
     92  O         38.1920   10.7870   26.3950 O.2    91  ASN91      -0.2718
     93  CB        36.4980    9.6330   28.6770 C.3    91  ASN91       0.1169
     94  CG        36.4300    8.3520   29.4950 C.2    91  ASN91       0.2627
     95  OD1       37.2550    7.4390   29.2990 O.2    91  ASN91      -0.2716
     96  ND2       35.5770    8.3240   30.4870 N.am   91  ASN91      -0.0877
     97  N         38.2270   12.4700   27.8960 N.am   92  LEU92      -0.1980
     98  CA        38.4070   13.5000   26.8940 C.3    92  LEU92       0.1596
     99  C         39.7120   14.2870   27.0380 C.2    92  LEU92       0.2287
    100  O         39.7000   15.5180   26.8630 O.2    92  LEU92      -0.2864
    101  CB        37.2350   14.4850   26.8350 C.3    92  LEU92       0.0297
    102  CG        35.9020   14.1340   26.1580 C.3    92  LEU92       0.0022
    103  CD1       35.2550   12.9920   26.9200 C.3    92  LEU92       0.0001
    104  CD2       35.0250   15.3770   26.1860 C.3    92  LEU92       0.0001
    105  N         37.8390    3.8940   18.2640 N.3   119  GLY119     -0.1210
    106  CA        37.3290    4.4340   19.4960 C.3   119  GLY119      0.1956
    107  C         37.7100    5.8980   19.8290 C.2   119  GLY119      0.2611
    108  O         37.5770    6.3390   20.9940 O.2   119  GLY119     -0.2717
    109  N         38.1430    6.6570   18.8110 N.am  120  VAL120     -0.1979
    110  CA        38.5490    8.0610   19.0050 C.3   120  VAL120      0.1595
    111  C         37.7340    8.9530   18.0490 C.2   120  VAL120      0.2287
    112  O         38.0960   10.0760   17.7690 O.2   120  VAL120     -0.2864
    113  CB        40.1020    8.2010   18.8560 C.3   120  VAL120      0.0276
    114  CG1       40.7920    7.5480   20.0150 C.3   120  VAL120      0.0022
    115  CG2       40.5850    7.5510   17.5690 C.3   120  VAL120      0.0022
    116  N         35.2490   10.7900   18.3670 N.3   122  PHE122     -0.1227
    117  CA        34.8310   12.1030   18.9550 C.3   122  PHE122      0.1736
    118  C         35.7620   13.2190   18.3380 C.2   122  PHE122      0.2595
    119  O         35.3190   14.3500   18.0290 O.2   122  PHE122     -0.2718
    120  CB        35.0600   12.1310   20.4910 C.3   122  PHE122      0.0547
    121  CG        35.0970   13.5440   21.0730 C.ar  122  PHE122     -0.0202
    122  CD1       33.8750   14.2850   21.3070 C.ar  122  PHE122     -0.0042
    123  CD2       36.3370   14.1860   21.3610 C.ar  122  PHE122     -0.0042
    124  CE1       33.9360   15.5740   21.7970 C.ar  122  PHE122     -0.0003
    125  CE2       36.3830   15.5090   21.8020 C.ar  122  PHE122     -0.0003
    126  CZ        35.1910   16.1710   22.0710 C.ar  122  PHE122     -0.0000
    127  N         37.0520   12.8810   18.1780 N.am  123  TYR123     -0.1976
    128  CA        38.0170   13.9060   17.6700 C.3   123  TYR123      0.1639
    129  C         37.8460   14.2870   16.2510 C.2   123  TYR123      0.2290
    130  O         38.3710   15.3400   15.8570 O.2   123  TYR123     -0.2864
    131  CB        39.4950   13.5650   17.9760 C.3   123  TYR123      0.0560
    132  CG        39.7430   13.4090   19.4730 C.ar  123  TYR123     -0.0198
    133  CD1       39.9270   14.5590   20.2850 C.ar  123  TYR123     -0.0009
    134  CD2       39.7090   12.1380   20.0970 C.ar  123  TYR123     -0.0009
    135  CE1       40.1350   14.4350   21.6660 C.ar  123  TYR123      0.0417
    136  CE2       39.8970   11.9970   21.4970 C.ar  123  TYR123      0.0417
    137  CZ        40.1160   13.1330   22.2660 C.ar  123  TYR123      0.1957
    138  OH        40.3240   13.0830   23.6640 O.3   123  TYR123     -0.2866
    139  N         31.6110   20.3440   25.4450 N.3   134  VAL134     -0.1245
    140  CA        30.8290   19.1290   25.8610 C.3   134  VAL134      0.1561
    141  C         30.1960   19.4600   27.2230 C.2   134  VAL134      0.2260
    142  O         30.9010   19.7290   28.2300 O.2   134  VAL134     -0.2867
    143  CB        31.7220   17.8740   25.9300 C.3   134  VAL134      0.0252
    144  CG1       30.9380   16.6130   26.3510 C.3   134  VAL134      0.0019
    145  CG2       32.3500   17.6230   24.5560 C.3   134  VAL134      0.0019
    146  N         24.2580   14.2390   27.5750 N.3   168  THR168     -0.1218
    147  CA        25.4340   14.9690   27.0960 C.3   168  THR168      0.1862
    148  C         25.0240   15.7960   25.9240 C.2   168  THR168      0.2287
    149  O         24.1880   15.4040   25.0810 O.2   168  THR168     -0.2866
    150  CB        26.5310   13.9870   26.6440 C.3   168  THR168      0.1770
    151  OG1       26.9500   13.2220   27.7610 O.3   168  THR168     -0.2211
    152  CG2       27.8370   14.6960   26.0120 C.3   168  THR168      0.0375
    153  N         26.9310   17.9710   22.8710 N.3   170  VAL170     -0.1245
    154  CA        28.1860   18.2950   22.0810 C.3   170  VAL170      0.1561
    155  C         27.9260   19.5080   21.2170 C.2   170  VAL170      0.2260
    156  O         27.1800   19.4370   20.2250 O.2   170  VAL170     -0.2867
    157  CB        28.7340   17.1110   21.3260 C.3   170  VAL170      0.0252
    158  CG1       30.0650   17.5010   20.5750 C.3   170  VAL170      0.0019
    159  CG2       28.9290   15.9030   22.2440 C.3   170  VAL170      0.0019
@<TRIPOS>BOND
     1   130   129    2
     2     1     2    1
     3   129   128    1
     4     7     6    1
     5     6     5    1
     6     6     8    1
     7    52    50    1
     8     5     2    1
     9    50    49    1
    10     2     3    1
    11   115   113    1
    12   128   131    1
    13   128   127    1
    14     3     4    2
    15   112   111    2
    16   131   132    1
    17   119   118    2
    18   111   110    1
    19   127   118   am
    20   105   106    1
    21   118   117    1
    22   116   117    1
    23    49    51    1
    24    49    46    1
    25   109   110    1
    26   109   107   am
    27   113   110    1
    28   113   114    1
    29   117   120    1
    30    45    46    1
    31    46    47    1
    32     9    10    1
    33   132   134   ar
    34   132   133   ar
    35   106   107    1
    36   107   108    2
    37   134   136   ar
    38   156   155    2
    39   133   135   ar
    40    15    14    2
    41    16    14   am
    42   120   121    1
    43    14    13    1
    44   158   157    1
    45    47    48    2
    46    10    13    1
    47    10    11    1
    48    29    28   ar
    49    22    21    1
    50    21    18    1
    51   121   122   ar
    52   121   123   ar
    53    17    11   am
    54    17    18    1
    55   155   154    1
    56   122   124   ar
    57   157   154    1
    58   157   159    1
    59    30    28   ar
    60   123   125   ar
    61   136   137   ar
    62    28    27    1
    63    11    12    2
    64   135   137   ar
    65   124   126   ar
    66   125   126   ar
    67    18    19    1
    68    19    20    2
    69    23    24    1
    70   154   153    1
    71   137   138    1
    72    27    24    1
    73    24    25    1
    74    53    54    1
    75    57    54    1
    76    57    58    1
    77    60    58   ar
    78    54    55    1
    79    25    31   am
    80    25    26    2
    81   145   143    1
    82    58    59   ar
    83    31    32    1
    84   149   148    2
    85   139   140    1
    86    55    56    2
    87   140   143    1
    88   140   141    1
    89   148   147    1
    90   143   144    1
    91    35    32    1
    92    32    33    1
    93   152   150    1
    94   102   104    1
    95   102   101    1
    96   102   103    1
    97    33    34    2
    98    92    91    2
    99   150   147    1
   100   150   151    1
   101   101    98    1
   102   100    99    2
   103    98    99    1
   104    98    97    1
   105   147   146    1
   106   141   142    2
   107    36    37    1
   108    91    97   am
   109    91    90    1
   110    44    43    1
   111    80    79    1
   112    90    93    1
   113    90    89    1
   114    93    94    1
   115    37    40    1
   116    37    38    1
   117    40    41    1
   118    43    42    1
   119    79    78    1
   120    95    94    2
   121    61    62    1
   122    94    96   am
   123    42    41    1
   124    38    39    2
   125    67    65    1
   126    78    77    1
   127    69    70    1
   128    69    63   am
   129    62    65    1
   130    62    63    1
   131    70    71    1
   132    65    66    1
   133    63    64    2
   134    84    83    2
   135    71    72    2
   136    71    73   am
   137    77    74    1
   138    73    74    1
   139    66    68    1
   140    83    82    1
   141    74    75    1
   142    85    82    1
   143    85    86    1
   144    82    81    1
   145    75    76    2
   146    86    88   ar
   147    86    87   ar
