@<TRIPOS>MOLECULE
tmp/4fd8A01.pdb
 79 72 0 0 0
SMALL
GASTEIGER

@<TRIPOS>ATOM
      1  N         15.5900   28.4960   -0.5500 N.3   192  ALA192     -0.1245
      2  CA        17.0100   28.5930   -0.1970 C.3   192  ALA192      0.1562
      3  C         17.8150   27.3200   -0.4460 C.2   192  ALA192      0.2260
      4  O         19.0460   27.3920   -0.5410 O.2   192  ALA192     -0.2867
      5  CB        17.1620   29.0150    1.2720 C.3   192  ALA192      0.0290
      6  N         20.3220   27.2060   -3.4970 N.3   195  LEU195     -0.1231
      7  CA        21.3890   28.1920   -3.2450 C.3   195  LEU195      0.1693
      8  C         22.3830   27.7180   -2.1710 C.2   195  LEU195      0.2591
      9  O         23.6020   27.7910   -2.3350 O.2   195  LEU195     -0.2718
     10  CB        20.7840   29.5360   -2.8400 C.3   195  LEU195      0.0284
     11  CG        21.7620   30.6560   -2.4620 C.3   195  LEU195      0.0019
     12  CD1       22.6650   31.1000   -3.5990 C.3   195  LEU195      0.0001
     13  CD2       20.9630   31.8400   -1.9470 C.3   195  LEU195      0.0001
     14  N         21.8550   27.2130   -1.0560 N.am  196  ILE196     -0.1980
     15  CA        22.7220   26.6690   -0.0330 C.3   196  ILE196      0.1595
     16  C         23.5990   25.5260   -0.5710 C.2   196  ILE196      0.2287
     17  O         24.8130   25.4700   -0.2810 O.2   196  ILE196     -0.2864
     18  CB        21.9120   26.2020    1.1850 C.3   196  ILE196      0.0276
     19  CG1       21.3730   27.4120    1.9360 C.3   196  ILE196      0.0022
     20  CG2       22.8180   25.4680    2.1590 C.3   196  ILE196      0.0022
     21  CD1       20.1890   27.0740    2.8930 C.3   196  ILE196      0.0001
     22  N         26.7660   26.4410   -2.4050 N.3   199  VAL199     -0.1245
     23  CA        27.9070   26.9450   -1.6480 C.3   199  VAL199      0.1561
     24  C         28.3860   25.9700   -0.5600 C.2   199  VAL199      0.2260
     25  O         29.3340   26.2550    0.1710 O.2   199  VAL199     -0.2867
     26  CB        27.6850   28.3840   -1.0780 C.3   199  VAL199      0.0252
     27  CG1       27.5000   29.3950   -2.2300 C.3   199  VAL199      0.0019
     28  CG2       26.4940   28.4530   -0.0810 C.3   199  VAL199      0.0019
     29  N         13.2970   28.5910    5.4650 N.3   210  THR210     -0.1218
     30  CA        13.7620   29.9520    5.8080 C.3   210  THR210      0.1862
     31  C         12.5890   30.8600    6.0760 C.2   210  THR210      0.2287
     32  O         11.4620   30.5610    5.6690 O.2   210  THR210     -0.2866
     33  CB        14.7000   30.5770    4.7590 C.3   210  THR210      0.1770
     34  OG1       14.0320   30.6280    3.5050 O.3   210  THR210     -0.2211
     35  CG2       15.9760   29.7580    4.5980 C.3   210  THR210      0.0375
     36  N         15.0180   37.6910   10.1460 N.3   218  ARG218     -0.1231
     37  CA        15.4300   36.6850    9.1830 C.3   218  ARG218      0.1694
     38  C         15.6510   35.4140    9.9850 C.2   218  ARG218      0.2593
     39  O         15.9950   35.4510   11.1720 O.2   218  ARG218     -0.2718
     40  CB        16.7340   37.1180    8.5160 C.3   218  ARG218      0.0321
     41  CG        17.1560   36.3440    7.2590 C.3   218  ARG218      0.0489
     42  CD        16.2150   36.6080    6.0710 C.3   218  ARG218      0.2205
     43  NE        16.7490   35.9820    4.8450 N.pl3 218  ARG218     -0.0865
     44  CZ        16.1720   35.0140    4.1310 C.cat 218  ARG218      0.5346
     45  NH1       16.7760   34.5760    3.0330 N.pl3 218  ARG218      0.1354
     46  NH2       15.0110   34.4750    4.4720 N.pl3 218  ARG218      0.1354
     47  N         15.4760   34.2770    9.3410 N.am  219  GLY219     -0.1942
     48  CA        15.7670   33.0370   10.0620 C.3   219  GLY219      0.2014
     49  C         15.8180   31.8250    9.2010 C.2   219  GLY219      0.2638
     50  O         15.3290   31.8170    8.0690 O.2   219  GLY219     -0.2714
     51  N         16.4280   30.7930    9.7580 N.am  220  ILE220     -0.1977
     52  CA        16.4730   29.4990    9.0890 C.3   220  ILE220      0.1596
     53  C         16.4220   28.3910   10.1360 C.2   220  ILE220      0.2287
     54  O         17.0230   28.5080   11.2020 O.2   220  ILE220     -0.2864
     55  CB        17.7150   29.3690    8.1610 C.3   220  ILE220      0.0276
     56  CG1       17.6520   28.0500    7.3710 C.3   220  ILE220      0.0022
     57  CG2       19.0400   29.5710    8.9530 C.3   220  ILE220      0.0022
     58  CD1       18.7430   27.9410    6.2610 C.3   220  ILE220      0.0001
     59  N         21.7540   37.6650    4.8550 N.3   249  ASN249     -0.1240
     60  CA        22.0140   36.3350    4.2520 C.3   249  ASN249      0.1653
     61  C         23.4810   35.9470    4.4260 C.2   249  ASN249      0.2266
     62  O         23.8050   34.8150    4.8260 O.2   249  ASN249     -0.2867
     63  CB        21.6560   36.3280    2.7670 C.3   249  ASN249      0.1155
     64  CG        20.1660   36.4150    2.5040 C.2   249  ASN249      0.2627
     65  OD1       19.3250   36.1380    3.3760 O.2   249  ASN249     -0.2716
     66  ND2       19.8280   36.7800    1.2820 N.am  249  ASN249     -0.0877
     67  N         24.3380   34.9620    8.0780 N.3   252  ILE252     -0.1231
     68  CA        23.8480   33.6070    8.3870 C.3   252  ILE252      0.1692
     69  C         24.7830   32.5780    7.7240 C.2   252  ILE252      0.2591
     70  O         25.1810   31.6080    8.3530 O.2   252  ILE252     -0.2718
     71  CB        22.4020   33.4320    7.9200 C.3   252  ILE252      0.0266
     72  CG1       21.4950   34.3010    8.8050 C.3   252  ILE252      0.0019
     73  CG2       21.9810   31.9630    8.0680 C.3   252  ILE252      0.0020
     74  CD1       20.0420   34.2780    8.3910 C.3   252  ILE252      0.0001
     75  N         25.1400   32.8150    6.4520 N.am  253  ALA253     -0.1980
     76  CA        26.0550   31.9280    5.7270 C.3   253  ALA253      0.1597
     77  C         27.4070   31.8550    6.4370 C.2   253  ALA253      0.2287
     78  O         27.9870   30.7680    6.5350 O.2   253  ALA253     -0.2864
     79  CB        26.2350   32.3930    4.2790 C.3   253  ALA253      0.0319
@<TRIPOS>BOND
     1    12    11    1
     2     6     7    1
     3     7    10    1
     4     7     8    1
     5    10    11    1
     6    11    13    1
     7    22    23    1
     8     9     8    2
     9    27    26    1
    10     8    14   am
    11    23    26    1
    12    23    24    1
    13    26    28    1
    14    14    15    1
    15    16    17    2
    16    16    15    1
    17    24    25    2
    18     1     2    1
    19     4     3    2
    20     3     2    1
    21     2     5    1
    22    15    18    1
    23    18    19    1
    24    18    20    1
    25    66    64   am
    26    19    21    1
    27    64    63    1
    28    64    65    2
    29    63    60    1
    30    45    44    1
    31    34    33    1
    32    44    46    1
    33    44    43    2
    34    60    61    1
    35    60    59    1
    36    79    76    1
    37    61    62    2
    38    35    33    1
    39    33    30    1
    40    43    42    1
    41    29    30    1
    42    32    31    2
    43    76    77    1
    44    76    75    1
    45    30    31    1
    46    42    41    1
    47    58    56    1
    48    77    78    2
    49    75    69   am
    50    41    40    1
    51    56    55    1
    52    69    70    2
    53    69    68    1
    54    71    73    1
    55    71    68    1
    56    71    72    1
    57    50    49    2
    58    67    68    1
    59    55    57    1
    60    55    52    1
    61    74    72    1
    62    40    37    1
    63    52    51    1
    64    52    53    1
    65    37    38    1
    66    37    36    1
    67    49    51   am
    68    49    48    1
    69    47    38   am
    70    47    48    1
    71    38    39    2
    72    53    54    2
