@<TRIPOS>MOLECULE
tmp/4fdhB01.pdb
 139 134 0 0 0
SMALL
GASTEIGER

@<TRIPOS>ATOM
      1  N         14.7170   17.7460  -33.3490 N.3    83  TRP83      -0.1241
      2  CA        16.0700   17.2320  -33.5860 C.3    83  TRP83       0.1605
      3  C         16.9790   17.3240  -32.3500 C.2    83  TRP83       0.2264
      4  O         17.5650   16.3150  -31.9250 O.2    83  TRP83      -0.2867
      5  CB        16.7050   17.9560  -34.7730 C.3    83  TRP83       0.0550
      6  CG        16.0280   17.6860  -36.0880 C.ar   83  TRP83       0.0003
      7  CD1       14.7230   17.3720  -36.2810 C.ar   83  TRP83       0.0946
      8  CD2       16.6280   17.7400  -37.3990 C.ar   83  TRP83       0.0152
      9  NE1       14.4680   17.2150  -37.6190 N.ar   83  TRP83      -0.2442
     10  CE2       15.6240   17.4370  -38.3260 C.ar   83  TRP83       0.0810
     11  CE3       17.9140   18.0120  -37.8680 C.ar   83  TRP83       0.0012
     12  CZ2       15.8650   17.4010  -39.7110 C.ar   83  TRP83       0.0191
     13  CZ3       18.1560   17.9810  -39.2300 C.ar   83  TRP83       0.0001
     14  CH2       17.1390   17.6800  -40.1380 C.ar   83  TRP83       0.0015
     15  N         18.9910   14.5850  -29.5970 N.3    87  ARG87      -0.1245
     16  CA        20.3780   14.6450  -29.1600 C.3    87  ARG87       0.1563
     17  C         20.4010   14.6460  -27.6220 C.2    87  ARG87       0.2260
     18  O         21.0770   13.8300  -26.9940 O.2    87  ARG87      -0.2867
     19  CB        21.0950   15.8830  -29.7120 C.3    87  ARG87       0.0307
     20  CG        20.8260   16.2380  -31.1800 C.3    87  ARG87       0.0489
     21  CD        21.6390   15.3950  -32.1040 C.3    87  ARG87       0.2205
     22  NE        21.5920   15.7660  -33.5210 N.pl3  87  ARG87      -0.0865
     23  CZ        20.6860   15.3390  -34.4020 C.cat  87  ARG87       0.5346
     24  NH1       20.7750   15.7070  -35.6660 N.pl3  87  ARG87       0.1354
     25  NH2       19.6820   14.5660  -34.0330 N.pl3  87  ARG87       0.1354
     26  N         24.5190   22.3800  -37.6760 N.3    97  PHE97      -0.1241
     27  CA        23.2110   22.6410  -38.2540 C.3    97  PHE97       0.1605
     28  C         22.1660   23.0720  -37.2230 C.2    97  PHE97       0.2264
     29  O         21.1860   23.7370  -37.5630 O.2    97  PHE97      -0.2867
     30  CB        22.7350   21.4100  -39.0430 C.3    97  PHE97       0.0534
     31  CG        21.4350   21.6140  -39.7830 C.ar   97  PHE97      -0.0203
     32  CD1       21.4300   22.1060  -41.0760 C.ar   97  PHE97      -0.0042
     33  CD2       20.2180   21.2940  -39.1800 C.ar   97  PHE97      -0.0042
     34  CE1       20.2290   22.2840  -41.7620 C.ar   97  PHE97      -0.0003
     35  CE2       19.0220   21.4710  -39.8440 C.ar   97  PHE97      -0.0003
     36  CZ        19.0200   21.9690  -41.1430 C.ar   97  PHE97      -0.0000
     37  N         15.4410    8.1360  -42.7860 N.3   194  LEU194     -0.1245
     38  CA        15.4760    9.5170  -43.2210 C.3   194  LEU194      0.1561
     39  C         14.1250    9.9960  -43.7210 C.2   194  LEU194      0.2260
     40  O         13.7550   11.1430  -43.4720 O.2   194  LEU194     -0.2867
     41  CB        16.5230    9.7190  -44.3110 C.3   194  LEU194      0.0270
     42  CG        18.0040    9.8480  -43.9600 C.3   194  LEU194      0.0019
     43  CD1       18.8280    9.9140  -45.2320 C.3   194  LEU194      0.0001
     44  CD2       18.2980   11.0700  -43.0730 C.3   194  LEU194      0.0001
     45  N         11.9410   10.3180  -40.7400 N.3   197  MET197     -0.1230
     46  CA        12.4800   11.4040  -39.9220 C.3   197  MET197      0.1702
     47  C         11.9330   12.7790  -40.3510 C.2   197  MET197      0.2592
     48  O         11.5000   13.5800  -39.5050 O.2   197  MET197     -0.2718
     49  CB        14.0060   11.3970  -40.0030 C.3   197  MET197      0.0401
     50  CG        14.6900   12.2200  -38.9400 C.3   197  MET197      0.0596
     51  SD        14.7530   13.9740  -39.3180 S.3   197  MET197     -0.1393
     52  CE        15.9570   14.0950  -40.6380 C.3   197  MET197      0.0692
     53  N         11.9630   13.0330  -41.6670 N.am  198  PHE198     -0.1976
     54  CA        11.5690   14.3180  -42.2390 C.3   198  PHE198      0.1639
     55  C         10.0750   14.5000  -42.1090 C.2   198  PHE198      0.2290
     56  O          9.6110   15.5520  -41.6730 O.2   198  PHE198     -0.2864
     57  CB        11.9720   14.4090  -43.7070 C.3   198  PHE198      0.0560
     58  CG        13.4220   14.6470  -43.9150 C.ar  198  PHE198     -0.0200
     59  CD1       14.0390   15.7900  -43.3870 C.ar  198  PHE198     -0.0042
     60  CD2       14.1830   13.7520  -44.6440 C.ar  198  PHE198     -0.0042
     61  CE1       15.3990   16.0250  -43.5900 C.ar  198  PHE198     -0.0003
     62  CE2       15.5450   13.9660  -44.8510 C.ar  198  PHE198     -0.0003
     63  CZ        16.1580   15.1020  -44.3270 C.ar  198  PHE198     -0.0000
     64  N         15.5930    8.4630  -35.7860 N.3   227  TRP227     -0.1241
     65  CA        16.9260    8.9870  -35.4910 C.3   227  TRP227      0.1605
     66  C         17.8330    7.8960  -34.9610 C.2   227  TRP227      0.2264
     67  O         19.0320    7.8920  -35.2580 O.2   227  TRP227     -0.2867
     68  CB        16.8770   10.1290  -34.4910 C.3   227  TRP227      0.0550
     69  CG        16.5750   11.4650  -35.0590 C.ar  227  TRP227      0.0003
     70  CD1       15.4760   12.2340  -34.8000 C.ar  227  TRP227      0.0946
     71  CD2       17.3820   12.2090  -35.9640 C.ar  227  TRP227      0.0152
     72  NE1       15.5520   13.4240  -35.4930 N.ar  227  TRP227     -0.2442
     73  CE2       16.7110   13.4290  -36.2220 C.ar  227  TRP227      0.0810
     74  CE3       18.5990   11.9690  -36.5910 C.ar  227  TRP227      0.0012
     75  CZ2       17.2300   14.4000  -37.0750 C.ar  227  TRP227      0.0191
     76  CZ3       19.1100   12.9320  -37.4390 C.ar  227  TRP227      0.0001
     77  CH2       18.4260   14.1290  -37.6770 C.ar  227  TRP227      0.0015
     78  N         27.7170   13.0770  -38.1040 N.3   276  MET276     -0.1230
     79  CA        26.3240   12.6680  -38.2530 C.3   276  MET276      0.1702
     80  C         25.5360   13.5840  -39.1390 C.2   276  MET276      0.2592
     81  O         24.7640   13.1180  -39.9710 O.2   276  MET276     -0.2718
     82  CB        25.5970   12.4900  -36.9110 C.3   276  MET276      0.0401
     83  CG        25.6040   11.0300  -36.4030 C.3   276  MET276      0.0596
     84  SD        24.4120    9.8820  -37.1930 S.3   276  MET276     -0.1393
     85  CE        24.5520   10.1440  -38.9700 C.3   276  MET276      0.0692
     86  N         25.7270   14.8870  -38.9820 N.am  277  GLU277     -0.1979
     87  CA        24.9480   15.8270  -39.7670 C.3   277  GLU277      0.1602
     88  C         25.3750   15.6980  -41.1940 C.2   277  GLU277      0.2287
     89  O         24.5500   15.6710  -42.0850 O.2   277  GLU277     -0.2864
     90  CB        25.1210   17.2500  -39.2820 C.3   277  GLU277      0.0415
     91  CG        24.6490   17.4380  -37.8550 C.3   277  GLU277      0.1163
     92  CD        24.6110   18.8900  -37.4380 C.2   277  GLU277      0.3649
     93  OE1       25.4370   19.6750  -37.9520 O.co2 277  GLU277     -0.2457
     94  OE2       23.7500   19.2370  -36.6000 O.co2 277  GLU277     -0.2457
     95  N         24.0390   12.2530  -42.5480 N.3   280  ALA280     -0.1231
     96  CA        22.6090   12.3100  -42.8080 C.3   280  ALA280      0.1694
     97  C         22.2660   13.3720  -43.8510 C.2   280  ALA280      0.2592
     98  O         21.3610   13.1980  -44.6540 O.2   280  ALA280     -0.2718
     99  CB        21.8660   12.5610  -41.5320 C.3   280  ALA280      0.0304
    100  N         23.0140   14.4660  -43.8350 N.am  281  GLY281     -0.1957
    101  CA        22.7250   15.6280  -44.6560 C.3   281  GLY281      0.1869
    102  C         23.0890   15.4590  -46.1080 C.2   281  GLY281      0.2309
    103  O         22.5860   16.1780  -46.9570 O.2   281  GLY281     -0.2863
    104  N         19.0690   15.9210  -49.9590 N.3   285  THR285     -0.1218
    105  CA        19.4310   17.2220  -50.4980 C.3   285  THR285      0.1862
    106  C         20.1960   17.1480  -51.8190 C.2   285  THR285      0.2287
    107  O         19.9170   17.9010  -52.7410 O.2   285  THR285     -0.2866
    108  CB        20.3650   17.9410  -49.5340 C.3   285  THR285      0.1770
    109  OG1       21.5560   17.1440  -49.3710 O.3   285  THR285     -0.2211
    110  CG2       19.6940   18.1420  -48.2180 C.3   285  THR285      0.0375
    111  N         16.0880   22.7450  -49.9010 N.3   346  GLY346     -0.1225
    112  CA        15.8470   23.6000  -48.7520 C.3   346  GLY346      0.1811
    113  C         14.9010   24.6500  -49.2810 C.2   346  GLY346      0.2280
    114  O         15.1960   25.3120  -50.2810 O.2   346  GLY346     -0.2866
    115  N         25.5220   26.7260  -46.5760 N.3   413  CYS413     -0.1235
    116  CA        25.6820   25.2670  -46.4910 C.3   413  CYS413      0.1677
    117  C         27.1180   24.7860  -46.4290 C.2   413  CYS413      0.2270
    118  O         27.8570   24.8820  -47.4030 O.2   413  CYS413     -0.2867
    119  CB        24.9530   24.5640  -47.6500 C.3   413  CYS413      0.0956
    120  SG        24.8760   22.7250  -47.6060 S.3   413  CYS413     -0.0801
    121  N          9.5960   18.9970  -44.9060 N.3   450  PHE450     -0.1227
    122  CA        10.7950   19.6300  -44.3670 C.3   450  PHE450      0.1736
    123  C         11.7170   20.0700  -45.5110 C.2   450  PHE450      0.2595
    124  O         11.9990   21.2570  -45.6660 O.2   450  PHE450     -0.2718
    125  CB        11.5210   18.7370  -43.3650 C.3   450  PHE450      0.0547
    126  CG        12.5720   19.4530  -42.6050 C.ar  450  PHE450     -0.0202
    127  CD1       12.2290   20.3200  -41.5750 C.ar  450  PHE450     -0.0042
    128  CD2       13.9040   19.2950  -42.9220 C.ar  450  PHE450     -0.0042
    129  CE1       13.1980   21.0170  -40.8610 C.ar  450  PHE450     -0.0003
    130  CE2       14.8880   19.9880  -42.2040 C.ar  450  PHE450     -0.0003
    131  CZ        14.5260   20.8500  -41.1780 C.ar  450  PHE450     -0.0000
    132  N         12.1810   19.1080  -46.3010 N.am  451  ILE451     -0.1980
    133  CA        12.7520   19.3970  -47.6080 C.3   451  ILE451      0.1595
    134  C         11.6350   19.4180  -48.6420 C.2   451  ILE451      0.2287
    135  O         10.5400   18.8860  -48.4100 O.2   451  ILE451     -0.2864
    136  CB        13.7910   18.3550  -48.0170 C.3   451  ILE451      0.0276
    137  CG1       13.1640   16.9660  -48.0690 C.3   451  ILE451      0.0022
    138  CG2       14.9780   18.3790  -47.0540 C.3   451  ILE451      0.0022
    139  CD1       13.9730   15.9850  -48.8480 C.3   451  ILE451      0.0001
@<TRIPOS>BOND
     1   107   106    2
     2   106   105    1
     3   105   104    1
     4   105   108    1
     5   114   113    2
     6   111   112    1
     7   108   109    1
     8   108   110    1
     9   113   112    1
    10   139   137    1
    11   134   135    2
    12   134   133    1
    13   137   136    1
    14   136   133    1
    15   136   138    1
    16   119   120    1
    17   119   116    1
    18   133   132    1
    19   118   117    2
    20   103   102    2
    21   115   116    1
    22   116   117    1
    23   132   123   am
    24   102   101    1
    25   124   123    2
    26   123   122    1
    27    43    42    1
    28   121   122    1
    29    62    60   ar
    30    62    63   ar
    31   101   100    1
    32    98    97    2
    33    60    58   ar
    34   122   125    1
    35    63    61   ar
    36    41    42    1
    37    41    38    1
    38    42    44    1
    39    58    57    1
    40    58    59   ar
    41    97   100   am
    42    97    96    1
    43    39    40    2
    44    39    38    1
    45    57    54    1
    46    61    59   ar
    47   125   126    1
    48    38    37    1
    49   128   126   ar
    50   128   130   ar
    51    96    95    1
    52    96    99    1
    53   126   127   ar
    54    54    55    1
    55    54    53    1
    56   130   131   ar
    57    55    56    2
    58    89    88    2
    59    34    36   ar
    60    34    32   ar
    61    53    47   am
    62   127   129   ar
    63    88    87    1
    64   131   129   ar
    65    36    35   ar
    66    32    31   ar
    67    45    46    1
    68    52    51    1
    69    47    46    1
    70    47    48    2
    71    14    12   ar
    72    14    13   ar
    73    49    46    1
    74    49    50    1
    75    81    80    2
    76    35    33   ar
    77    31    33   ar
    78    31    30    1
    79    87    90    1
    80    87    86    1
    81    12    10   ar
    82    51    50    1
    83    90    91    1
    84    13    11   ar
    85    80    86   am
    86    80    79    1
    87    30    27    1
    88    85    84    1
    89    10     9   ar
    90    10     8   ar
    91    27    26    1
    92    27    28    1
    93    79    78    1
    94    79    82    1
    95    93    92   ar
    96    11     8   ar
    97    91    92    1
    98    77    76   ar
    99    77    75   ar
   100     9     7   ar
   101    29    28    2
   102    76    74   ar
   103    92    94   ar
   104     8     6   ar
   105    84    83    1
   106    75    73   ar
   107    82    83    1
   108    74    71   ar
   109     7     6   ar
   110    73    71   ar
   111    73    72   ar
   112     6     5    1
   113    71    69   ar
   114    64    65    1
   115    24    23    1
   116    72    70   ar
   117    65    66    1
   118    65    68    1
   119    67    66    2
   120    69    70   ar
   121    69    68    1
   122     5     2    1
   123    23    25    1
   124    23    22    2
   125     2     1    1
   126     2     3    1
   127    22    21    1
   128     3     4    2
   129    21    20    1
   130    20    19    1
   131    19    16    1
   132    15    16    1
   133    16    17    1
   134    17    18    2
