@<TRIPOS>MOLECULE
tmp/4fdiA01.pdb
 127 119 0 0 0
SMALL
GASTEIGER

@<TRIPOS>ATOM
      1  N          2.9180    4.2460   11.9230 N.3    11  ASP11      -0.1225
      2  CA         2.7570    3.9410   10.5060 C.3    11  ASP11       0.1805
      3  C          3.0200    5.2040    9.6860 C.2    11  ASP11       0.2597
      4  O          2.2950    6.1840    9.8130 O.2    11  ASP11      -0.2718
      5  CB         1.3330    3.4250   10.2610 C.3    11  ASP11       0.1424
      6  CG         1.1900    2.6520    8.9550 C.2    11  ASP11       0.3668
      7  OD1        2.1470    2.6130    8.1590 O.co2  11  ASP11      -0.2456
      8  OD2        0.1080    2.0760    8.7220 O.co2  11  ASP11      -0.2456
      9  N          4.0680    5.1750    8.8630 N.am   12  ASP12      -0.1974
     10  CA         4.4160    6.2750    7.9370 C.3    12  ASP12       0.1709
     11  C          4.8250    7.5920    8.6010 C.2    12  ASP12       0.2293
     12  O          4.8390    8.6390    7.9400 O.2    12  ASP12      -0.2864
     13  CB         3.2890    6.5300    6.9180 C.3    12  ASP12       0.1436
     14  CG         3.0260    5.3360    6.0340 C.2    12  ASP12       0.3671
     15  OD1        3.7000    4.3060    6.2250 O.co2  12  ASP12      -0.2456
     16  OD2        2.1490    5.4230    5.1500 O.co2  12  ASP12      -0.2456
     17  N          8.6780    0.2380    3.1540 N.3    50  LEU50      -0.1245
     18  CA         7.2190    0.1940    3.3340 C.3    50  LEU50       0.1561
     19  C          6.7610   -0.7280    4.4840 C.2    50  LEU50       0.2260
     20  O          7.5840   -1.3460    5.1650 O.2    50  LEU50      -0.2867
     21  CB         6.4920   -0.1190    2.0110 C.3    50  LEU50       0.0270
     22  CG         6.4380   -1.5280    1.4000 C.3    50  LEU50       0.0019
     23  CD1        5.5430   -1.5140    0.1560 C.3    50  LEU50       0.0001
     24  CD2        7.8220   -2.1100    1.0610 C.3    50  LEU50       0.0001
     25  N          4.5030   -3.7730    5.3910 N.3    51  SER51      -0.1217
     26  CA         4.5100   -5.2090    5.7330 C.3    51  SER51       0.1889
     27  C          5.9030   -5.8040    5.9780 C.2    51  SER51       0.2288
     28  O          6.1120   -6.4590    6.9970 O.2    51  SER51      -0.2866
     29  CB         3.7640   -6.0410    4.6800 C.3    51  SER51       0.2089
     30  OG         2.4590   -5.5430    4.4720 O.3    51  SER51      -0.2183
     31  N          3.9880   -5.5710   -0.5000 N.3    79  TYR79      -0.1241
     32  CA         3.4260   -5.6690    0.8330 C.3    79  TYR79       0.1605
     33  C          2.2780   -6.6710    0.7660 C.2    79  TYR79       0.2264
     34  O          2.1320   -7.3840   -0.2340 O.2    79  TYR79      -0.2867
     35  CB         2.9640   -4.2890    1.3390 C.3    79  TYR79       0.0534
     36  CG         1.7670   -3.7240    0.6070 C.ar   79  TYR79      -0.0201
     37  CD1        0.5310   -3.6050    1.2480 C.ar   79  TYR79      -0.0009
     38  CD2        1.8640   -3.3140   -0.7250 C.ar   79  TYR79      -0.0009
     39  CE1       -0.5730   -3.0910    0.5830 C.ar   79  TYR79       0.0417
     40  CE2        0.7630   -2.7990   -1.4000 C.ar   79  TYR79       0.0417
     41  CZ        -0.4510   -2.6910   -0.7410 C.ar   79  TYR79       0.1957
     42  OH        -1.5460   -2.1840   -1.3990 O.3    79  TYR79      -0.2866
     43  N         -2.6810   -2.5640   13.4670 N.3   111  LYS111     -0.1245
     44  CA        -2.4630   -3.1830   12.1490 C.3   111  LYS111      0.1561
     45  C         -1.4160   -4.3010   12.1410 C.2   111  LYS111      0.2260
     46  O         -0.2980   -4.1220   12.6230 O.2   111  LYS111     -0.2867
     47  CB        -2.1080   -2.1100   11.1230 C.3   111  LYS111      0.0271
     48  CG        -2.0970   -2.6000    9.6760 C.3   111  LYS111      0.0035
     49  CD        -1.8360   -1.4660    8.6960 C.3   111  LYS111      0.0206
     50  CE        -0.3690   -1.0970    8.6220 C.3   111  LYS111      0.1093
     51  NZ        -0.1600   -0.1520    7.5000 N.3   111  LYS111     -0.1314
     52  N         -0.6990   -6.7800    9.0910 N.3   113  HIS113     -0.1241
     53  CA        -0.0300   -6.6710    7.7950 C.3   113  HIS113      0.1621
     54  C          0.9770   -7.7870    7.5360 C.2   113  HIS113      0.2264
     55  O          1.9410   -7.5940    6.8190 O.2   113  HIS113     -0.2867
     56  CB         0.6360   -5.2930    7.6570 C.3   113  HIS113      0.0745
     57  CG         0.1500   -4.5040    6.4880 C.ar  113  HIS113      0.0817
     58  ND1        0.8500   -3.4370    5.9720 N.ar  113  HIS113     -0.2268
     59  CD2       -0.9630   -4.6300    5.7260 C.ar  113  HIS113      0.1154
     60  CE1        0.1900   -2.9370    4.9420 C.ar  113  HIS113      0.1986
     61  NE2       -0.9140   -3.6410    4.7740 N.ar  113  HIS113     -0.2212
     62  N         -4.6820   -2.3630    5.7790 N.3   136  CYS136     -0.1235
     63  CA        -4.7950   -0.9100    5.8800 C.3   136  CYS136      0.1677
     64  C         -6.2520   -0.5130    6.1100 C.2   136  CYS136      0.2270
     65  O         -7.1380   -1.3710    6.1400 O.2   136  CYS136     -0.2867
     66  CB        -4.2570   -0.2390    4.6120 C.3   136  CYS136      0.0956
     67  SG        -5.1930   -0.6140    3.0930 S.3   136  CYS136     -0.0801
     68  N         -7.9680    1.5920    4.0240 N.3   138  PHE138     -0.1241
     69  CA        -8.4690    2.2160    2.8030 C.3   138  PHE138      0.1605
     70  C         -9.9110    1.8120    2.5000 C.2   138  PHE138      0.2264
     71  O        -10.3390    0.6780    2.7750 O.2   138  PHE138     -0.2867
     72  CB        -7.5640    1.9360    1.5920 C.3   138  PHE138      0.0534
     73  CG        -7.8090    2.8720    0.4260 C.ar  138  PHE138     -0.0203
     74  CD1       -7.2000    4.1270    0.3820 C.ar  138  PHE138     -0.0042
     75  CD2       -8.6660    2.5090   -0.6160 C.ar  138  PHE138     -0.0042
     76  CE1       -7.4310    5.0010   -0.6830 C.ar  138  PHE138     -0.0003
     77  CE2       -8.9090    3.3780   -1.6870 C.ar  138  PHE138     -0.0003
     78  CZ        -8.2880    4.6240   -1.7210 C.ar  138  PHE138     -0.0000
     79  N         -1.3750    6.9130    8.5820 N.3   207  HIS207     -0.1226
     80  CA        -1.3550    6.3330    7.2430 C.3   207  HIS207      0.1752
     81  C         -2.5640    6.8430    6.4570 C.2   207  HIS207      0.2595
     82  O         -3.6840    6.8120    6.9670 O.2   207  HIS207     -0.2718
     83  CB        -1.3970    4.8020    7.3450 C.3   207  HIS207      0.0759
     84  CG        -1.0920    4.0970    6.0620 C.ar  207  HIS207      0.0818
     85  ND1       -1.8340    4.2780    4.9150 N.ar  207  HIS207     -0.2268
     86  CD2       -0.1320    3.1950    5.7490 C.ar  207  HIS207      0.1154
     87  CE1       -1.3400    3.5250    3.9490 C.ar  207  HIS207      0.1986
     88  NE2       -0.3080    2.8570    4.4290 N.ar  207  HIS207     -0.2212
     89  N         -2.3430    7.3220    5.2310 N.am  208  ALA208     -0.1980
     90  CA        -3.4420    7.8370    4.3980 C.3   208  ALA208      0.1597
     91  C         -4.4690    6.7450    4.1050 C.2   208  ALA208      0.2287
     92  O         -4.0860    5.5960    3.8600 O.2   208  ALA208     -0.2864
     93  CB        -2.9110    8.4220    3.0950 C.3   208  ALA208      0.0319
     94  N          8.3930    2.9420    8.5500 N.3   260  ASN260     -0.1240
     95  CA         9.0720    3.4550    7.3630 C.3   260  ASN260      0.1653
     96  C          8.9880    4.9750    7.3740 C.2   260  ASN260      0.2266
     97  O          8.4290    5.5580    8.3100 O.2   260  ASN260     -0.2867
     98  CB         8.5110    2.8630    6.0560 C.3   260  ASN260      0.1155
     99  CG         7.0150    3.1030    5.8830 C.2   260  ASN260      0.2627
    100  OD1        6.2240    2.1530    5.8870 O.2   260  ASN260     -0.2716
    101  ND2        6.6190    4.3660    5.7130 N.am  260  ASN260     -0.0877
    102  N          4.1240   11.1610   -0.9480 N.3   265  ILE265     -0.1245
    103  CA         3.0710   11.2580   -1.9620 C.3   265  ILE265      0.1561
    104  C          1.7900   11.8510   -1.3780 C.2   265  ILE265      0.2260
    105  O          0.9590   12.3750   -2.1090 O.2   265  ILE265     -0.2867
    106  CB         2.7700    9.9190   -2.6780 C.3   265  ILE265      0.0252
    107  CG1        2.3340    8.8340   -1.6830 C.3   265  ILE265      0.0019
    108  CG2        3.9700    9.4870   -3.5310 C.3   265  ILE265      0.0019
    109  CD1        1.4280    7.7550   -2.2930 C.3   265  ILE265      0.0001
    110  N          9.1280    7.4220    2.0160 N.3   281  LYS281     -0.1231
    111  CA         8.5690    6.0860    1.8280 C.3   281  LYS281      0.1693
    112  C          8.7300    5.6050    0.3850 C.2   281  LYS281      0.2591
    113  O          8.6180    6.3980   -0.5620 O.2   281  LYS281     -0.2718
    114  CB         7.0880    6.1130    2.2200 C.3   281  LYS281      0.0285
    115  CG         6.3880    4.7590    2.2770 C.3   281  LYS281      0.0035
    116  CD         4.9140    4.9600    2.6220 C.3   281  LYS281      0.0206
    117  CE         4.1690    3.6360    2.7180 C.3   281  LYS281      0.1093
    118  NZ         2.7110    3.8970    2.8820 N.3   281  LYS281     -0.1314
    119  N          8.9850    4.3010    0.2430 N.am  282  GLN282     -0.1979
    120  CA         9.1880    3.6040   -1.0400 C.3   282  GLN282      0.1601
    121  C         10.6530    3.5730   -1.5290 C.2   282  GLN282      0.2287
    122  O         11.0050    2.7620   -2.3850 O.2   282  GLN282     -0.2864
    123  CB         8.2440    4.0950   -2.1580 C.3   282  GLN282      0.0394
    124  CG         6.7370    4.1740   -1.8110 C.3   282  GLN282      0.0908
    125  CD         6.0940    2.8340   -1.4780 C.2   282  GLN282      0.2608
    126  OE1        5.0440    2.7890   -0.8330 O.2   282  GLN282     -0.2717
    127  NE2        6.7060    1.7440   -1.9250 N.am  282  GLN282     -0.0878
@<TRIPOS>BOND
     1   108   106    1
     2   106   103    1
     3   106   107    1
     4   122   121    2
     5   109   107    1
     6   123   124    1
     7   123   120    1
     8   105   104    2
     9   103   104    1
    10   103   102    1
    11   127   125   am
    12   124   125    1
    13    78    77   ar
    14    78    76   ar
    15    77    75   ar
    16   121   120    1
    17   125   126    2
    18    40    41   ar
    19    40    38   ar
    20    42    41    1
    21   120   119    1
    22    41    39   ar
    23    38    36   ar
    24    76    74   ar
    25    75    73   ar
    26   113   112    2
    27    31    32    1
    28    34    33    2
    29    23    22    1
    30   119   112   am
    31    74    73   ar
    32   112   111    1
    33    73    72    1
    34    39    37   ar
    35    36    37   ar
    36    36    35    1
    37    33    32    1
    38    32    35    1
    39    24    22    1
    40    22    21    1
    41    72    69    1
    42   111   110    1
    43   111   114    1
    44    21    18    1
    45   114   115    1
    46   115   116    1
    47    70    71    2
    48    70    69    1
    49   116   117    1
    50   117   118    1
    51    69    68    1
    52    67    66    1
    53    93    90    1
    54    17    18    1
    55    18    19    1
    56    92    91    2
    57    87    88   ar
    58    87    85   ar
    59    91    90    1
    60    90    89    1
    61    88    86   ar
    62    30    29    1
    63    19    20    2
    64    66    63    1
    65    29    26    1
    66    61    60   ar
    67    61    59   ar
    68    85    84   ar
    69    60    58   ar
    70    16    14   ar
    71    89    81   am
    72    25    26    1
    73   101    99   am
    74    59    57   ar
    75    26    27    1
    76    86    84   ar
    77    62    63    1
    78    63    64    1
    79    99   100    2
    80    99    98    1
    81    58    57   ar
    82    27    28    2
    83    14    15   ar
    84    14    13    1
    85    98    95    1
    86    84    83    1
    87    64    65    2
    88    81    82    2
    89    81    80    1
    90    57    56    1
    91    55    54    2
    92    13    10    1
    93    80    83    1
    94    80    79    1
    95    95    96    1
    96    95    94    1
    97    96    97    2
    98    51    50    1
    99    54    53    1
   100    56    53    1
   101    53    52    1
   102    10    11    1
   103    10     9    1
   104    12    11    2
   105     7     6   ar
   106    50    49    1
   107    49    48    1
   108     8     6   ar
   109     9     3   am
   110     6     5    1
   111    48    47    1
   112     3     4    2
   113     3     2    1
   114     5     2    1
   115     2     1    1
   116    47    44    1
   117    45    44    1
   118    45    46    2
   119    44    43    1
