@<TRIPOS>MOLECULE
tmp/4fdjB02.pdb
 138 129 0 0 0
SMALL
GASTEIGER

@<TRIPOS>ATOM
      1  N         27.3290   33.7480   12.5320 N.3    11  ASP11      -0.1225
      2  CA        27.5840   34.1340   11.1500 C.3    11  ASP11       0.1805
      3  C         27.3450   32.9270   10.2300 C.2    11  ASP11       0.2597
      4  O         28.1130   31.9580   10.2290 O.2    11  ASP11      -0.2718
      5  CB        29.0260   34.6490   11.0380 C.3    11  ASP11       0.1424
      6  CG        29.3030   35.3620    9.7290 C.2    11  ASP11       0.3668
      7  OD1       28.3530   35.6070    8.9580 O.co2  11  ASP11      -0.2456
      8  OD2       30.4760   35.6910    9.4670 O.co2  11  ASP11      -0.2456
      9  N         26.2580   32.9830    9.4720 N.am   12  ASP12      -0.1974
     10  CA        25.9110   31.9520    8.4810 C.3    12  ASP12       0.1709
     11  C         25.4710   30.6020    9.0540 C.2    12  ASP12       0.2293
     12  O         25.4720   29.5880    8.3330 O.2    12  ASP12      -0.2864
     13  CB        27.0410   31.7530    7.4540 C.3    12  ASP12       0.1436
     14  CG        27.2690   32.9720    6.5880 C.2    12  ASP12       0.3671
     15  OD1       26.5130   33.9470    6.7240 O.co2  12  ASP12      -0.2456
     16  OD2       28.2030   32.9610    5.7650 O.co2  12  ASP12      -0.2456
     17  N         21.6920   38.1750    3.8230 N.3    50  LEU50      -0.1245
     18  CA        23.1300   38.1650    4.1310 C.3    50  LEU50       0.1561
     19  C         23.5330   39.0600    5.3210 C.2    50  LEU50       0.2260
     20  O         22.6710   39.6600    5.9700 O.2    50  LEU50      -0.2867
     21  CB        23.9640   38.4440    2.8800 C.3    50  LEU50       0.0270
     22  CG        23.9880   39.8220    2.2210 C.3    50  LEU50       0.0019
     23  CD1       24.9170   39.7870    1.0220 C.3    50  LEU50       0.0001
     24  CD2       22.6020   40.2920    1.8010 C.3    50  LEU50       0.0001
     25  N         25.9080   42.0420    6.4020 N.3    51  SER51      -0.1217
     26  CA        25.8200   43.4980    6.6550 C.3    51  SER51       0.1889
     27  C         24.3990   43.9740    6.9510 C.2    51  SER51       0.2288
     28  O         24.1190   44.4010    8.0730 O.2    51  SER51      -0.2866
     29  CB        26.3950   44.3180    5.4920 C.3    51  SER51       0.2089
     30  OG        27.7380   43.9790    5.2420 O.3    51  SER51      -0.2183
     31  N         26.4300   44.0020    0.3430 N.3    79  TYR79      -0.1241
     32  CA        26.9850   44.0310    1.6940 C.3    79  TYR79       0.1605
     33  C         28.1210   45.0450    1.7290 C.2    79  TYR79       0.2264
     34  O         28.2100   45.9040    0.8610 O.2    79  TYR79      -0.2867
     35  CB        27.4570   42.6300    2.1160 C.3    79  TYR79       0.0534
     36  CG        28.5740   42.0910    1.2580 C.ar   79  TYR79      -0.0201
     37  CD1       29.8600   41.9340    1.7760 C.ar   79  TYR79      -0.0009
     38  CD2       28.3530   41.7580   -0.0890 C.ar   79  TYR79      -0.0009
     39  CE1       30.9100   41.4510    0.9740 C.ar   79  TYR79       0.0417
     40  CE2       29.3860   41.2750   -0.9000 C.ar   79  TYR79       0.0417
     41  CZ        30.6610   41.1240   -0.3620 C.ar   79  TYR79       0.1957
     42  OH        31.6710   40.6450   -1.1660 O.3    79  TYR79      -0.2866
     43  N         33.0010   40.4330   14.3900 N.3   111  LYS111     -0.1245
     44  CA        32.7310   41.1010   13.1210 C.3   111  LYS111      0.1561
     45  C         31.7530   42.2870   13.2000 C.2   111  LYS111      0.2260
     46  O         30.6430   42.1710   13.7350 O.2   111  LYS111     -0.2867
     47  CB        32.2640   40.0800   12.0800 C.3   111  LYS111      0.0271
     48  CG        32.3860   40.5620   10.6400 C.3   111  LYS111      0.0035
     49  CD        32.0450   39.4580    9.6540 C.3   111  LYS111      0.0206
     50  CE        30.5640   39.1140    9.6540 C.3   111  LYS111      0.1093
     51  NZ        30.2310   38.1080    8.6090 N.3   111  LYS111     -0.1314
     52  N         31.1250   44.7560   10.2200 N.3   113  HIS113     -0.1241
     53  CA        30.4650   44.7040    8.9160 C.3   113  HIS113      0.1621
     54  C         29.4730   45.8340    8.6090 C.2   113  HIS113      0.2264
     55  O         28.6450   45.7090    7.7130 O.2   113  HIS113     -0.2867
     56  CB        29.8330   43.3290    8.6980 C.3   113  HIS113      0.0745
     57  CG        30.2100   42.7110    7.3920 C.ar  113  HIS113      0.0817
     58  ND1       29.3870   41.8330    6.7150 N.ar  113  HIS113     -0.2268
     59  CD2       31.3210   42.8650    6.6280 C.ar  113  HIS113      0.1154
     60  CE1       29.9780   41.4730    5.5890 C.ar  113  HIS113      0.1986
     61  NE2       31.1530   42.0820    5.5130 N.ar  113  HIS113     -0.2212
     62  N         35.1690   40.5690    6.5650 N.3   136  CYS136     -0.1235
     63  CA        35.3280   39.1200    6.5340 C.3   136  CYS136      0.1677
     64  C         36.7520   38.7130    6.9010 C.2   136  CYS136      0.2270
     65  O         37.6380   39.5650    7.0750 O.2   136  CYS136     -0.2867
     66  CB        34.9740   38.5660    5.1460 C.3   136  CYS136      0.0956
     67  SG        35.7130   39.3970    3.6910 S.3   136  CYS136     -0.0801
     68  N         38.3690   36.6450    4.7940 N.3   138  PHE138     -0.1241
     69  CA        38.8150   36.0690    3.5320 C.3   138  PHE138      0.1605
     70  C         40.2540   36.4910    3.2270 C.2   138  PHE138      0.2264
     71  O         40.7030   37.5650    3.6360 O.2   138  PHE138     -0.2867
     72  CB        37.8660   36.4370    2.3840 C.3   138  PHE138      0.0534
     73  CG        38.0020   35.5460    1.1790 C.ar  138  PHE138     -0.0203
     74  CD1       37.3290   34.3270    1.1180 C.ar  138  PHE138     -0.0042
     75  CD2       38.8140   35.9210    0.1050 C.ar  138  PHE138     -0.0042
     76  CE1       37.4610   33.4890   -0.0010 C.ar  138  PHE138     -0.0003
     77  CE2       38.9580   35.0940   -1.0170 C.ar  138  PHE138     -0.0003
     78  CZ        38.2790   33.8760   -1.0720 C.ar  138  PHE138     -0.0000
     79  N         32.5260   34.4880   13.9800 N.3   204  ASP204     -0.1239
     80  CA        32.4080   34.2100   12.5410 C.3   204  ASP204      0.1674
     81  C         33.1900   32.9960   12.0150 C.2   204  ASP204      0.2266
     82  O         33.2660   32.7850   10.8020 O.2   204  ASP204     -0.2867
     83  CB        32.7010   35.4760   11.7060 C.3   204  ASP204      0.1410
     84  CG        34.1790   35.8380   11.6630 C.2   204  ASP204      0.3668
     85  OD1       34.8940   35.6390   12.6720 O.co2 204  ASP204     -0.2456
     86  OD2       34.6250   36.3330   10.6070 O.co2 204  ASP204     -0.2456
     87  N         31.7470   31.2910    9.1430 N.3   207  HIS207     -0.1241
     88  CA        31.7750   31.8610    7.8060 C.3   207  HIS207      0.1621
     89  C         32.9470   31.2710    7.0360 C.2   207  HIS207      0.2264
     90  O         34.0460   31.1410    7.5780 O.2   207  HIS207     -0.2867
     91  CB        31.9170   33.3840    7.8580 C.3   207  HIS207      0.0745
     92  CG        31.5020   34.0700    6.5900 C.ar  207  HIS207      0.0817
     93  ND1       32.2240   33.9740    5.4190 N.ar  207  HIS207     -0.2268
     94  CD2       30.4440   34.8700    6.3120 C.ar  207  HIS207      0.1154
     95  CE1       31.6270   34.6780    4.4740 C.ar  207  HIS207      0.1986
     96  NE2       30.5450   35.2330    4.9900 N.ar  207  HIS207     -0.2212
     97  N         22.7740   35.6450   11.7710 N.3   259  ASP259     -0.1225
     98  CA        22.4980   36.8140   10.9330 C.3   259  ASP259      0.1805
     99  C         21.7540   36.4790    9.6590 C.2   259  ASP259      0.2597
    100  O         21.1050   37.3430    9.0980 O.2   259  ASP259     -0.2718
    101  CB        23.7700   37.6220   10.6300 C.3   259  ASP259      0.1424
    102  CG        24.8560   36.8030    9.9460 C.2   259  ASP259      0.3668
    103  OD1       24.7020   35.5750    9.7610 O.co2 259  ASP259     -0.2456
    104  OD2       25.8900   37.4060    9.5820 O.co2 259  ASP259     -0.2456
    105  N         21.8550   35.2290    9.2130 N.am  260  ASN260     -0.1974
    106  CA        21.1600   34.7470    8.0040 C.3   260  ASN260      0.1688
    107  C         21.2090   33.2220    7.9260 C.2   260  ASN260      0.2292
    108  O         21.7120   32.5690    8.8380 O.2   260  ASN260     -0.2864
    109  CB        21.7400   35.3670    6.7180 C.3   260  ASN260      0.1181
    110  CG        23.2370   35.1950    6.6250 C.2   260  ASN260      0.2629
    111  OD1       23.9900   36.1650    6.7480 O.2   260  ASN260     -0.2716
    112  ND2       23.6860   33.9510    6.4510 N.am  260  ASN260     -0.0877
    113  N         26.3120   27.3400   -0.6230 N.3   265  ILE265     -0.1245
    114  CA        27.3610   27.2120   -1.6460 C.3   265  ILE265      0.1561
    115  C         28.6180   26.5690   -1.0570 C.2   265  ILE265      0.2260
    116  O         29.4380   26.0170   -1.7840 O.2   265  ILE265     -0.2867
    117  CB        27.7250   28.5540   -2.3680 C.3   265  ILE265      0.0252
    118  CG1       28.1680   29.6380   -1.3650 C.3   265  ILE265      0.0019
    119  CG2       26.5830   29.0130   -3.2790 C.3   265  ILE265      0.0019
    120  CD1       29.1130   30.6980   -1.9500 C.3   265  ILE265      0.0001
    121  N         21.1250   31.0220    2.5540 N.3   281  LYS281     -0.1231
    122  CA        21.7150   32.3490    2.3880 C.3   281  LYS281      0.1693
    123  C         21.5840   32.8310    0.9490 C.2   281  LYS281      0.2591
    124  O         21.6990   32.0250    0.0060 O.2   281  LYS281     -0.2718
    125  CB        23.1930   32.2910    2.7800 C.3   281  LYS281      0.0285
    126  CG        23.8900   33.6360    2.9690 C.3   281  LYS281      0.0035
    127  CD        25.3470   33.4220    3.3630 C.3   281  LYS281      0.0206
    128  CE        26.0930   34.7330    3.4490 C.3   281  LYS281      0.1093
    129  NZ        27.5440   34.4940    3.5840 N.3   281  LYS281     -0.1314
    130  N         21.3460   34.1390    0.7970 N.am  282  GLN282     -0.1979
    131  CA        21.1550   34.8330   -0.4990 C.3   282  GLN282      0.1601
    132  C         19.6860   34.9050   -0.9710 C.2   282  GLN282      0.2287
    133  O         19.3330   35.7600   -1.8030 O.2   282  GLN282     -0.2864
    134  CB        22.0450   34.2720   -1.6270 C.3   282  GLN282      0.0394
    135  CG        23.5390   34.1450   -1.3150 C.3   282  GLN282      0.0908
    136  CD        24.2370   35.4680   -1.0370 C.2   282  GLN282      0.2608
    137  OE1       25.0640   35.5570   -0.1280 O.2   282  GLN282     -0.2717
    138  NE2       23.9150   36.4970   -1.8220 N.am  282  GLN282     -0.0878
@<TRIPOS>BOND
     1   119   117    1
     2   117   114    1
     3   117   118    1
     4   120   118    1
     5   138   136   am
     6   133   132    2
     7   116   115    2
     8   114   115    1
     9   114   113    1
    10   134   135    1
    11   134   131    1
    12   135   136    1
    13    42    41    1
    14    78    77   ar
    15    78    76   ar
    16   136   137    2
    17    77    75   ar
    18   132   131    1
    19    40    41   ar
    20    40    38   ar
    21   131   130    1
    22    41    39   ar
    23    38    36   ar
    24    76    74   ar
    25   124   123    2
    26    75    73   ar
    27    31    32    1
    28   130   123   am
    29    34    33    2
    30   123   122    1
    31    39    37   ar
    32    23    22    1
    33    74    73   ar
    34    73    72    1
    35    36    37   ar
    36    36    35    1
    37    32    33    1
    38    32    35    1
    39    24    22    1
    40    22    21    1
    41    72    69    1
    42   122   121    1
    43   122   125    1
    44   125   126    1
    45    21    18    1
    46   126   127    1
    47    70    69    1
    48    70    71    2
    49   127   128    1
    50   128   129    1
    51    69    68    1
    52    67    66    1
    53    17    18    1
    54    18    19    1
    55    95    96   ar
    56    95    93   ar
    57    96    94   ar
    58    66    63    1
    59    30    29    1
    60    19    20    2
    61    93    92   ar
    62    29    26    1
    63    61    60   ar
    64    61    59   ar
    65    60    58   ar
    66    16    14   ar
    67    94    92   ar
    68    25    26    1
    69   112   110   am
    70    63    62    1
    71    63    64    1
    72    14    15   ar
    73    14    13    1
    74    92    91    1
    75   110   109    1
    76   110   111    2
    77    59    57   ar
    78    26    27    1
    79    58    57   ar
    80   109   106    1
    81    64    65    2
    82    27    28    2
    83    89    90    2
    84    89    88    1
    85    57    56    1
    86    13    10    1
    87    55    54    2
    88    88    91    1
    89    88    87    1
    90   107   106    1
    91   107   108    2
    92   106   105    1
    93    12    11    2
    94    10    11    1
    95    10     9    1
    96    51    50    1
    97    54    53    1
    98    56    53    1
    99    53    52    1
   100     7     6   ar
   101   100    99    2
   102   105    99   am
   103     8     6   ar
   104     9     3   am
   105   104   102   ar
   106    50    49    1
   107    49    48    1
   108    99    98    1
   109     6     5    1
   110   103   102   ar
   111   102   101    1
   112     4     3    2
   113     3     2    1
   114    86    84   ar
   115   101    98    1
   116    48    47    1
   117    82    81    2
   118    98    97    1
   119     5     2    1
   120     2     1    1
   121    84    83    1
   122    84    85   ar
   123    83    80    1
   124    81    80    1
   125    47    44    1
   126    80    79    1
   127    44    45    1
   128    44    43    1
   129    45    46    2
