@<TRIPOS>MOLECULE
tmp/4fdoA01.pdb
 193 183 0 0 0
SMALL
GASTEIGER

@<TRIPOS>ATOM
      1  N         33.2820    3.6030    8.3020 N.3    54  TYR54      -0.1241
      2  CA        32.0630    3.5280    9.1040 C.3    54  TYR54       0.1605
      3  C         30.9040    2.9510    8.3110 C.2    54  TYR54       0.2264
      4  O         29.8860    2.5760    8.8800 O.2    54  TYR54      -0.2867
      5  CB        31.6710    4.9060    9.6360 C.3    54  TYR54       0.0534
      6  CG        32.5560    5.4150   10.7600 C.ar   54  TYR54      -0.0201
      7  CD1       32.0800    5.4720   12.0670 C.ar   54  TYR54      -0.0009
      8  CD2       33.8740    5.8380   10.5150 C.ar   54  TYR54      -0.0009
      9  CE1       32.8730    5.9460   13.1000 C.ar   54  TYR54       0.0417
     10  CE2       34.6770    6.3120   11.5440 C.ar   54  TYR54       0.0417
     11  CZ        34.1690    6.3630   12.8390 C.ar   54  TYR54       0.1957
     12  OH        34.9410    6.8250   13.8830 O.3    54  TYR54      -0.2866
     13  N         47.9400   11.4670    5.7950 N.3   109  LEU109     -0.1231
     14  CA        47.6500   10.7370    7.0250 C.3   109  LEU109      0.1678
     15  C         46.2850   11.1070    7.6030 C.2   109  LEU109      0.2434
     16  O         46.0360   12.2630    7.9460 O.2   109  LEU109     -0.2733
     17  CB        48.7510   10.9790    8.0580 C.3   109  LEU109      0.0284
     18  CG        50.0600   10.2570    7.7220 C.3   109  LEU109      0.0019
     19  CD1       51.2310   10.8400    8.4940 C.3   109  LEU109      0.0001
     20  CD2       49.9220    8.7490    7.9790 C.3   109  LEU109      0.0001
     21  N         45.3930   10.1180    7.7070 N.am  110  PRO110     -0.2718
     22  CA        44.0620   10.3470    8.2620 C.3   110  PRO110      0.1535
     23  C         44.1320   10.3410    9.7970 C.2   110  PRO110      0.2599
     24  O         45.2260   10.1890   10.3580 O.2   110  PRO110     -0.2715
     25  CB        43.2820    9.1330    7.7600 C.3   110  PRO110      0.0310
     26  CG        44.3190    8.0240    7.7360 C.3   110  PRO110      0.0237
     27  CD        45.6350    8.6930    7.4100 C.3   110  PRO110      0.0939
     28  N         42.9840   10.4760   10.4570 N.am  111  GLY111     -0.1955
     29  CA        42.9220   10.4620   11.9100 C.3   111  GLY111      0.1869
     30  C         43.3560    9.1870   12.6230 C.2   111  GLY111      0.2309
     31  O         43.5140    9.1820   13.8440 O.2   111  GLY111     -0.2863
     32  N         41.6020   11.6540    2.9000 N.3   126  HIS126     -0.1226
     33  CA        42.1730   12.9890    3.0580 C.3   126  HIS126      0.1752
     34  C         42.7610   13.1300    4.4420 C.2   126  HIS126      0.2597
     35  O         42.4140   12.3820    5.3460 O.2   126  HIS126     -0.2718
     36  CB        41.0960   14.0660    2.8590 C.3   126  HIS126      0.0759
     37  CG        39.8640   13.8410    3.6750 C.ar  126  HIS126      0.0818
     38  ND1       38.8340   13.0190    3.2590 N.ar  126  HIS126     -0.2268
     39  CD2       39.5080   14.2980    4.8980 C.ar  126  HIS126      0.1154
     40  CE1       37.8910   13.0010    4.1820 C.ar  126  HIS126      0.1986
     41  NE2       38.2770   13.7660    5.1910 N.ar  126  HIS126     -0.2212
     42  N         43.6400   14.1060    4.6130 N.am  127  GLY127     -0.1942
     43  CA        44.2400   14.3310    5.9030 C.3   127  GLY127      0.2014
     44  C         44.3040   15.8030    6.2270 C.2   127  GLY127      0.2638
     45  O         43.7820   16.6400    5.4970 O.2   127  GLY127     -0.2714
     46  N         44.9660   16.1080    7.3350 N.am  128  LYS128     -0.1977
     47  CA        45.1050   17.4610    7.8320 C.3   128  LYS128      0.1596
     48  C         45.8300   18.3650    6.8200 C.2   128  LYS128      0.2287
     49  O         45.7140   19.5930    6.8620 O.2   128  LYS128     -0.2864
     50  CB        45.8390   17.4010    9.1730 C.3   128  LYS128      0.0298
     51  CG        45.7890   18.6550    9.9890 C.3   128  LYS128      0.0038
     52  CD        46.2220   18.3640   11.4130 C.3   128  LYS128      0.0206
     53  CE        46.3950   19.6470   12.2180 C.3   128  LYS128      0.1093
     54  NZ        46.8700   19.3530   13.6000 N.3   128  LYS128     -0.1314
     55  N         43.8220   21.7800   10.7200 N.3   222  SER222     -0.1217
     56  CA        42.4810   21.2900   11.0370 C.3   222  SER222      0.1889
     57  C         41.9850   21.9910   12.2960 C.2   222  SER222      0.2288
     58  O         42.7680   22.6040   13.0120 O.2   222  SER222     -0.2866
     59  CB        42.4570   19.7710   11.2290 C.3   222  SER222      0.2089
     60  OG        43.2620   19.3810   12.3220 O.3   222  SER222     -0.2183
     61  N         39.1800   21.9040   15.8300 N.3   224  TRP224     -0.1241
     62  CA        38.1600   21.3530   16.6980 C.3   224  TRP224      0.1605
     63  C         37.0900   22.4330   16.8690 C.2   224  TRP224      0.2264
     64  O         37.3930   23.5710   17.2080 O.2   224  TRP224     -0.2867
     65  CB        38.7700   20.9810   18.0390 C.3   224  TRP224      0.0550
     66  CG        37.9980   19.9330   18.7430 C.ar  224  TRP224      0.0003
     67  CD1       37.1090   20.1140   19.7810 C.ar  224  TRP224      0.0946
     68  CD2       38.0140   18.5340   18.4690 C.ar  224  TRP224      0.0152
     69  NE1       36.5920   18.9150   20.1670 N.ar  224  TRP224     -0.2442
     70  CE2       37.1260   17.9230   19.3810 C.ar  224  TRP224      0.0810
     71  CE3       38.6950   17.7320   17.5480 C.ar  224  TRP224      0.0012
     72  CZ2       36.9010   16.5350   19.3930 C.ar  224  TRP224      0.0191
     73  CZ3       38.4720   16.3680   17.5590 C.ar  224  TRP224      0.0001
     74  CH2       37.5820   15.7790   18.4690 C.ar  224  TRP224      0.0015
     75  N         48.1060   15.7160   16.2850 N.3   279  TYR279     -0.1241
     76  CA        46.7840   15.2950   15.8500 C.3   279  TYR279      0.1605
     77  C         45.7890   15.1780   17.0140 C.2   279  TYR279      0.2264
     78  O         44.6150   14.9120   16.7830 O.2   279  TYR279     -0.2867
     79  CB        46.8620   13.9720   15.0680 C.3   279  TYR279      0.0534
     80  CG        47.0700   14.1030   13.5580 C.ar  279  TYR279     -0.0201
     81  CD1       46.2630   13.4070   12.6620 C.ar  279  TYR279     -0.0009
     82  CD2       48.0790   14.9050   13.0280 C.ar  279  TYR279     -0.0009
     83  CE1       46.4510   13.5100   11.2790 C.ar  279  TYR279      0.0417
     84  CE2       48.2760   15.0150   11.6350 C.ar  279  TYR279      0.0417
     85  CZ        47.4590   14.3160   10.7720 C.ar  279  TYR279      0.1957
     86  OH        47.6420   14.4170    9.4020 O.3   279  TYR279     -0.2866
     87  N         42.4210   13.3020   18.2860 N.3   282  LEU282     -0.1245
     88  CA        41.7860   12.3730   17.3530 C.3   282  LEU282      0.1561
     89  C         42.0100   10.8960   17.7200 C.2   282  LEU282      0.2260
     90  O         41.0930   10.0690   17.5850 O.2   282  LEU282     -0.2867
     91  CB        42.2270   12.6540   15.9100 C.3   282  LEU282      0.0270
     92  CG        41.8350   14.0330   15.3690 C.3   282  LEU282      0.0019
     93  CD1       42.3890   14.2570   13.9680 C.3   282  LEU282      0.0001
     94  CD2       40.3250   14.2050   15.3850 C.3   282  LEU282      0.0001
     95  N         39.9470    9.6010   20.9140 N.3   285  PHE285     -0.1227
     96  CA        38.5040    9.5320   20.6890 C.3   285  PHE285      0.1736
     97  C         38.1090    8.7000   19.4660 C.2   285  PHE285      0.2596
     98  O         36.9250    8.6120   19.1300 O.2   285  PHE285     -0.2718
     99  CB        37.9070   10.9350   20.5590 C.3   285  PHE285      0.0547
    100  CG        37.7820   11.6640   21.8640 C.ar  285  PHE285     -0.0202
    101  CD1       37.0080   11.1410   22.8900 C.ar  285  PHE285     -0.0042
    102  CD2       38.4250   12.8790   22.0630 C.ar  285  PHE285     -0.0042
    103  CE1       36.8880   11.8100   24.0950 C.ar  285  PHE285     -0.0003
    104  CE2       38.3070   13.5540   23.2640 C.ar  285  PHE285     -0.0003
    105  CZ        37.5380   13.0200   24.2810 C.ar  285  PHE285     -0.0000
    106  N         39.0950    8.0980   18.8040 N.am  286  GLY286     -0.1957
    107  CA        38.8390    7.3080   17.6140 C.3   286  GLY286      0.1869
    108  C         37.9660    6.0840   17.8460 C.2   286  GLY286      0.2309
    109  O         37.1900    5.6970   16.9730 O.2   286  GLY286     -0.2863
    110  N         27.8820    9.1870   13.1730 N.3   299  GLN299     -0.1245
    111  CA        28.8480   10.0890   12.5790 C.3   299  GLN299      0.1566
    112  C         28.2060   10.6800   11.3370 C.2   299  GLN299      0.2260
    113  O         27.3400   10.0530   10.7260 O.2   299  GLN299     -0.2867
    114  CB        30.1230    9.3340   12.1910 C.3   299  GLN299      0.0367
    115  CG        29.9720    8.4240   10.9590 C.3   299  GLN299      0.0905
    116  CD        29.0610    7.2070   11.1800 C.2   299  GLN299      0.2608
    117  OE1       28.9760    6.6650   12.2930 O.2   299  GLN299     -0.2717
    118  NE2       28.3810    6.7700   10.1070 N.am  299  GLN299     -0.0878
    119  N         29.5370   13.3080    8.0610 N.3   301  GLN301     -0.1245
    120  CA        30.5560   14.1310    7.4300 C.3   301  GLN301      0.1566
    121  C         30.0680   14.7100    6.1030 C.2   301  GLN301      0.2260
    122  O         29.4460   14.0190    5.2950 O.2   301  GLN301     -0.2867
    123  CB        31.8550   13.3280    7.2200 C.3   301  GLN301      0.0367
    124  CG        32.9450   14.1510    6.5550 C.3   301  GLN301      0.0905
    125  CD        34.3280   13.5560    6.6830 C.2   301  GLN301      0.2608
    126  OE1       34.5280   12.4930    7.2850 O.2   301  GLN301     -0.2717
    127  NE2       35.3060   14.2520    6.1180 N.am  301  GLN301     -0.0878
    128  N         32.2450   15.9580   19.3960 N.3   328  LEU328     -0.1245
    129  CA        33.3740   15.5710   18.5550 C.3   328  LEU328      0.1561
    130  C         33.1930   16.0990   17.1310 C.2   328  LEU328      0.2260
    131  O         32.5830   15.4400   16.2800 O.2   328  LEU328     -0.2867
    132  CB        33.5470   14.0550   18.5570 C.3   328  LEU328      0.0270
    133  CG        33.4900   13.4070   19.9470 C.3   328  LEU328      0.0019
    134  CD1       33.3760   11.8770   19.8590 C.3   328  LEU328      0.0001
    135  CD2       34.6890   13.8250   20.8090 C.3   328  LEU328      0.0001
    136  N         35.2230   17.8180   13.8130 N.3   330  VAL330     -0.1245
    137  CA        36.4600   18.1530   13.1380 C.3   330  VAL330      0.1561
    138  C         36.1350   18.9750   11.9070 C.2   330  VAL330      0.2260
    139  O         35.2540   18.6380   11.1340 O.2   330  VAL330     -0.2867
    140  CB        37.2360   16.9010   12.7360 C.3   330  VAL330      0.0252
    141  CG1       38.6660   17.2670   12.3580 C.3   330  VAL330      0.0019
    142  CG2       37.2420   15.9320   13.8800 C.3   330  VAL330      0.0019
    143  N         37.7600   21.4400    8.5700 N.3   332  LYS332     -0.1245
    144  CA        38.9050   21.7310    7.7260 C.3   332  LYS332      0.1561
    145  C         38.4500   22.3980    6.4440 C.2   332  LYS332      0.2260
    146  O         37.3430   22.1400    5.9610 O.2   332  LYS332     -0.2867
    147  CB        39.6500   20.4480    7.3670 C.3   332  LYS332      0.0271
    148  CG        41.0760   20.6950    6.9720 C.3   332  LYS332      0.0035
    149  CD        41.5940   19.7160    5.9560 C.3   332  LYS332      0.0206
    150  CE        42.7380   20.3540    5.1830 C.3   332  LYS332      0.1093
    151  NZ        43.4250   21.4130    6.0070 N.3   332  LYS332     -0.1314
    152  N         39.1390   22.1480    2.7640 N.3   334  PHE334     -0.1241
    153  CA        39.7710   21.3410    1.7180 C.3   334  PHE334      0.1605
    154  C         40.3620   22.2270    0.6290 C.2   334  PHE334      0.2264
    155  O         39.8890   23.3400    0.3920 O.2   334  PHE334     -0.2867
    156  CB        38.7590   20.3840    1.0710 C.3   334  PHE334      0.0534
    157  CG        38.4370   19.1630    1.8990 C.ar  334  PHE334     -0.0203
    158  CD1       39.2920   18.7340    2.8970 C.ar  334  PHE334     -0.0042
    159  CD2       37.2780   18.4300    1.6570 C.ar  334  PHE334     -0.0042
    160  CE1       38.9930   17.5960    3.6550 C.ar  334  PHE334     -0.0003
    161  CE2       36.9780   17.3030    2.3950 C.ar  334  PHE334     -0.0003
    162  CZ        37.8370   16.8810    3.4020 C.ar  334  PHE334     -0.0000
    163  N         34.6850   21.6220    5.1940 N.3   350  ASN350     -0.1240
    164  CA        34.4830   20.2340    5.5620 C.3   350  ASN350      0.1653
    165  C         34.3010   20.0450    7.0610 C.2   350  ASN350      0.2266
    166  O         35.0780   20.5590    7.8690 O.2   350  ASN350     -0.2867
    167  CB        35.6560   19.3750    5.0780 C.3   350  ASN350      0.1155
    168  CG        35.6110   17.9640    5.6500 C.2   350  ASN350      0.2627
    169  OD1       36.2090   17.6890    6.6840 O.2   350  ASN350     -0.2716
    170  ND2       34.8800   17.0780    4.9940 N.am  350  ASN350     -0.0877
    171  N         33.1330   16.9260   10.0980 N.3   352  CYS352     -0.1235
    172  CA        32.5560   15.6970   10.5910 C.3   352  CYS352      0.1677
    173  C         32.0010   15.9600   11.9850 C.2   352  CYS352      0.2270
    174  O         32.6860   16.5140   12.8350 O.2   352  CYS352     -0.2867
    175  CB        33.5850   14.5560   10.5980 C.3   352  CYS352      0.0956
    176  SG        32.9440   12.9480   11.2440 S.3   352  CYS352     -0.0801
    177  N         29.3090   14.1580   15.2140 N.3   354  ASP354     -0.1239
    178  CA        28.9260   12.8620   15.7640 C.3   354  ASP354      0.1674
    179  C         27.7220   12.9850   16.7020 C.2   354  ASP354      0.2266
    180  O         27.8690   13.3600   17.8620 O.2   354  ASP354     -0.2867
    181  CB        30.1290   12.2500   16.4890 C.3   354  ASP354      0.1410
    182  CG        29.9840   10.7530   16.7300 C.2   354  ASP354      0.3668
    183  OD1       29.1450   10.0970   16.0730 O.co2 354  ASP354     -0.2456
    184  OD2       30.7420   10.2340   17.5800 O.co2 354  ASP354     -0.2456
    185  N         31.9670    7.3360    5.6100 N.3   383  LYS383     -0.1245
    186  CA        31.2530    7.8070    6.7900 C.3   383  LYS383      0.1561
    187  C         29.7550    7.5520    6.7200 C.2   383  LYS383      0.2260
    188  O         28.9950    8.0490    7.5500 O.2   383  LYS383     -0.2867
    189  CB        31.5180    9.2990    6.9880 C.3   383  LYS383      0.0271
    190  CG        32.9390    9.5960    7.4390 C.3   383  LYS383      0.0035
    191  CD        33.1730    9.0990    8.8510 C.3   383  LYS383      0.0206
    192  CE        34.4460    9.6760    9.4510 C.3   383  LYS383      0.1093
    193  NZ        34.2760   11.0670    9.9520 N.3   383  LYS383     -0.1314
@<TRIPOS>BOND
     1   155   154    2
     2   154   153    1
     3   156   153    1
     4   156   157    1
     5   159   157   ar
     6   159   161   ar
     7   153   152    1
     8   157   158   ar
     9   161   162   ar
    10    36    33    1
    11    36    37    1
    12   158   160   ar
    13    32    33    1
    14    33    34    1
    15    38    37   ar
    16    38    40   ar
    17   162   160   ar
    18    37    39   ar
    19    40    41   ar
    20    34    42   am
    21    34    35    2
    22    42    43    1
    23    39    41   ar
    24   170   168   am
    25   167   164    1
    26   167   168    1
    27   150   149    1
    28   150   151    1
    29   163   164    1
    30   122   121    2
    31    45    44    2
    32   164   165    1
    33   185   186    1
    34   168   169    2
    35    13    14    1
    36    43    44    1
    37   149   148    1
    38   146   145    2
    39   121   120    1
    40   127   125   am
    41    44    46   am
    42   145   144    1
    43   124   125    1
    44   124   123    1
    45   125   126    2
    46   187   186    1
    47   187   188    2
    48   186   189    1
    49    48    49    2
    50    48    47    1
    51   148   147    1
    52   189   190    1
    53    14    15    1
    54    14    17    1
    55   165   166    2
    56   123   120    1
    57    46    47    1
    58   147   144    1
    59    27    21    1
    60    27    26    1
    61   120   119    1
    62   190   191    1
    63    15    21   am
    64    15    16    2
    65    21    22    1
    66    18    20    1
    67    18    17    1
    68    18    19    1
    69   144   143    1
    70    26    25    1
    71    25    22    1
    72    47    50    1
    73    22    23    1
    74     1     2    1
    75     3     4    2
    76     3     2    1
    77   191   192    1
    78     2     5    1
    79    50    51    1
    80    86    85    1
    81   192   193    1
    82     5     6    1
    83    23    24    2
    84    23    28   am
    85    51    52    1
    86   171   172    1
    87   118   116   am
    88    28    29    1
    89     8     6   ar
    90     8    10   ar
    91   172   175    1
    92   172   173    1
    93   175   176    1
    94    55    56    1
    95   113   112    2
    96     6     7   ar
    97    85    83   ar
    98    85    84   ar
    99   115   116    1
   100   115   114    1
   101    56    59    1
   102    56    57    1
   103   139   138    2
   104   116   117    2
   105    59    60    1
   106    83    81   ar
   107   112   111    1
   108    52    53    1
   109    10    11   ar
   110    84    82   ar
   111   138   137    1
   112    29    30    1
   113   173   174    2
   114     7     9   ar
   115   114   111    1
   116    53    54    1
   117    57    58    2
   118   141   140    1
   119   111   110    1
   120    30    31    2
   121    81    80   ar
   122   140   137    1
   123   140   142    1
   124    11     9   ar
   125    11    12    1
   126    82    80   ar
   127   137   136    1
   128    80    79    1
   129    93    92    1
   130    79    76    1
   131   177   178    1
   132    92    94    1
   133    92    91    1
   134   178   181    1
   135   178   179    1
   136    61    62    1
   137    76    75    1
   138    76    77    1
   139    91    88    1
   140   183   182   ar
   141   131   130    2
   142   181   182    1
   143    62    63    1
   144    62    65    1
   145   179   180    2
   146   182   184   ar
   147    78    77    2
   148    63    64    2
   149   109   108    2
   150   130   129    1
   151    88    89    1
   152    88    87    1
   153    71    73   ar
   154    71    68   ar
   155    73    74   ar
   156    90    89    2
   157   107   108    1
   158   107   106    1
   159    65    66    1
   160    74    72   ar
   161    68    66   ar
   162    68    70   ar
   163   129   132    1
   164   129   128    1
   165   132   133    1
   166    66    67   ar
   167   106    97   am
   168    98    97    2
   169    70    72   ar
   170    70    69   ar
   171    97    96    1
   172    67    69   ar
   173   134   133    1
   174   133   135    1
   175    99    96    1
   176    99   100    1
   177    96    95    1
   178   100   102   ar
   179   100   101   ar
   180   102   104   ar
   181   101   103   ar
   182   104   105   ar
   183   103   105   ar
