@<TRIPOS>MOLECULE
tmp/4fduA00.pdb
 162 153 0 0 0
SMALL
GASTEIGER

@<TRIPOS>ATOM
      1  N         13.8770  -11.9580    5.4440 N.3    12  THR12      -0.1218
      2  CA        13.9420  -11.5420    4.0460 C.3    12  THR12       0.1862
      3  C         12.5700  -11.6590    3.3820 C.2    12  THR12       0.2287
      4  O         12.3690  -11.1450    2.2900 O.2    12  THR12      -0.2866
      5  CB        15.0130  -12.3170    3.2160 C.3    12  THR12       0.1770
      6  OG1       14.6530  -13.7030    3.0980 O.3    12  THR12      -0.2211
      7  CG2       16.4070  -12.1810    3.8490 C.3    12  THR12       0.0375
      8  N         15.9980   -5.1970   -5.3560 N.3    31  ARG31      -0.1231
      9  CA        15.4370   -6.5250   -5.3900 C.3    31  ARG31       0.1694
     10  C         14.0150   -6.4300   -5.9790 C.2    31  ARG31       0.2592
     11  O         13.3670   -5.3840   -5.8830 O.2    31  ARG31      -0.2718
     12  CB        15.4280   -7.0810   -3.9680 C.3    31  ARG31       0.0321
     13  CG        14.9800   -8.5170   -3.8700 C.3    31  ARG31       0.0489
     14  CD        14.6250   -8.9060   -2.4460 C.3    31  ARG31       0.2205
     15  NE        14.2520  -10.3070   -2.4080 N.pl3  31  ARG31      -0.0865
     16  CZ        13.8310  -10.9380   -1.3260 C.cat  31  ARG31       0.5346
     17  NH1       13.7410  -10.2870   -0.1730 N.pl3  31  ARG31       0.1354
     18  NH2       13.5190  -12.2240   -1.4000 N.pl3  31  ARG31       0.1354
     19  N         13.5410   -7.5010   -6.6060 N.am   32  HIS32      -0.1976
     20  CA        12.1330   -7.5890   -7.0160 C.3    32  HIS32       0.1656
     21  C         11.2060   -7.2920   -5.8320 C.2    32  HIS32       0.2291
     22  O         11.6220   -7.3980   -4.6820 O.2    32  HIS32      -0.2864
     23  CB        11.8240   -8.9950   -7.4950 C.3    32  HIS32       0.0771
     24  CG        12.1290  -10.0560   -6.4770 C.ar   32  HIS32       0.0820
     25  ND1       11.3060  -10.3220   -5.4020 N.ar   32  HIS32      -0.2267
     26  CD2       13.1730  -10.9160   -6.3740 C.ar   32  HIS32       0.1154
     27  CE1       11.8290  -11.3010   -4.6840 C.ar   32  HIS32       0.1986
     28  NE2       12.9630  -11.6800   -5.2530 N.ar   32  HIS32      -0.2212
     29  N          6.7650  -11.3260   -3.5510 N.3    35  ARG35      -0.1245
     30  CA         6.5200  -12.4350   -4.4600 C.3    35  ARG35       0.1563
     31  C          5.8600  -13.6100   -3.7750 C.2    35  ARG35       0.2260
     32  O          5.8580  -13.7210   -2.5430 O.2    35  ARG35      -0.2867
     33  CB         7.8400  -12.9450   -5.0570 C.3    35  ARG35       0.0307
     34  CG         8.8520  -13.4110   -3.9860 C.3    35  ARG35       0.0489
     35  CD         9.7720  -14.4840   -4.5360 C.3    35  ARG35       0.2205
     36  NE        10.9370  -14.7550   -3.6960 N.pl3  35  ARG35      -0.0865
     37  CZ        10.9520  -15.6550   -2.7170 C.cat  35  ARG35       0.5346
     38  NH1        9.8660  -16.3650   -2.4510 N.pl3  35  ARG35       0.1354
     39  NH2       12.0570  -15.8630   -2.0160 N.pl3  35  ARG35       0.1354
     40  N          8.8490  -19.6230   -3.7900 N.3    38  THR38      -0.1203
     41  CA         9.5230  -20.1280   -4.9740 C.3    38  THR38       0.1994
     42  C          9.4620  -21.6440   -5.0490 C.2    38  THR38       0.2618
     43  O          9.6460  -22.2360   -6.1140 O.2    38  THR38      -0.2717
     44  CB        11.0030  -19.6950   -5.0100 C.3    38  THR38       0.1784
     45  OG1       11.6450  -20.0730   -3.7820 O.3    38  THR38      -0.2211
     46  CG2       11.1190  -18.1830   -5.2270 C.3    38  THR38       0.0376
     47  N          9.2190  -22.2740   -3.9090 N.am   39  SER39      -0.1951
     48  CA         9.2640  -23.7260   -3.8360 C.3    39  SER39       0.1924
     49  C          8.0350  -24.2860   -3.1160 C.2    39  SER39       0.2314
     50  O          7.4980  -23.6740   -2.1990 O.2    39  SER39      -0.2863
     51  CB        10.5520  -24.1690   -3.1270 C.3    39  SER39       0.2116
     52  OG        10.7360  -25.5680   -3.2310 O.3    39  SER39      -0.2180
     53  N         14.9010  -13.3890  -14.6710 N.3   120  VAL120     -0.1245
     54  CA        13.8210  -13.8570  -13.7920 C.3   120  VAL120      0.1561
     55  C         12.5780  -12.9520  -13.8980 C.2   120  VAL120      0.2260
     56  O         12.6440  -11.7420  -13.6780 O.2   120  VAL120     -0.2867
     57  CB        14.2970  -14.0240  -12.3100 C.3   120  VAL120      0.0252
     58  CG1       13.2880  -14.8100  -11.4970 C.3   120  VAL120      0.0019
     59  CG2       15.5980  -14.7500  -12.2720 C.3   120  VAL120      0.0019
     60  N          9.9110  -12.3350  -12.1230 N.3   122  ARG122     -0.1245
     61  CA         9.5330  -11.4820  -11.0170 C.3   122  ARG122      0.1563
     62  C         10.4160  -10.2310  -10.9670 C.2   122  ARG122      0.2260
     63  O          9.9630   -9.1690  -10.5280 O.2   122  ARG122     -0.2867
     64  CB         9.5160  -12.2280   -9.6800 C.3   122  ARG122      0.0307
     65  CG        10.8310  -12.8740   -9.2790 C.3   122  ARG122      0.0489
     66  CD        10.7840  -13.2620   -7.8250 C.3   122  ARG122      0.2205
     67  NE        11.9480  -14.0430   -7.4360 N.pl3 122  ARG122     -0.0865
     68  CZ        12.1330  -15.3230   -7.7420 C.cat 122  ARG122      0.5346
     69  NH1       11.2280  -16.0080   -8.4500 N.pl3 122  ARG122      0.1354
     70  NH2       13.2420  -15.9170   -7.3370 N.pl3 122  ARG122      0.1354
     71  N         23.7210  -11.8040  -11.1670 N.3   156  ARG156     -0.1245
     72  CA        23.6700  -13.1480  -10.6350 C.3   156  ARG156      0.1563
     73  C         25.0620  -13.7370  -10.4600 C.2   156  ARG156      0.2260
     74  O         25.3080  -14.8920  -10.7990 O.2   156  ARG156     -0.2867
     75  CB        22.7680  -14.0420  -11.4940 C.3   156  ARG156      0.0307
     76  CG        21.2960  -13.5690  -11.4980 C.3   156  ARG156      0.0489
     77  CD        20.4090  -14.4330  -12.3850 C.3   156  ARG156      0.2205
     78  NE        20.1690  -15.7580  -11.8170 N.pl3 156  ARG156     -0.0865
     79  CZ        19.3440  -16.0020  -10.8010 C.cat 156  ARG156      0.5346
     80  NH1       18.6830  -15.0090  -10.2240 N.pl3 156  ARG156      0.1354
     81  NH2       19.1890  -17.2360  -10.3500 N.pl3 156  ARG156      0.1354
     82  N         26.2980  -14.8910   -7.9170 N.3   158  PHE158     -0.1227
     83  CA        26.1700  -16.0140   -6.9920 C.3   158  PHE158      0.1736
     84  C         25.8840  -17.3590   -7.6540 C.2   158  PHE158      0.2595
     85  O         25.7790  -18.3880   -6.9760 O.2   158  PHE158     -0.2718
     86  CB        25.0840  -15.7050   -5.9570 C.3   158  PHE158      0.0547
     87  CG        23.8020  -15.1790   -6.5560 C.ar  158  PHE158     -0.0202
     88  CD1       22.8210  -16.0480   -6.9900 C.ar  158  PHE158     -0.0042
     89  CD2       23.5870  -13.8190   -6.6830 C.ar  158  PHE158     -0.0042
     90  CE1       21.6380  -15.5650   -7.5470 C.ar  158  PHE158     -0.0003
     91  CE2       22.4200  -13.3300   -7.2620 C.ar  158  PHE158     -0.0003
     92  CZ        21.4390  -14.2010   -7.6760 C.ar  158  PHE158     -0.0000
     93  N         25.7400  -17.3440   -8.9760 N.am  159  ASP159     -0.1974
     94  CA        25.5060  -18.5600   -9.7460 C.3   159  ASP159      0.1709
     95  C         26.7430  -18.9120  -10.5290 C.2   159  ASP159      0.2293
     96  O         26.9330  -20.0620  -10.9170 O.2   159  ASP159     -0.2864
     97  CB        24.3740  -18.3430  -10.7530 C.3   159  ASP159      0.1436
     98  CG        23.0090  -18.5700  -10.1540 C.2   159  ASP159      0.3671
     99  OD1       22.9220  -19.2970   -9.1410 O.co2 159  ASP159     -0.2456
    100  OD2       22.0250  -18.0300  -10.7060 O.co2 159  ASP159     -0.2456
    101  N         27.7370  -22.5100   -0.8540 N.3   168  LYS168     -0.1245
    102  CA        26.3060  -22.3630   -0.5810 C.3   168  LYS168      0.1561
    103  C         25.5910  -23.7130   -0.4450 C.2   168  LYS168      0.2260
    104  O         24.6950  -23.8690    0.3930 O.2   168  LYS168     -0.2867
    105  CB        25.5980  -21.4870   -1.6270 C.3   168  LYS168      0.0271
    106  CG        24.0800  -21.6670   -1.6320 C.3   168  LYS168      0.0035
    107  CD        23.3150  -20.3820   -1.9390 C.3   168  LYS168      0.0206
    108  CE        23.2700  -20.0780   -3.4440 C.3   168  LYS168      0.1093
    109  NZ        22.0270  -19.3200   -3.8500 N.3   168  LYS168     -0.1314
    110  N         21.0960  -18.3210    8.8550 N.3   248  ARG248     -0.1231
    111  CA        21.2620  -18.9330    7.5380 C.3   248  ARG248      0.1694
    112  C         21.6470  -17.8920    6.4760 C.2   248  ARG248      0.2591
    113  O         22.5790  -18.1060    5.6960 O.2   248  ARG248     -0.2718
    114  CB        20.0140  -19.7010    7.1270 C.3   248  ARG248      0.0321
    115  CG        20.0890  -20.2790    5.7340 C.3   248  ARG248      0.0489
    116  CD        18.8440  -21.0850    5.3660 C.3   248  ARG248      0.2205
    117  NE        17.6650  -20.2300    5.2780 N.pl3 248  ARG248     -0.0865
    118  CZ        17.3700  -19.4620    4.2340 C.cat 248  ARG248      0.5346
    119  NH1       18.1690  -19.4380    3.1730 N.pl3 248  ARG248      0.1354
    120  NH2       16.2780  -18.7090    4.2550 N.pl3 248  ARG248      0.1354
    121  N         20.9500  -16.7540    6.4640 N.am  249  GLN249     -0.1979
    122  CA        21.2290  -15.7110    5.4810 C.3   249  GLN249      0.1601
    123  C         22.6450  -15.1700    5.6740 C.2   249  GLN249      0.2287
    124  O         23.4220  -15.0540    4.7380 O.2   249  GLN249     -0.2864
    125  CB        20.2000  -14.5670    5.5570 C.3   249  GLN249      0.0394
    126  CG        18.7320  -15.0000    5.4110 C.3   249  GLN249      0.0908
    127  CD        18.4000  -15.5220    4.0150 C.2   249  GLN249      0.2608
    128  OE1       19.2720  -15.6240    3.1550 O.2   249  GLN249     -0.2717
    129  NE2       17.1410  -15.8700    3.7980 N.am  249  GLN249     -0.0878
    130  N         25.1760  -15.9770    2.7150 N.3   253  LYS253     -0.1245
    131  CA        25.1850  -14.8850    1.7390 C.3   253  LYS253      0.1561
    132  C         25.9220  -13.6370    2.1980 C.2   253  LYS253      0.2260
    133  O         25.9630  -12.6560    1.4660 O.2   253  LYS253     -0.2867
    134  CB        23.7530  -14.4890    1.3500 C.3   253  LYS253      0.0271
    135  CG        22.8900  -15.6080    0.7770 C.3   253  LYS253      0.0035
    136  CD        21.4170  -15.1780    0.7560 C.3   253  LYS253      0.0206
    137  CE        20.4850  -16.2090    0.1260 C.3   253  LYS253      0.1093
    138  NZ        20.5610  -17.5710    0.6900 N.3   253  LYS253     -0.1314
    139  N         17.9390   -9.6640   -7.1100 N.3   296  HIS296     -0.1226
    140  CA        17.5030  -10.5640   -6.0600 C.3   296  HIS296      0.1752
    141  C         18.0970  -10.2350   -4.7020 C.2   296  HIS296      0.2596
    142  O         18.9300   -9.3370   -4.5750 O.2   296  HIS296     -0.2718
    143  CB        17.8490  -11.9910   -6.4540 C.3   296  HIS296      0.0759
    144  CG        17.3720  -12.3460   -7.8190 C.ar  296  HIS296      0.0818
    145  ND1       16.1300  -12.8930   -8.0550 N.ar  296  HIS296     -0.2268
    146  CD2       17.9520  -12.1860   -9.0320 C.ar  296  HIS296      0.1154
    147  CE1       15.9770  -13.0780   -9.3520 C.ar  296  HIS296      0.1986
    148  NE2       17.0620  -12.6460   -9.9690 N.ar  296  HIS296     -0.2212
    149  N         17.6340  -10.9500   -3.6830 N.am  297  ALA297     -0.1966
    150  CA        18.1800  -10.8140   -2.3420 C.3   297  ALA297      0.1728
    151  C         19.6520  -11.2060   -2.3910 C.2   297  ALA297      0.2616
    152  O         20.5160  -10.5360   -1.8110 O.2   297  ALA297     -0.2715
    153  CB        17.4170  -11.6890   -1.3610 C.3   297  ALA297      0.0334
    154  N         19.9390  -12.2730   -3.1230 N.am  298  GLU298     -0.1977
    155  CA        21.3130  -12.7310   -3.2700 C.3   298  GLU298      0.1602
    156  C         22.2060  -11.7220   -3.9920 C.2   298  GLU298      0.2287
    157  O         23.4170  -11.8730   -3.9830 O.2   298  GLU298     -0.2864
    158  CB        21.3530  -14.0810   -3.9750 C.3   298  GLU298      0.0415
    159  CG        20.7910  -15.2000   -3.1370 C.3   298  GLU298      0.1163
    160  CD        19.7840  -16.0150   -3.8840 C.2   298  GLU298      0.3649
    161  OE1       18.7890  -15.4100   -4.3350 O.co2 298  GLU298     -0.2457
    162  OE2       19.9920  -17.2430   -4.0260 O.co2 298  GLU298     -0.2457
@<TRIPOS>BOND
     1    53    54    1
     2    55    54    1
     3    55    56    2
     4    54    57    1
     5    77    78    1
     6    77    76    1
     7    57    59    1
     8    57    58    1
     9    60    61    1
    10    78    79    2
    11    76    75    1
    12    75    72    1
    13    71    72    1
    14    61    62    1
    15    61    64    1
    16    62    63    2
    17    96    95    2
    18    79    81    1
    19    79    80    1
    20    74    73    2
    21    97    98    1
    22    97    94    1
    23   100    98   ar
    24    72    73    1
    25    95    94    1
    26    98    99   ar
    27   148   147   ar
    28   148   146   ar
    29    94    93    1
    30    64    65    1
    31   147   145   ar
    32    65    66    1
    33   146   144   ar
    34    93    84   am
    35    69    68    1
    36   145   144   ar
    37    82    83    1
    38    66    67    1
    39   144   143    1
    40    68    67    2
    41    68    70    1
    42    92    90   ar
    43    92    91   ar
    44    84    83    1
    45    84    85    2
    46    90    88   ar
    47    23    20    1
    48    23    24    1
    49    91    89   ar
    50   139   140    1
    51    20    19    1
    52    20    21    1
    53    83    86    1
    54    88    87   ar
    55    89    87   ar
    56    19    10   am
    57    87    86    1
    58    24    26   ar
    59    24    25   ar
    60   143   140    1
    61    26    28   ar
    62    43    42    2
    63   140   141    1
    64    10    11    2
    65    10     9    1
    66    21    22    2
    67    25    27   ar
    68     9     8    1
    69     9    12    1
    70    28    27   ar
    71    46    44    1
    72    33    30    1
    73    33    34    1
    74    42    41    1
    75    42    47   am
    76    44    41    1
    77    44    45    1
    78    41    40    1
    79   141   142    2
    80   141   149   am
    81    35    34    1
    82    35    36    1
    83    30    31    1
    84    30    29    1
    85   161   160   ar
    86   162   160   ar
    87   156   157    2
    88   156   155    1
    89   158   155    1
    90   158   159    1
    91    12    13    1
    92    47    48    1
    93   160   159    1
    94    13    14    1
    95   109   108    1
    96    48    51    1
    97    48    49    1
    98    31    32    2
    99    36    37    2
   100   149   150    1
   101   108   107    1
   102   155   154    1
   103    52    51    1
   104   154   151   am
   105    49    50    2
   106    37    38    1
   107    37    39    1
   108    14    15    1
   109    15    16    2
   110   151   150    1
   111   151   152    2
   112   150   153    1
   113   107   106    1
   114   106   105    1
   115   105   102    1
   116    18    16    1
   117    16    17    1
   118   101   102    1
   119   102   103    1
   120   103   104    2
   121   137   138    1
   122   137   136    1
   123   136   135    1
   124   135   134    1
   125   134   131    1
   126   133   132    2
   127   131   132    1
   128   131   130    1
   129     4     3    2
   130     6     5    1
   131   128   127    2
   132   119   118    1
   133     5     7    1
   134     5     2    1
   135     3     2    1
   136   129   127   am
   137   127   126    1
   138     2     1    1
   139   118   120    1
   140   118   117    2
   141   124   123    2
   142   117   116    1
   143   116   115    1
   144   126   125    1
   145   122   125    1
   146   122   123    1
   147   122   121    1
   148   113   112    2
   149   115   114    1
   150   121   112   am
   151   112   111    1
   152   114   111    1
   153   111   110    1
