@<TRIPOS>MOLECULE
tmp/4fe2A02.pdb
 123 111 0 0 0
SMALL
GASTEIGER

@<TRIPOS>ATOM
      1  N          3.1130  -20.2430    5.7940 N.3     8  LYS8       -0.1245
      2  CA         2.5680  -19.5740    4.6340 C.3     8  LYS8        0.1561
      3  C          3.5140  -19.7410    3.4620 C.2     8  LYS8        0.2260
      4  O          3.0870  -19.7150    2.3300 O.2     8  LYS8       -0.2867
      5  CB         2.2490  -18.1090    4.9510 C.3     8  LYS8        0.0271
      6  CG         1.2950  -17.9740    6.1460 C.3     8  LYS8        0.0035
      7  CD         0.6400  -16.5900    6.2200 C.3     8  LYS8        0.0206
      8  CE         1.5840  -15.5200    6.7480 C.3     8  LYS8        0.1093
      9  NZ         1.7620  -15.6720    8.2280 N.3     8  LYS8       -0.1314
     10  N          6.7330  -21.9950    3.7840 N.3    10  LYS10      -0.1245
     11  CA         7.5190  -23.2070    3.8390 C.3    10  LYS10       0.1561
     12  C          6.8850  -24.3190    4.6780 C.2    10  LYS10       0.2260
     13  O          6.1480  -24.0540    5.6420 O.2    10  LYS10      -0.2867
     14  CB         8.9010  -22.8650    4.3880 C.3    10  LYS10       0.0271
     15  CG         9.6200  -21.8290    3.5200 C.3    10  LYS10       0.0035
     16  CD        11.0520  -21.6120    3.9970 C.3    10  LYS10       0.0206
     17  CE        11.0250  -21.0720    5.4080 C.3    10  LYS10       0.1093
     18  NZ        10.6720  -19.6270    5.4110 N.3    10  LYS10      -0.1314
     19  N         10.1640  -11.2700   14.7450 N.3    87  GLU87      -0.1245
     20  CA        10.6810  -10.8370   13.4760 C.3    87  GLU87       0.1567
     21  C         11.5280   -9.6470   13.7470 C.2    87  GLU87       0.2260
     22  O         11.0260   -8.6790   14.3340 O.2    87  GLU87      -0.2867
     23  CB         9.5480  -10.5560   12.5000 C.3    87  GLU87       0.0388
     24  CG         8.9420  -11.8990   12.1410 C.3    87  GLU87       0.1160
     25  CD         7.6090  -11.7910   11.4730 C.2    87  GLU87       0.3649
     26  OE1        7.0450  -10.6800   11.4590 O.co2  87  GLU87      -0.2457
     27  OE2        7.1320  -12.8240   10.9510 O.co2  87  GLU87      -0.2457
     28  N          6.3350  -12.3990   16.7450 N.3   120  LYS120     -0.1245
     29  CA         5.8770  -13.3600   15.7730 C.3   120  LYS120      0.1561
     30  C          4.6680  -14.1880   16.2890 C.2   120  LYS120      0.2260
     31  O          4.8200  -15.2960   16.8360 O.2   120  LYS120     -0.2867
     32  CB         7.0480  -14.2310   15.3320 C.3   120  LYS120      0.0271
     33  CG         6.7420  -15.0780   14.1260 C.3   120  LYS120      0.0035
     34  CD         7.9180  -15.9770   13.7660 C.3   120  LYS120      0.0206
     35  CE         7.4810  -16.8570   12.6060 C.3   120  LYS120      0.1093
     36  NZ         7.0450  -16.0560   11.4280 N.3   120  LYS120     -0.1314
     37  N          0.8050  -14.6220   14.5760 N.3   122  ASP122     -0.1239
     38  CA        -0.1460  -14.3310   13.5120 C.3   122  ASP122      0.1674
     39  C         -1.5360  -13.9640   14.0330 C.2   122  ASP122      0.2266
     40  O         -2.2570  -13.2250   13.3780 O.2   122  ASP122     -0.2867
     41  CB        -0.2730  -15.5360   12.5690 C.3   122  ASP122      0.1410
     42  CG         0.7130  -15.4920   11.4010 C.2   122  ASP122      0.3668
     43  OD1        0.8730  -14.4260   10.7560 O.co2 122  ASP122     -0.2456
     44  OD2        1.3020  -16.5600   11.0930 O.co2 122  ASP122     -0.2456
     45  N          1.3080  -10.0150   14.3660 N.3   126  ASP126     -0.1239
     46  CA         2.7410   -9.6950   14.5350 C.3   126  ASP126      0.1674
     47  C          2.9170   -8.2510   14.9190 C.2   126  ASP126      0.2266
     48  O          3.4970   -7.5010   14.1580 O.2   126  ASP126     -0.2867
     49  CB         3.4820   -9.9650   13.2120 C.3   126  ASP126      0.1410
     50  CG         3.1220  -11.3020   12.6330 C.2   126  ASP126      0.3668
     51  OD1        3.4180  -12.3230   13.3010 O.co2 126  ASP126     -0.2456
     52  OD2        2.4890  -11.3330   11.5600 O.co2 126  ASP126     -0.2456
     53  N         14.0340   -8.6110    7.0590 N.3   174  LYS174     -0.1245
     54  CA        13.4340   -9.2400    8.2310 C.3   174  LYS174      0.1561
     55  C         14.1350  -10.5360    8.4080 C.2   174  LYS174      0.2260
     56  O         14.1740  -11.3840    7.4880 O.2   174  LYS174     -0.2867
     57  CB        11.8960   -9.4550    8.1100 C.3   174  LYS174      0.0271
     58  CG        11.2320   -9.8520    9.4340 C.3   174  LYS174      0.0035
     59  CD        11.4290  -11.3320    9.8770 C.3   174  LYS174      0.0206
     60  CE        11.4520  -12.3670    8.7590 C.3   174  LYS174      0.1093
     61  NZ        10.2240  -13.2040    8.5310 N.3   174  LYS174     -0.1314
     62  N         14.8270  -14.0240   11.1730 N.3   176  GLU176     -0.1245
     63  CA        14.4630  -14.7290   12.4040 C.3   176  GLU176      0.1567
     64  C         15.6160  -15.5520   12.9180 C.2   176  GLU176      0.2260
     65  O         16.3460  -16.1310   12.1220 O.2   176  GLU176     -0.2867
     66  CB        13.2820  -15.6500   12.2130 C.3   176  GLU176      0.0388
     67  CG        12.0560  -14.9750   11.6770 C.3   176  GLU176      0.1160
     68  CD        11.0580  -15.9940   11.3000 C.2   176  GLU176      0.3649
     69  OE1       10.0210  -15.6520   10.6590 O.co2 176  GLU176     -0.2457
     70  OE2       11.3380  -17.1720   11.6390 O.co2 176  GLU176     -0.2457
     71  N         15.3740  -19.4730    9.5190 N.3   189  ASP189     -0.1225
     72  CA        14.3280  -19.0990    8.6060 C.3   189  ASP189      0.1805
     73  C         14.8610  -18.9930    7.2000 C.2   189  ASP189      0.2597
     74  O         15.3820  -19.9760    6.6700 O.2   189  ASP189     -0.2718
     75  CB        13.5980  -17.8210    9.0240 C.3   189  ASP189      0.1424
     76  CG        12.1940  -17.7210    8.3440 C.2   189  ASP189      0.3668
     77  OD1       11.4630  -18.7500    8.3500 O.co2 189  ASP189     -0.2456
     78  OD2       11.8460  -16.6490    7.7690 O.co2 189  ASP189     -0.2456
     79  N         14.7920  -17.8170    6.6060 N.am  190  GLU190     -0.1979
     80  CA        15.0910  -17.6520    5.2080 C.3   190  GLU190      0.1602
     81  C         15.4980  -16.2330    4.8830 C.2   190  GLU190      0.2287
     82  O         15.0840  -15.2580    5.5550 O.2   190  GLU190     -0.2864
     83  CB        13.8540  -18.0330    4.4190 C.3   190  GLU190      0.0415
     84  CG        13.4040  -17.1050    3.3040 C.3   190  GLU190      0.1163
     85  CD        12.1030  -17.5870    2.6680 C.2   190  GLU190      0.3649
     86  OE1       11.2110  -18.1010    3.4050 O.co2 190  GLU190     -0.2457
     87  OE2       11.9820  -17.4650    1.4260 O.co2 190  GLU190     -0.2457
     88  N         11.1510  -12.4050   -0.5200 N.3   194  ASP194     -0.1225
     89  CA         9.9720  -12.4550    0.3490 C.3   194  ASP194      0.1805
     90  C         10.0590  -11.5650    1.6050 C.2   194  ASP194      0.2597
     91  O          9.0570  -11.0150    2.0370 O.2   194  ASP194     -0.2718
     92  CB         9.7050  -13.9100    0.7340 C.3   194  ASP194      0.1424
     93  CG         8.6250  -14.5950   -0.1770 C.2   194  ASP194      0.3668
     94  OD1        8.4550  -14.1790   -1.3590 O.co2 194  ASP194     -0.2456
     95  OD2        7.9420  -15.5400    0.3290 O.co2 194  ASP194     -0.2456
     96  N         11.2660  -11.4030    2.1540 N.am  195  ASN195     -0.1974
     97  CA        11.4680  -10.7380    3.4440 C.3   195  ASN195      0.1688
     98  C         12.6210   -9.7210    3.4540 C.2   195  ASN195      0.2292
     99  O         13.3450   -9.5680    4.4380 O.2   195  ASN195     -0.2864
    100  CB        11.6870  -11.7540    4.5320 C.3   195  ASN195      0.1181
    101  CG        12.9640  -12.5120    4.3460 C.2   195  ASN195      0.2629
    102  OD1       13.0320  -13.5130    3.5930 O.2   195  ASN195     -0.2716
    103  ND2       14.0040  -12.0400    5.0070 N.am  195  ASN195     -0.0877
    104  N          9.0440   -8.7660   -3.0260 N.3   208  LYS208     -0.1245
    105  CA         7.6020   -9.0720   -2.8590 C.3   208  LYS208      0.1561
    106  C          6.6490   -7.8720   -2.9870 C.2   208  LYS208      0.2260
    107  O          5.4630   -8.0900   -3.2140 O.2   208  LYS208     -0.2867
    108  CB         7.3060   -9.8360   -1.5840 C.3   208  LYS208      0.0271
    109  CG         5.9250  -10.4760   -1.6130 C.3   208  LYS208      0.0035
    110  CD         5.7540  -11.6660   -0.6800 C.3   208  LYS208      0.0206
    111  CE         5.4950  -11.2170    0.7280 C.3   208  LYS208      0.1093
    112  NZ         4.9070  -12.3520    1.4980 N.3   208  LYS208     -0.1314
    113  N          2.6240   -7.4570   -3.5310 N.3   212  ARG212     -0.1245
    114  CA         1.8330   -6.6690   -2.5530 C.3   212  ARG212      0.1563
    115  C          1.0740   -5.5300   -3.2350 C.2   212  ARG212      0.2260
    116  O         -0.0340   -5.2040   -2.8520 O.2   212  ARG212     -0.2867
    117  CB         2.7570   -6.0630   -1.4830 C.3   212  ARG212      0.0307
    118  CG         3.4610   -7.0850   -0.6210 C.3   212  ARG212      0.0489
    119  CD         4.2770   -6.4030    0.4620 C.3   212  ARG212      0.2205
    120  NE         4.9020   -7.3810    1.3510 N.pl3 212  ARG212     -0.0865
    121  CZ         6.2180   -7.5280    1.5000 C.cat 212  ARG212      0.5346
    122  NH1        7.0690   -6.7420    0.8400 N.pl3 212  ARG212      0.1354
    123  NH2        6.6820   -8.4240    2.3500 N.pl3 212  ARG212      0.1354
@<TRIPOS>BOND
     1   113   114    1
     2   115   116    2
     3   115   114    1
     4   107   106    2
     5   104   105    1
     6   106   105    1
     7   105   108    1
     8   114   117    1
     9   109   108    1
    10   109   110    1
    11   117   118    1
    12    94    93   ar
    13   110   111    1
    14   118   119    1
    15    88    89    1
    16    93    95   ar
    17    93    92    1
    18    89    92    1
    19    89    90    1
    20   119   120    1
    21   111   112    1
    22   122   121    1
    23   120   121    2
    24    87    85   ar
    25   121   123    1
    26    90    91    2
    27    90    96   am
    28    96    97    1
    29     4     3    2
    30    85    84    1
    31    85    86   ar
    32    84    83    1
    33    97    98    1
    34    97   100    1
    35    98    99    2
    36     3     2    1
    37    15    16    1
    38    15    14    1
    39   102   101    2
    40    10    11    1
    41    11    14    1
    42    11    12    1
    43    16    17    1
    44   101   100    1
    45   101   103   am
    46    83    80    1
    47     2     5    1
    48     2     1    1
    49    12    13    2
    50    81    80    1
    51    81    82    2
    52     5     6    1
    53    80    79    1
    54    17    18    1
    55     6     7    1
    56     7     8    1
    57    79    73   am
    58    74    73    2
    59     8     9    1
    60    53    54    1
    61    73    72    1
    62    56    55    2
    63    78    76   ar
    64    57    54    1
    65    57    58    1
    66    54    55    1
    67    76    77   ar
    68    76    75    1
    69    61    60    1
    70    72    75    1
    71    72    71    1
    72    60    59    1
    73    58    59    1
    74    69    68   ar
    75    43    42   ar
    76    27    25   ar
    77    44    42   ar
    78    62    63    1
    79    68    70   ar
    80    68    67    1
    81    42    41    1
    82    36    35    1
    83    26    25   ar
    84    25    24    1
    85    52    50   ar
    86    67    66    1
    87    65    64    2
    88    24    23    1
    89    66    63    1
    90    63    64    1
    91    23    20    1
    92    41    38    1
    93    35    34    1
    94    50    49    1
    95    50    51   ar
    96    49    46    1
    97    40    39    2
    98    20    21    1
    99    20    19    1
   100    38    39    1
   101    38    37    1
   102    21    22    2
   103    34    33    1
   104    33    32    1
   105    48    47    2
   106    45    46    1
   107    46    47    1
   108    32    29    1
   109    29    30    1
   110    29    28    1
   111    30    31    2
