@<TRIPOS>MOLECULE
tmp/4fe2A00.pdb
 130 123 0 0 0
SMALL
GASTEIGER

@<TRIPOS>ATOM
      1  N         10.1640  -11.2700   14.7450 N.3    87  GLU87      -0.1245
      2  CA        10.6810  -10.8370   13.4760 C.3    87  GLU87       0.1567
      3  C         11.5280   -9.6470   13.7470 C.2    87  GLU87       0.2260
      4  O         11.0260   -8.6790   14.3340 O.2    87  GLU87      -0.2867
      5  CB         9.5480  -10.5560   12.5000 C.3    87  GLU87       0.0388
      6  CG         8.9420  -11.8990   12.1410 C.3    87  GLU87       0.1160
      7  CD         7.6090  -11.7910   11.4730 C.2    87  GLU87       0.3649
      8  OE1        7.0450  -10.6800   11.4590 O.co2  87  GLU87      -0.2457
      9  OE2        7.1320  -12.8240   10.9510 O.co2  87  GLU87      -0.2457
     10  N         13.5640   -6.7160   12.3410 N.3    89  VAL89      -0.1245
     11  CA        13.5210   -5.9460   11.1200 C.3    89  VAL89       0.1561
     12  C         14.6200   -4.8850   11.1760 C.2    89  VAL89       0.2260
     13  O         14.7810   -4.1800   12.1700 O.2    89  VAL89      -0.2867
     14  CB        12.1230   -5.3180   10.8810 C.3    89  VAL89       0.0252
     15  CG1       12.1800   -4.2730    9.8130 C.3    89  VAL89       0.0019
     16  CG2       11.1160   -6.3720   10.4830 C.3    89  VAL89       0.0019
     17  N         16.0470   -1.5780    8.9010 N.3    91  ARG91      -0.1245
     18  CA        15.8470   -0.6510    7.7650 C.3    91  ARG91       0.1563
     19  C         17.1080    0.1470    7.4670 C.2    91  ARG91       0.2260
     20  O         17.7390    0.6700    8.3760 O.2    91  ARG91      -0.2867
     21  CB        14.6930    0.2900    8.0770 C.3    91  ARG91       0.0307
     22  CG        13.4230   -0.4770    8.4140 C.3    91  ARG91       0.0489
     23  CD        12.3370    0.4690    8.8190 C.3    91  ARG91       0.2205
     24  NE        11.1540   -0.2060    9.3450 N.pl3  91  ARG91      -0.0865
     25  CZ        10.1730   -0.7100    8.6040 C.cat  91  ARG91       0.5346
     26  NH1       10.2660   -0.6630    7.2840 N.pl3  91  ARG91       0.1354
     27  NH2        9.1340   -1.3350    9.1980 N.pl3  91  ARG91       0.1354
     28  N          7.4550    1.2440    3.3360 N.3    96  GLY96      -0.1210
     29  CA         6.3450    0.4720    3.9150 C.3    96  GLY96       0.1956
     30  C          5.7320    0.9970    5.2030 C.2    96  GLY96       0.2612
     31  O          5.3030    2.1590    5.3120 O.2    96  GLY96      -0.2717
     32  N          5.6830    0.1360    6.2030 N.am   97  SER97      -0.1952
     33  CA         5.0410    0.5180    7.4540 C.3    97  SER97       0.1924
     34  C          5.8660    1.5270    8.2830 C.2    97  SER97       0.2314
     35  O          5.3340    2.0910    9.2370 O.2    97  SER97      -0.2863
     36  CB         4.6910   -0.7250    8.3000 C.3    97  SER97       0.2116
     37  OG         5.8100   -1.0090    9.1330 O.3    97  SER97      -0.2180
     38  N          9.2200   -7.1640   16.0170 N.3   118  TYR118     -0.1241
     39  CA         7.7960   -7.5370   15.9350 C.3   118  TYR118      0.1605
     40  C          7.5520   -8.9280   16.5510 C.2   118  TYR118      0.2264
     41  O          8.2880   -9.8510   16.2740 O.2   118  TYR118     -0.2867
     42  CB         7.3280   -7.5390   14.4810 C.3   118  TYR118      0.0534
     43  CG         7.4500   -6.1760   13.8230 C.ar  118  TYR118     -0.0201
     44  CD1        6.3140   -5.3530   13.6420 C.ar  118  TYR118     -0.0009
     45  CD2        8.7220   -5.6680   13.4060 C.ar  118  TYR118     -0.0009
     46  CE1        6.4490   -4.0790   13.0510 C.ar  118  TYR118      0.0417
     47  CE2        8.8470   -4.4200   12.8030 C.ar  118  TYR118      0.0417
     48  CZ         7.7280   -3.6440   12.6280 C.ar  118  TYR118      0.1957
     49  OH         7.8640   -2.4200   12.0590 O.3   118  TYR118     -0.2866
     50  N         15.6630   -2.6860    3.3590 N.3   172  ASP172     -0.1225
     51  CA        15.1860   -3.1730    4.6530 C.3   172  ASP172      0.1805
     52  C         15.1570   -4.6970    4.5950 C.2   172  ASP172      0.2598
     53  O         15.3620   -5.2910    3.5220 O.2   172  ASP172     -0.2718
     54  CB        13.8190   -2.5130    5.1320 C.3   172  ASP172      0.1424
     55  CG        12.5990   -2.9520    4.3270 C.2   172  ASP172      0.3668
     56  OD1       12.6190   -4.0780    3.7990 O.co2 172  ASP172     -0.2456
     57  OD2       11.6020   -2.1860    4.2150 O.co2 172  ASP172     -0.2456
     58  N         15.0110   -5.3330    5.7410 N.am  173  PHE173     -0.1962
     59  CA        14.7690   -6.7550    5.7240 C.3   173  PHE173      0.1771
     60  C         14.2860   -7.3120    7.0540 C.2   173  PHE173      0.2619
     61  O         14.1210   -6.5760    8.0530 O.2   173  PHE173     -0.2715
     62  CB        15.9730   -7.4870    5.2330 C.3   173  PHE173      0.0574
     63  CG        17.2280   -7.2780    6.0710 C.ar  173  PHE173     -0.0200
     64  CD1       17.4740   -8.0800    7.2010 C.ar  173  PHE173     -0.0042
     65  CD2       18.1790   -6.3350    5.7010 C.ar  173  PHE173     -0.0042
     66  CE1       18.6690   -7.9300    7.9460 C.ar  173  PHE173     -0.0003
     67  CE2       19.3860   -6.1780    6.4440 C.ar  173  PHE173     -0.0003
     68  CZ        19.6290   -6.9710    7.5690 C.ar  173  PHE173     -0.0000
     69  N         14.0340   -8.6110    7.0590 N.am  174  LYS174     -0.1977
     70  CA        13.4340   -9.2400    8.2310 C.3   174  LYS174      0.1596
     71  C         14.1350  -10.5360    8.4080 C.2   174  LYS174      0.2287
     72  O         14.1740  -11.3840    7.4880 O.2   174  LYS174     -0.2864
     73  CB        11.8960   -9.4550    8.1100 C.3   174  LYS174      0.0298
     74  CG        11.2320   -9.8520    9.4340 C.3   174  LYS174      0.0038
     75  CD        11.4290  -11.3320    9.8770 C.3   174  LYS174      0.0206
     76  CE        11.4520  -12.3670    8.7590 C.3   174  LYS174      0.1093
     77  NZ        10.2240  -13.2040    8.5310 N.3   174  LYS174     -0.1314
     78  N         11.1510  -12.4050   -0.5200 N.3   194  ASP194     -0.1225
     79  CA         9.9720  -12.4550    0.3490 C.3   194  ASP194      0.1805
     80  C         10.0590  -11.5650    1.6050 C.2   194  ASP194      0.2598
     81  O          9.0570  -11.0150    2.0370 O.2   194  ASP194     -0.2718
     82  CB         9.7050  -13.9100    0.7340 C.3   194  ASP194      0.1424
     83  CG         8.6250  -14.5950   -0.1770 C.2   194  ASP194      0.3668
     84  OD1        8.4550  -14.1790   -1.3590 O.co2 194  ASP194     -0.2456
     85  OD2        7.9420  -15.5400    0.3290 O.co2 194  ASP194     -0.2456
     86  N         11.2660  -11.4030    2.1540 N.am  195  ASN195     -0.1960
     87  CA        11.4680  -10.7380    3.4440 C.3   195  ASN195      0.1819
     88  C         12.6210   -9.7210    3.4540 C.2   195  ASN195      0.2621
     89  O         13.3450   -9.5680    4.4380 O.2   195  ASN195     -0.2715
     90  CB        11.6870  -11.7540    4.5320 C.3   195  ASN195      0.1195
     91  CG        12.9640  -12.5120    4.3460 C.2   195  ASN195      0.2630
     92  OD1       13.0320  -13.5130    3.5930 O.2   195  ASN195     -0.2716
     93  ND2       14.0040  -12.0400    5.0070 N.am  195  ASN195     -0.0877
     94  N         12.7660   -9.0410    2.3240 N.am  196  CYS196     -0.1954
     95  CA        13.6790   -7.9260    2.1700 C.3   196  CYS196      0.1843
     96  C         13.0820   -6.9840    1.1300 C.2   196  CYS196      0.2625
     97  O         12.1280   -7.3500    0.3840 O.2   196  CYS196     -0.2714
     98  CB        15.0970   -8.4000    1.8280 C.3   196  CYS196      0.0997
     99  SG        15.4080   -9.0200    0.1640 S.3   196  CYS196     -0.0797
    100  N         13.5540   -5.7420    1.1410 N.am  197  ARG197     -0.1977
    101  CA        13.2020   -4.8470    0.0330 C.3   197  ARG197      0.1597
    102  C         14.4770   -4.5980   -0.7580 C.2   197  ARG197      0.2287
    103  O         15.5490   -4.3830   -0.1650 O.2   197  ARG197     -0.2864
    104  CB        12.4740   -3.5460    0.4410 C.3   197  ARG197      0.0334
    105  CG        11.0730   -3.7410    0.9810 C.3   197  ARG197      0.0492
    106  CD        10.2690   -2.4420    0.9440 C.3   197  ARG197      0.2205
    107  NE         8.8460   -2.6420    1.2670 N.pl3 197  ARG197     -0.0865
    108  CZ         8.3250   -2.6390    2.5050 C.cat 197  ARG197      0.5346
    109  NH1        9.1020   -2.4510    3.5960 N.pl3 197  ARG197      0.1354
    110  NH2        6.9980   -2.8440    2.6410 N.pl3 197  ARG197      0.1354
    111  N          9.0440   -8.7660   -3.0260 N.3   208  LYS208     -0.1245
    112  CA         7.6020   -9.0720   -2.8590 C.3   208  LYS208      0.1561
    113  C          6.6490   -7.8720   -2.9870 C.2   208  LYS208      0.2260
    114  O          5.4630   -8.0900   -3.2140 O.2   208  LYS208     -0.2867
    115  CB         7.3060   -9.8360   -1.5840 C.3   208  LYS208      0.0271
    116  CG         5.9250  -10.4760   -1.6130 C.3   208  LYS208      0.0035
    117  CD         5.7540  -11.6660   -0.6800 C.3   208  LYS208      0.0206
    118  CE         5.4950  -11.2170    0.7280 C.3   208  LYS208      0.1093
    119  NZ         4.9070  -12.3520    1.4980 N.3   208  LYS208     -0.1314
    120  N          2.6240   -7.4570   -3.5310 N.3   212  ARG212     -0.1245
    121  CA         1.8330   -6.6690   -2.5530 C.3   212  ARG212      0.1563
    122  C          1.0740   -5.5300   -3.2350 C.2   212  ARG212      0.2260
    123  O         -0.0340   -5.2040   -2.8520 O.2   212  ARG212     -0.2867
    124  CB         2.7570   -6.0630   -1.4830 C.3   212  ARG212      0.0307
    125  CG         3.4610   -7.0850   -0.6210 C.3   212  ARG212      0.0489
    126  CD         4.2770   -6.4030    0.4620 C.3   212  ARG212      0.2205
    127  NE         4.9020   -7.3810    1.3510 N.pl3 212  ARG212     -0.0865
    128  CZ         6.2180   -7.5280    1.5000 C.cat 212  ARG212      0.5346
    129  NH1        7.0690   -6.7420    0.8400 N.pl3 212  ARG212      0.1354
    130  NH2        6.6820   -8.4240    2.3500 N.pl3 212  ARG212      0.1354
@<TRIPOS>BOND
     1   120   121    1
     2   122   123    2
     3   122   121    1
     4   114   113    2
     5   111   112    1
     6   113   112    1
     7   112   115    1
     8   121   124    1
     9   116   115    1
    10   116   117    1
    11   124   125    1
    12    84    83   ar
    13   102   103    2
    14   102   101    1
    15   117   118    1
    16   125   126    1
    17    78    79    1
    18    83    85   ar
    19    83    82    1
    20   101   104    1
    21   101   100    1
    22    99    98    1
    23    79    82    1
    24    79    80    1
    25    97    96    2
    26   104   105    1
    27   126   127    1
    28   118   119    1
    29   129   128    1
    30   106   105    1
    31   106   107    1
    32    96   100   am
    33    96    95    1
    34   107   108    2
    35   127   128    2
    36   128   130    1
    37    80    81    2
    38    80    86   am
    39    98    95    1
    40    86    87    1
    41    95    94    1
    42    94    88   am
    43   108   110    1
    44   108   109    1
    45    28    29    1
    46    50    51    1
    47    87    88    1
    48    87    90    1
    49    88    89    2
    50    53    52    2
    51    92    91    2
    52    56    55   ar
    53    29    30    1
    54    57    55   ar
    55    55    54    1
    56    91    90    1
    57    91    93   am
    58    52    51    1
    59    52    58   am
    60    51    54    1
    61    30    31    2
    62    30    32   am
    63    62    59    1
    64    62    63    1
    65    65    63   ar
    66    65    67   ar
    67    59    58    1
    68    59    60    1
    69    63    64   ar
    70    32    33    1
    71    67    68   ar
    72    60    69   am
    73    60    61    2
    74    69    70    1
    75    64    66   ar
    76    26    25    1
    77    33    34    1
    78    33    36    1
    79    19    18    1
    80    19    20    2
    81    72    71    2
    82    68    66   ar
    83    18    21    1
    84    18    17    1
    85    21    22    1
    86    73    70    1
    87    73    74    1
    88    70    71    1
    89    34    35    2
    90    36    37    1
    91    22    23    1
    92    77    76    1
    93    25    27    1
    94    25    24    2
    95    76    75    1
    96    23    24    1
    97    74    75    1
    98    15    14    1
    99    16    14    1
   100    14    11    1
   101     9     7   ar
   102    11    12    1
   103    11    10    1
   104    12    13    2
   105     8     7   ar
   106     7     6    1
   107    49    48    1
   108     6     5    1
   109     5     2    1
   110    48    47   ar
   111    48    46   ar
   112    47    45   ar
   113    46    44   ar
   114    45    43   ar
   115     2     3    1
   116     2     1    1
   117    44    43   ar
   118     3     4    2
   119    43    42    1
   120    42    39    1
   121    39    38    1
   122    39    40    1
   123    41    40    2
