@<TRIPOS>MOLECULE
tmp/4fe6A00.pdb
 121 113 0 0 0
SMALL
GASTEIGER

@<TRIPOS>ATOM
      1  N         -6.2770   28.1930   21.0770 N.3     8  ARG8       -0.1245
      2  CA        -6.4060   27.5960   22.4250 C.3     8  ARG8        0.1563
      3  C         -6.6100   28.6880   23.5100 C.2     8  ARG8        0.2260
      4  O         -5.8870   29.7100   23.5010 O.2     8  ARG8       -0.2867
      5  CB        -5.1290   26.8260   22.7460 C.3     8  ARG8        0.0307
      6  CG        -4.9880   25.5590   21.9820 C.3     8  ARG8        0.0489
      7  CD        -3.8050   24.7930   22.5300 C.3     8  ARG8        0.2205
      8  NE        -3.8800   23.4290   22.0710 N.pl3   8  ARG8       -0.0865
      9  CZ        -2.9910   22.8340   21.2790 C.cat   8  ARG8        0.5346
     10  NH1       -1.8880   23.4750   20.8750 N.pl3   8  ARG8        0.1354
     11  NH2       -3.1900   21.5660   20.9190 N.pl3   8  ARG8        0.1354
     12  N         -4.6740   25.9560   30.1110 N.3    23  LEU23      -0.1245
     13  CA        -5.7570   26.0180   29.1500 C.3    23  LEU23       0.1561
     14  C         -7.0300   26.0580   29.9180 C.2    23  LEU23       0.2260
     15  O         -7.1670   25.2890   30.8790 O.2    23  LEU23      -0.2867
     16  CB        -5.6530   24.7300   28.3180 C.3    23  LEU23       0.0270
     17  CG        -6.5150   24.3170   27.1420 C.3    23  LEU23       0.0019
     18  CD1       -6.1700   25.2010   25.9490 C.3    23  LEU23       0.0001
     19  CD2       -6.1220   22.8610   26.8480 C.3    23  LEU23       0.0001
     20  N        -10.3790   24.8720   30.2960 N.3    25  ASP25      -0.1239
     21  CA       -10.8550   23.6660   29.6560 C.3    25  ASP25       0.1674
     22  C        -12.2260   23.2700   30.2240 C.2    25  ASP25       0.2266
     23  O        -12.2910   22.6450   31.2760 O.2    25  ASP25      -0.2867
     24  CB        -9.8270   22.5930   29.9240 C.3    25  ASP25       0.1410
     25  CG       -10.1220   21.3550   29.2130 C.2    25  ASP25       0.3668
     26  OD1      -11.2070   21.2230   28.6280 O.co2  25  ASP25      -0.2456
     27  OD2       -9.2920   20.4820   29.1860 O.co2  25  ASP25      -0.2456
     28  N        -14.0550   20.9000   29.2800 N.3    27  GLY27      -0.1210
     29  CA       -14.1640   19.4520   29.1910 C.3    27  GLY27       0.1956
     30  C        -13.4880   18.7510   30.3430 C.2    27  GLY27       0.2612
     31  O        -13.5030   17.5630   30.3830 O.2    27  GLY27      -0.2717
     32  N        -12.9850   19.4950   31.3260 N.am   28  ALA28      -0.1965
     33  CA       -12.1950   18.9370   32.4330 C.3    28  ALA28       0.1728
     34  C        -12.9470   19.2180   33.7280 C.2    28  ALA28       0.2616
     35  O        -13.1810   20.3650   34.0570 O.2    28  ALA28      -0.2715
     36  CB       -10.7890   19.5760   32.4800 C.3    28  ALA28       0.0334
     37  N        -13.3790   18.1850   34.4490 N.am   29  ASP29      -0.1957
     38  CA       -14.0320   18.4140   35.7390 C.3    29  ASP29       0.1840
     39  C        -13.1010   19.0720   36.7040 C.2    29  ASP29       0.2622
     40  O        -13.5190   20.0200   37.4030 O.2    29  ASP29      -0.2715
     41  CB       -14.4410   17.0740   36.3400 C.3    29  ASP29       0.1450
     42  CG       -15.4670   16.3240   35.4740 C.2    29  ASP29       0.3671
     43  OD1      -16.1350   16.9700   34.6260 O.co2  29  ASP29      -0.2456
     44  OD2      -15.6010   15.0840   35.6450 O.co2  29  ASP29      -0.2456
     45  N        -11.8400   18.5730   36.7570 N.am   30  ASP30      -0.1971
     46  CA       -10.8530   19.0160   37.7670 C.3    30  ASP30       0.1709
     47  C         -9.5760   19.6510   37.1650 C.2    30  ASP30       0.2293
     48  O         -9.1900   19.3370   36.0650 O.2    30  ASP30      -0.2864
     49  CB       -10.3800   17.8400   38.5800 C.3    30  ASP30       0.1436
     50  CG       -11.4300   17.2970   39.4950 C.2    30  ASP30       0.3671
     51  OD1      -11.9060   18.0220   40.4560 O.co2  30  ASP30      -0.2456
     52  OD2      -11.7160   16.0930   39.2560 O.co2  30  ASP30      -0.2456
     53  N         -5.8900   19.9230   36.3970 N.3    32  VAL32      -0.1245
     54  CA        -4.7320   19.0770   36.4430 C.3    32  VAL32       0.1561
     55  C         -3.4990   19.8030   35.8840 C.2    32  VAL32       0.2260
     56  O         -3.5290   20.2270   34.7420 O.2    32  VAL32      -0.2867
     57  CB        -4.8450   17.7970   35.5750 C.3    32  VAL32       0.0252
     58  CG1       -3.7630   16.8080   35.9720 C.3    32  VAL32       0.0019
     59  CG2       -6.1550   17.1050   35.8140 C.3    32  VAL32       0.0019
     60  N         -4.4470    9.5990   43.4760 N.3    45  LYS45      -0.1245
     61  CA        -5.6310    9.5260   42.6560 C.3    45  LYS45       0.1561
     62  C         -5.3150    9.1250   41.2070 C.2    45  LYS45       0.2260
     63  O         -4.2100    9.3420   40.7300 O.2    45  LYS45      -0.2867
     64  CB        -6.3290   10.8940   42.6500 C.3    45  LYS45       0.0271
     65  CG        -7.8490   10.8610   42.5110 C.3    45  LYS45       0.0035
     66  CD        -8.3540   12.1930   41.9530 C.3    45  LYS45       0.0206
     67  CE        -9.8560   12.4090   42.0990 C.3    45  LYS45       0.1093
     68  NZ       -10.2190   13.8420   41.8620 N.3    45  LYS45      -0.1314
     69  N         -7.0980    9.7090   37.1930 N.3    47  ILE47      -0.1231
     70  CA        -8.1420   10.3110   36.4100 C.3    47  ILE47       0.1692
     71  C         -7.9990    9.7810   35.0250 C.2    47  ILE47       0.2593
     72  O         -6.9190    9.4140   34.5960 O.2    47  ILE47      -0.2718
     73  CB        -7.9690   11.8570   36.2280 C.3    47  ILE47       0.0266
     74  CG1       -6.5250   12.2600   36.3820 C.3    47  ILE47       0.0019
     75  CG2       -8.8580   12.7190   37.1320 C.3    47  ILE47       0.0020
     76  CD1       -6.2510   13.4860   35.5660 C.3    47  ILE47       0.0001
     77  N         -9.0760    9.8100   34.2700 N.am   48  GLY48      -0.1942
     78  CA        -9.0140    9.1950   32.9820 C.3    48  GLY48       0.2014
     79  C         -9.2450   10.2030   31.9120 C.2    48  GLY48       0.2639
     80  O         -9.8720   11.1770   32.1690 O.2    48  GLY48      -0.2714
     81  N         -8.7900    9.9250   30.6940 N.am   49  GLY49      -0.1939
     82  CA        -8.8570   10.8730   29.5840 C.3    49  GLY49       0.2014
     83  C         -9.0760   10.1740   28.2840 C.2    49  GLY49       0.2638
     84  O         -9.4160    8.9820   28.3120 O.2    49  GLY49      -0.2714
     85  N         -8.8960   10.8770   27.1560 N.am   50  ILE50      -0.1977
     86  CA        -8.7670   10.1910   25.8570 C.3    50  ILE50       0.1596
     87  C         -7.4590    9.3930   25.9000 C.2    50  ILE50       0.2287
     88  O         -6.4050    9.9410   26.1950 O.2    50  ILE50      -0.2864
     89  CB        -8.7630   11.1880   24.6800 C.3    50  ILE50       0.0276
     90  CG1      -10.0890   11.1360   23.9420 C.3    50  ILE50       0.0022
     91  CG2       -7.8200   10.7610   23.5500 C.3    50  ILE50       0.0022
     92  CD1      -10.1390   12.1060   22.7820 C.3    50  ILE50       0.0001
     93  N          0.0520   15.0020   32.9120 N.3    80  THR80      -0.1204
     94  CA        -0.7840   15.5590   31.8390 C.3    80  THR80       0.1979
     95  C          0.1220   16.1730   30.7570 C.2    80  THR80       0.2460
     96  O          1.1930   16.6720   31.0520 O.2    80  THR80      -0.2732
     97  CB        -1.8050   16.5800   32.4060 C.3    80  THR80       0.1783
     98  OG1       -2.5200   17.1900   31.3010 O.3    80  THR80      -0.2211
     99  CG2       -1.0970   17.6120   33.2860 C.3    80  THR80       0.0376
    100  N         -0.3020   16.1640   29.5010 N.am   81  PRO81      -0.2717
    101  CA         0.6060   16.8620   28.5360 C.3    81  PRO81       0.1535
    102  C          0.4600   18.4190   28.5060 C.2    81  PRO81       0.2598
    103  O          1.2660   19.1380   27.8740 O.2    81  PRO81      -0.2715
    104  CB         0.1700   16.3110   27.1770 C.3    81  PRO81       0.0310
    105  CG        -1.1490   15.6430   27.4200 C.3    81  PRO81       0.0237
    106  CD        -1.3210   15.3230   28.8590 C.3    81  PRO81       0.0939
    107  N         -0.5730   18.9450   29.1810 N.am   82  VAL82      -0.1978
    108  CA        -0.8630   20.3800   29.1340 C.3    82  VAL82       0.1596
    109  C         -1.4400   20.7310   30.4820 C.2    82  VAL82       0.2287
    110  O         -2.1260   19.9150   31.0940 O.2    82  VAL82      -0.2864
    111  CB        -1.8630   20.6180   27.9800 C.3    82  VAL82       0.0276
    112  CG1       -3.0590   19.8310   28.3020 C.3    82  VAL82       0.0022
    113  CG2       -2.2180   22.0860   27.7620 C.3    82  VAL82       0.0022
    114  N         -4.1330   22.3000   32.6400 N.3    84  ILE84      -0.1245
    115  CA        -5.5350   22.4670   32.3900 C.3    84  ILE84       0.1561
    116  C         -6.2370   23.0420   33.5990 C.2    84  ILE84       0.2260
    117  O         -6.1240   22.4530   34.6700 O.2    84  ILE84      -0.2867
    118  CB        -6.1280   21.0670   32.1920 C.3    84  ILE84       0.0252
    119  CG1       -5.8200   20.5780   30.7850 C.3    84  ILE84       0.0019
    120  CG2       -7.6500   21.1340   32.3130 C.3    84  ILE84       0.0019
    121  CD1       -6.0340   19.0680   30.8150 C.3    84  ILE84       0.0001
@<TRIPOS>BOND
     1    10     9    1
     2    11     9    1
     3     1     2    1
     4     9     8    2
     5     6     7    1
     6     6     5    1
     7     8     7    1
     8     2     5    1
     9     2     3    1
    10    92    90    1
    11     4     3    2
    12    91    89    1
    13    90    89    1
    14    89    86    1
    15    86    87    1
    16    86    85    1
    17    87    88    2
    18    18    17    1
    19    19    17    1
    20    17    16    1
    21    85    83   am
    22   104   105    1
    23   104   101    1
    24   105   106    1
    25   113   111    1
    26   103   102    2
    27   111   112    1
    28   111   108    1
    29    83    84    2
    30    83    82    1
    31    16    13    1
    32   102   101    1
    33   102   107   am
    34   101   100    1
    35    26    25   ar
    36   106   100    1
    37   108   107    1
    38   108   109    1
    39    13    14    1
    40    13    12    1
    41    27    25   ar
    42    29    28    1
    43    29    30    1
    44    25    24    1
    45   100    95   am
    46    82    81    1
    47    21    24    1
    48    21    22    1
    49    21    20    1
    50    14    15    2
    51    22    23    2
    52    30    31    2
    53    30    32   am
    54   109   110    2
    55    81    79   am
    56    95    96    2
    57    95    94    1
    58   119   121    1
    59   119   118    1
    60    98    97    1
    61    32    33    1
    62    94    97    1
    63    94    93    1
    64    79    80    2
    65    79    78    1
    66   118   120    1
    67   118   115    1
    68   115   114    1
    69   115   116    1
    70    97    99    1
    71    33    36    1
    72    33    34    1
    73    78    77    1
    74   116   117    2
    75    34    35    2
    76    34    37   am
    77    77    71   am
    78    37    38    1
    79    72    71    2
    80    43    42   ar
    81    56    55    2
    82    71    70    1
    83    42    44   ar
    84    42    41    1
    85    76    74    1
    86    57    59    1
    87    57    58    1
    88    57    54    1
    89    38    41    1
    90    38    39    1
    91    55    54    1
    92    48    47    2
    93    73    74    1
    94    73    70    1
    95    73    75    1
    96    53    54    1
    97    70    69    1
    98    39    45   am
    99    39    40    2
   100    45    46    1
   101    47    46    1
   102    46    49    1
   103    49    50    1
   104    52    50   ar
   105    50    51   ar
   106    63    62    2
   107    62    61    1
   108    68    67    1
   109    66    67    1
   110    66    65    1
   111    65    64    1
   112    64    61    1
   113    61    60    1
