@<TRIPOS>MOLECULE
tmp/4fe7A00.pdb
 119 110 0 0 0
SMALL
GASTEIGER

@<TRIPOS>ATOM
      1  N         40.7070   35.2120  109.0030 N.3    16  LYS16      -0.1245
      2  CA        41.1000   33.8150  108.8690 C.3    16  LYS16       0.1561
      3  C         40.0510   32.8870  109.4740 C.2    16  LYS16       0.2260
      4  O         39.6500   33.0540  110.6200 O.2    16  LYS16      -0.2867
      5  CB        42.4570   33.5750  109.5310 C.3    16  LYS16       0.0271
      6  CG        43.6190   34.2690  108.8380 C.3    16  LYS16       0.0035
      7  CD        44.9360   33.9770  109.5370 C.3    16  LYS16       0.0206
      8  CE        46.0940   34.6820  108.8520 C.3    16  LYS16       0.1093
      9  NZ        47.3900   34.4140  109.5350 N.3    16  LYS16      -0.1314
     10  N         39.8250   29.9460  110.8310 N.3    18  TYR18      -0.1227
     11  CA        40.0860   29.3760  112.1390 C.3    18  TYR18       0.1736
     12  C         39.8320   30.4090  113.2550 C.2    18  TYR18       0.2595
     13  O         39.1170   30.1210  114.2160 O.2    18  TYR18      -0.2718
     14  CB        41.5030   28.8010  112.1770 C.3    18  TYR18       0.0548
     15  CG        42.1160   28.6730  113.5520 C.ar   18  TYR18      -0.0200
     16  CD1       41.9370   27.5210  114.3130 C.ar   18  TYR18      -0.0009
     17  CD2       42.8910   29.7020  114.0860 C.ar   18  TYR18      -0.0009
     18  CE1       42.5050   27.3980  115.5780 C.ar   18  TYR18       0.0417
     19  CE2       43.4590   29.5950  115.3530 C.ar   18  TYR18       0.0417
     20  CZ        43.2670   28.4380  116.0900 C.ar   18  TYR18       0.1957
     21  OH        43.8340   28.3260  117.3380 O.3    18  TYR18      -0.2866
     22  N         40.3860   31.6110  113.1170 N.am   19  ASP19      -0.1974
     23  CA        40.1510   32.6660  114.0950 C.3    19  ASP19       0.1709
     24  C         38.6690   32.9500  114.2360 C.2    19  ASP19       0.2293
     25  O         38.1680   33.0900  115.3510 O.2    19  ASP19      -0.2864
     26  CB        40.8960   33.9550  113.7360 C.3    19  ASP19       0.1436
     27  CG        42.4030   33.8500  113.9540 C.2    19  ASP19       0.3671
     28  OD1       43.0160   32.8670  113.4750 O.co2  19  ASP19      -0.2456
     29  OD2       42.9810   34.7570  114.5970 O.co2  19  ASP19      -0.2456
     30  N         45.0770   35.0440  120.5890 N.3    54  ASP54      -0.1239
     31  CA        45.8510   34.1530  119.7330 C.3    54  ASP54       0.1674
     32  C         47.2990   34.0640  120.2060 C.2    54  ASP54       0.2266
     33  O         48.0700   34.9960  119.9970 O.2    54  ASP54      -0.2867
     34  CB        45.8390   34.6890  118.3080 C.3    54  ASP54       0.1410
     35  CG        46.6140   33.8260  117.3730 C.2    54  ASP54       0.3668
     36  OD1       46.5700   32.5910  117.5500 O.co2  54  ASP54      -0.2456
     37  OD2       47.2740   34.3700  116.4670 O.co2  54  ASP54      -0.2456
     38  N         49.4960   31.8070  119.2560 N.3    56  ASP56      -0.1239
     39  CA        50.3900   31.3640  118.1980 C.3    56  ASP56       0.1674
     40  C         51.2380   32.5530  117.7600 C.2    56  ASP56       0.2266
     41  O         52.0480   32.4490  116.8440 O.2    56  ASP56      -0.2867
     42  CB        49.5910   30.8060  117.0270 C.3    56  ASP56       0.1410
     43  CG        49.1090   29.3980  117.2780 C.2    56  ASP56       0.3668
     44  OD1       49.7740   28.6810  118.0540 O.co2  56  ASP56      -0.2456
     45  OD2       48.0790   28.9930  116.6930 O.co2  56  ASP56      -0.2456
     46  N         44.6700   23.4730  120.1480 N.3    92  THR92      -0.1218
     47  CA        44.3250   22.5180  119.0990 C.3    92  THR92       0.1862
     48  C         45.4060   21.4350  119.0930 C.2    92  THR92       0.2287
     49  O         46.6000   21.7470  119.1580 O.2    92  THR92      -0.2866
     50  CB        44.1820   23.1890  117.7190 C.3    92  THR92       0.1770
     51  OG1       43.5800   22.2750  116.7960 O.3    92  THR92      -0.2211
     52  CG2       45.5250   23.6830  117.1840 C.3    92  THR92       0.0375
     53  N         55.8980   30.2390  112.5310 N.3   124  LYS124     -0.1245
     54  CA        54.7900   29.3230  112.7310 C.3   124  LYS124      0.1561
     55  C         55.2020   28.0220  113.4050 C.2   124  LYS124      0.2260
     56  O         55.6040   27.0670  112.7460 O.2   124  LYS124     -0.2867
     57  CB        54.1010   29.0550  111.4030 C.3   124  LYS124      0.0271
     58  CG        52.8380   29.8440  111.2120 C.3   124  LYS124      0.0035
     59  CD        53.0620   31.3180  110.9680 C.3   124  LYS124      0.0206
     60  CE        51.7500   32.0570  111.1670 C.3   124  LYS124      0.1093
     61  NZ        51.8010   33.4370  110.6410 N.3   124  LYS124     -0.1314
     62  N         53.3290   25.9350  115.1240 N.3   126  TRP126     -0.1241
     63  CA        52.4100   24.8380  114.8520 C.3   126  TRP126      0.1605
     64  C         52.7840   24.0790  113.5730 C.2   126  TRP126      0.2264
     65  O         52.4560   22.8950  113.4220 O.2   126  TRP126     -0.2867
     66  CB        50.9460   25.2950  114.8110 C.3   126  TRP126      0.0550
     67  CG        50.6380   26.5910  114.0550 C.ar  126  TRP126      0.0003
     68  CD1       50.3740   27.8100  114.6110 C.ar  126  TRP126      0.0946
     69  CD2       50.5150   26.7680  112.6330 C.ar  126  TRP126      0.0152
     70  NE1       50.1160   28.7340  113.6350 N.ar  126  TRP126     -0.2442
     71  CE2       50.1960   28.1230  112.4090 C.ar  126  TRP126      0.0810
     72  CE3       50.6540   25.9180  111.5290 C.ar  126  TRP126      0.0012
     73  CZ2       50.0060   28.6520  111.1160 C.ar  126  TRP126      0.0191
     74  CZ3       50.4700   26.4480  110.2400 C.ar  126  TRP126      0.0001
     75  CH2       50.1530   27.8010  110.0520 C.ar  126  TRP126      0.0015
     76  N         53.3610   20.1860  113.4370 N.3   130  ARG130     -0.1245
     77  CA        52.6900   19.2790  112.5060 C.3   130  ARG130      0.1563
     78  C         53.6610   18.3820  111.7290 C.2   130  ARG130      0.2260
     79  O         53.4280   17.1820  111.5830 O.2   130  ARG130     -0.2867
     80  CB        51.7710   20.0500  111.5650 C.3   130  ARG130      0.0307
     81  CG        50.4670   20.4280  112.2290 C.3   130  ARG130      0.0489
     82  CD        49.8250   21.6410  111.6160 C.3   130  ARG130      0.2205
     83  NE        48.9630   22.2780  112.5980 N.pl3 130  ARG130     -0.0865
     84  CZ        48.0550   23.2130  112.3360 C.cat 130  ARG130      0.5346
     85  NH1       47.8520   23.6520  111.0930 N.pl3 130  ARG130      0.1354
     86  NH2       47.3390   23.7160  113.3390 N.pl3 130  ARG130      0.1354
     87  N         48.2610   23.4310  106.0550 N.3   182  THR182     -0.1218
     88  CA        47.1910   24.4090  106.0330 C.3   182  THR182      0.1862
     89  C         46.5200   24.2850  104.6850 C.2   182  THR182      0.2287
     90  O         47.2100   24.0820  103.6840 O.2   182  THR182     -0.2866
     91  CB        47.7720   25.8130  106.0850 C.3   182  THR182      0.1770
     92  OG1       48.3180   26.0490  107.3780 O.3   182  THR182     -0.2211
     93  CG2       46.7060   26.8260  105.8710 C.3   182  THR182      0.0375
     94  N         42.5630   22.9920  107.6900 N.3   210  ASP210     -0.1239
     95  CA        41.6390   23.9340  108.3750 C.3   210  ASP210      0.1674
     96  C         40.1370   23.8220  108.1460 C.2   210  ASP210      0.2266
     97  O         39.3560   24.3200  108.9600 O.2   210  ASP210     -0.2867
     98  CB        42.0480   25.3650  108.0920 C.3   210  ASP210      0.1410
     99  CG        43.4240   25.6510  108.5620 C.2   210  ASP210      0.3668
    100  OD1       43.7090   25.3450  109.7450 O.co2 210  ASP210     -0.2456
    101  OD2       44.2210   26.1670  107.7440 O.co2 210  ASP210     -0.2456
    102  N         38.8900   25.4460  105.4560 N.3   212  GLU212     -0.1245
    103  CA        38.6400   26.8170  105.0480 C.3   212  GLU212      0.1567
    104  C         38.4450   26.8210  103.5420 C.2   212  GLU212      0.2260
    105  O         39.2990   26.3220  102.8040 O.2   212  GLU212     -0.2867
    106  CB        39.8380   27.6840  105.4210 C.3   212  GLU212      0.0388
    107  CG        39.7210   29.1130  104.9460 C.3   212  GLU212      0.1160
    108  CD        40.7300   30.0520  105.5860 C.2   212  GLU212      0.3649
    109  OE1       40.3500   31.2150  105.8700 O.co2 212  GLU212     -0.2457
    110  OE2       41.8910   29.6410  105.7990 O.co2 212  GLU212     -0.2457
    111  N         39.3260   21.7210  112.3900 N.3   228  GLN228     -0.1245
    112  CA        39.7840   21.8630  113.7660 C.3   228  GLN228      0.1566
    113  C         38.5810   22.0630  114.6750 C.2   228  GLN228      0.2260
    114  O         37.5290   22.5050  114.2160 O.2   228  GLN228     -0.2867
    115  CB        40.7520   23.0420  113.9000 C.3   228  GLN228      0.0367
    116  CG        42.0080   22.9380  113.0490 C.3   228  GLN228      0.0905
    117  CD        43.0450   23.9920  113.4170 C.2   228  GLN228      0.2608
    118  OE1       43.4830   24.0750  114.5730 O.2   228  GLN228     -0.2717
    119  NE2       43.4540   24.7990  112.4300 N.am  228  GLN228     -0.0878
@<TRIPOS>BOND
     1   105   104    2
     2   104   103    1
     3    90    89    2
     4    89    88    1
     5   107   106    1
     6   107   108    1
     7   103   106    1
     8   103   102    1
     9   108   110   ar
    10   108   109   ar
    11    93    91    1
    12    88    87    1
    13    88    91    1
    14    91    92    1
    15    94    95    1
    16   101    99   ar
    17    98    95    1
    18    98    99    1
    19    96    95    1
    20    96    97    2
    21    99   100   ar
    22     6     5    1
    23     6     7    1
    24     8     9    1
    25     8     7    1
    26     2     1    1
    27     2     3    1
    28     2     5    1
    29     3     4    2
    30    75    74   ar
    31    75    73   ar
    32    74    72   ar
    33    61    60    1
    34    10    11    1
    35    59    60    1
    36    59    58    1
    37    85    84    1
    38    73    71   ar
    39    58    57    1
    40    57    54    1
    41    72    69   ar
    42    80    81    1
    43    80    77    1
    44    79    78    2
    45    82    81    1
    46    82    83    1
    47    78    77    1
    48    11    14    1
    49    11    12    1
    50    14    15    1
    51    84    83    2
    52    84    86    1
    53   111   112    1
    54    71    69   ar
    55    71    70   ar
    56   119   117   am
    57    77    76    1
    58    53    54    1
    59    69    67   ar
    60    54    55    1
    61    56    55    2
    62   116   117    1
    63   116   115    1
    64    22    12   am
    65    22    23    1
    66    12    13    2
    67   117   118    2
    68    65    64    2
    69    28    27   ar
    70    15    17   ar
    71    15    16   ar
    72    64    63    1
    73    70    68   ar
    74    26    27    1
    75    26    23    1
    76   112   115    1
    77   112   113    1
    78    27    29   ar
    79    67    68   ar
    80    67    66    1
    81    17    19   ar
    82    23    24    1
    83   114   113    2
    84    24    25    2
    85    16    18   ar
    86    66    63    1
    87    63    62    1
    88    19    20   ar
    89    18    20   ar
    90    20    21    1
    91    37    35   ar
    92    45    43   ar
    93    51    50    1
    94    41    40    2
    95    42    43    1
    96    42    39    1
    97    52    50    1
    98    43    44   ar
    99    35    36   ar
   100    35    34    1
   101    50    47    1
   102    40    39    1
   103    39    38    1
   104    34    31    1
   105    48    47    1
   106    48    49    2
   107    47    46    1
   108    31    32    1
   109    31    30    1
   110    33    32    2
