@<TRIPOS>MOLECULE
tmp/4feeA01.pdb
 182 176 0 0 0
SMALL
GASTEIGER

@<TRIPOS>ATOM
      1  N         71.3590   74.8560    4.1110 N.3    84  ASN84      -0.1240
      2  CA        71.8060   73.5240    4.4380 C.3    84  ASN84       0.1653
      3  C         71.8980   73.3300    5.9500 C.2    84  ASN84       0.2266
      4  O         71.6880   72.2390    6.4530 O.2    84  ASN84      -0.2867
      5  CB        73.1240   73.1380    3.7520 C.3    84  ASN84       0.1155
      6  CG        72.8330   72.6900    2.3360 C.2    84  ASN84       0.2627
      7  OD1       72.1240   73.3720    1.6010 O.2    84  ASN84      -0.2716
      8  ND2       73.3880   71.5520    1.9360 N.am   84  ASN84      -0.0877
      9  N         82.2300   64.8870    9.3230 N.3   385  ASP385     -0.1225
     10  CA        81.6020   65.2640    8.0630 C.3   385  ASP385      0.1805
     11  C         80.8210   64.0470    7.5090 C.2   385  ASP385      0.2598
     12  O         80.4660   63.1420    8.2960 O.2   385  ASP385     -0.2718
     13  CB        82.6230   65.8680    7.0900 C.3   385  ASP385      0.1424
     14  CG        82.0350   66.9530    6.2220 C.2   385  ASP385      0.3668
     15  OD1       81.2600   66.6010    5.2980 O.co2 385  ASP385     -0.2456
     16  OD2       82.3760   68.1500    6.4210 O.co2 385  ASP385     -0.2456
     17  N         80.5120   64.0430    6.2190 N.am  386  VAL386     -0.1966
     18  CA        79.5840   63.0650    5.6430 C.3   386  VAL386      0.1727
     19  C         80.2580   62.3410    4.5010 C.2   386  VAL386      0.2617
     20  O         80.7500   63.0040    3.5590 O.2   386  VAL386     -0.2715
     21  CB        78.3100   63.8000    5.1710 C.3   386  VAL386      0.0290
     22  CG1       77.4170   62.8920    4.3250 C.3   386  VAL386      0.0023
     23  CG2       77.5600   64.3040    6.3600 C.3   386  VAL386      0.0023
     24  N         80.2360   61.0140    4.5330 N.am  387  GLY387     -0.1940
     25  CA        80.8500   60.1970    3.5170 C.3   387  GLY387      0.2014
     26  C         81.4590   58.9530    4.1480 C.2   387  GLY387      0.2639
     27  O         81.0070   58.4750    5.2020 O.2   387  GLY387     -0.2714
     28  N         82.5030   58.3960    3.5130 N.am  388  ASP388     -0.1957
     29  CA        83.1610   57.2580    4.1090 C.3   388  ASP388      0.1840
     30  C         83.6130   57.5110    5.5420 C.2   388  ASP388      0.2621
     31  O         83.7110   56.5660    6.3230 O.2   388  ASP388     -0.2715
     32  CB        84.3570   56.8150    3.2720 C.3   388  ASP388      0.1450
     33  CG        84.0990   55.9850    2.0810 C.2   388  ASP388      0.3671
     34  OD1       83.0020   55.4670    1.9040 O.co2 388  ASP388     -0.2456
     35  OD2       85.1060   55.8190    1.2860 O.co2 388  ASP388     -0.2456
     36  N         83.8880   58.7530    5.9260 N.am  389  ILE389     -0.1977
     37  CA        84.3220   59.0120    7.2840 C.3   389  ILE389      0.1596
     38  C         83.2820   58.5580    8.2820 C.2   389  ILE389      0.2287
     39  O         83.6550   58.1330    9.3850 O.2   389  ILE389     -0.2864
     40  CB        84.6970   60.4940    7.5170 C.3   389  ILE389      0.0276
     41  CG1       85.3940   60.7120    8.8700 C.3   389  ILE389      0.0022
     42  CG2       83.5200   61.4470    7.3520 C.3   389  ILE389      0.0022
     43  CD1       86.6300   59.8640    9.1200 C.3   389  ILE389      0.0001
     44  N         69.6410   64.6140    7.3870 N.3   411  PHE411     -0.1227
     45  CA        69.8030   65.4140    6.1790 C.3   411  PHE411      0.1736
     46  C         71.1340   65.0660    5.4910 C.2   411  PHE411      0.2595
     47  O         71.2380   65.1130    4.2660 O.2   411  PHE411     -0.2718
     48  CB        69.7150   66.8840    6.5060 C.3   411  PHE411      0.0547
     49  CG        69.5350   67.8260    5.3250 C.ar  411  PHE411     -0.0202
     50  CD1       68.4580   67.7340    4.4810 C.ar  411  PHE411     -0.0042
     51  CD2       70.4640   68.8440    5.0980 C.ar  411  PHE411     -0.0042
     52  CE1       68.2890   68.5740    3.4090 C.ar  411  PHE411     -0.0003
     53  CE2       70.2820   69.7100    4.0240 C.ar  411  PHE411     -0.0003
     54  CZ        69.1920   69.5890    3.2020 C.ar  411  PHE411     -0.0000
     55  N         72.1320   64.7300    6.2960 N.am  412  ALA412     -0.1966
     56  CA        73.4330   64.3220    5.8440 C.3   412  ALA412      0.1728
     57  C         74.0340   65.3320    4.8830 C.2   412  ALA412      0.2617
     58  O         74.5690   64.9700    3.8290 O.2   412  ALA412     -0.2715
     59  CB        73.4020   62.9220    5.2600 C.3   412  ALA412      0.0334
     60  N         74.0280   66.6000    5.2660 N.am  413  THR413     -0.1937
     61  CA        74.7730   67.6000    4.4850 C.3   413  THR413      0.2028
     62  C         76.2820   67.4800    4.6910 C.2   413  THR413      0.2642
     63  O         76.7790   67.5660    5.7940 O.2   413  THR413     -0.2714
     64  CB        74.2660   69.0120    4.7230 C.3   413  THR413      0.1808
     65  OG1       74.9480   69.9170    3.8430 O.3   413  THR413     -0.2208
     66  CG2       74.4260   69.4930    6.1870 C.3   413  THR413      0.0379
     67  N         76.9890   67.3150    3.5640 N.am  414  MET414     -0.1976
     68  CA        78.4200   67.5050    3.5870 C.3   414  MET414      0.1605
     69  C         78.7600   68.9220    4.0160 C.2   414  MET414      0.2287
     70  O         77.9500   69.8620    3.8690 O.2   414  MET414     -0.2864
     71  CB        78.9570   67.2450    2.1780 C.3   414  MET414      0.0413
     72  CG        78.8970   65.7860    1.7210 C.3   414  MET414      0.0598
     73  SD        79.2020   65.6450   -0.0200 S.3   414  MET414     -0.1393
     74  CE        80.8990   66.1500   -0.1450 C.3   414  MET414      0.0692
     75  N         86.1150   64.0340    4.9670 N.3   438  GLY438     -0.1210
     76  CA        86.6110   63.7100    3.6620 C.3   438  GLY438      0.1956
     77  C         86.9880   64.9570    2.8790 C.2   438  GLY438      0.2612
     78  O         86.5790   66.0800    3.2010 O.2   438  GLY438     -0.2717
     79  N         87.7150   64.7450    1.7880 N.am  439  ASP439     -0.1959
     80  CA        88.1460   65.8610    0.9510 C.3   439  ASP439      0.1840
     81  C         86.9740   66.5490    0.2720 C.2   439  ASP439      0.2623
     82  O         86.9880   67.7800    0.1520 O.2   439  ASP439     -0.2715
     83  CB        89.2360   65.4440   -0.0340 C.3   439  ASP439      0.1450
     84  CG        89.0390   64.2420   -0.8940 C.2   439  ASP439      0.3671
     85  OD1       87.9820   63.5150   -0.7690 O.co2 439  ASP439     -0.2456
     86  OD2       89.9270   63.9760   -1.7300 O.co2 439  ASP439     -0.2456
     87  N         85.9540   65.8130   -0.1540 N.am  440  GLY440     -0.1940
     88  CA        84.8020   66.4490   -0.7520 C.3   440  GLY440      0.2014
     89  C         84.0900   67.3690    0.1990 C.2   440  GLY440      0.2639
     90  O         83.7390   68.5030   -0.1410 O.2   440  GLY440     -0.2714
     91  N         83.8480   66.8800    1.4100 N.am  441  GLY441     -0.1954
     92  CA        83.1240   67.6810    2.4060 C.3   441  GLY441      0.1869
     93  C         83.9440   68.8410    2.9430 C.2   441  GLY441      0.2309
     94  O         83.4250   69.9470    3.0870 O.2   441  GLY441     -0.2863
     95  N         83.8640   71.7740    0.6560 N.3   444  MET444     -0.1245
     96  CA        82.6560   72.6000    0.6000 C.3   444  MET444      0.1570
     97  C         82.6660   73.7220    1.6050 C.2   444  MET444      0.2261
     98  O         82.0320   74.7400    1.3150 O.2   444  MET444     -0.2867
     99  CB        81.4240   71.7150    0.7870 C.3   444  MET444      0.0387
    100  CG        81.1190   70.9450   -0.4780 C.3   444  MET444      0.0595
    101  SD        79.6530   69.9260   -0.2400 S.3   444  MET444     -0.1393
    102  CE        79.5570   69.1660   -1.8440 C.3   444  MET444      0.0692
    103  N         90.6360   63.4960    4.9470 N.3   464  PHE464     -0.1241
    104  CA        90.8980   62.1860    4.3340 C.3   464  PHE464      0.1605
    105  C         90.8500   62.3650    2.8200 C.2   464  PHE464      0.2264
    106  O         89.7890   62.4070    2.2100 O.2   464  PHE464     -0.2867
    107  CB        89.8690   61.1720    4.8370 C.3   464  PHE464      0.0534
    108  CG        89.9750   60.8340    6.2990 C.ar  464  PHE464     -0.0203
    109  CD1       89.6670   61.7300    7.3260 C.ar  464  PHE464     -0.0042
    110  CD2       90.4360   59.5770    6.6670 C.ar  464  PHE464     -0.0042
    111  CE1       89.8370   61.4170    8.6250 C.ar  464  PHE464     -0.0003
    112  CE2       90.5610   59.2140    8.0230 C.ar  464  PHE464     -0.0003
    113  CZ        90.3020   60.1470    9.0070 C.ar  464  PHE464     -0.0000
    114  N         91.2130   61.1830   -0.6290 N.3   466  ASN466     -0.1240
    115  CA        91.2150   60.1010   -1.5840 C.3   466  ASN466      0.1653
    116  C         91.0400   60.5770   -3.0310 C.2   466  ASN466      0.2266
    117  O         91.0510   59.7420   -3.9260 O.2   466  ASN466     -0.2867
    118  CB        90.1930   59.0140   -1.2230 C.3   466  ASN466      0.1155
    119  CG        88.8200   59.5120   -0.9720 C.2   466  ASN466      0.2627
    120  OD1       88.4660   60.6510   -1.3170 O.2   466  ASN466     -0.2716
    121  ND2       87.9600   58.6610   -0.4100 N.am  466  ASN466     -0.0877
    122  N         88.3410   61.4540   -4.3370 N.3   468  GLN468     -0.1231
    123  CA        87.1010   60.8450   -4.7430 C.3   468  GLN468      0.1698
    124  C         85.9560   61.3030   -3.8700 C.2   468  GLN468      0.2592
    125  O         86.1730   61.6930   -2.6790 O.2   468  GLN468     -0.2718
    126  CB        87.1520   59.3330   -4.5910 C.3   468  GLN468      0.0381
    127  CG        88.2200   58.6210   -5.3520 C.3   468  GLN468      0.0905
    128  CD        88.2650   57.1380   -4.9900 C.2   468  GLN468      0.2608
    129  OE1       87.8000   56.7260   -3.9430 O.2   468  GLN468     -0.2717
    130  NE2       88.8260   56.3530   -5.8310 N.am  468  GLN468     -0.0878
    131  N         84.7540   61.1870   -4.3720 N.am  469  TYR469     -0.1962
    132  CA        83.5530   61.0640   -3.5400 C.3   469  TYR469      0.1771
    133  C         83.4170   59.5610   -3.3000 C.2   469  TYR469      0.2620
    134  O         82.6610   58.8820   -4.0160 O.2   469  TYR469     -0.2715
    135  CB        82.3190   61.6390   -4.2200 C.3   469  TYR469      0.0574
    136  CG        82.3820   63.1500   -4.4650 C.ar  469  TYR469     -0.0198
    137  CD1       82.6230   64.0680   -3.4640 C.ar  469  TYR469     -0.0009
    138  CD2       82.1850   63.6560   -5.7190 C.ar  469  TYR469     -0.0009
    139  CE1       82.6580   65.4120   -3.7100 C.ar  469  TYR469      0.0417
    140  CE2       82.2420   65.0000   -5.9660 C.ar  469  TYR469      0.0417
    141  CZ        82.4890   65.8960   -4.9990 C.ar  469  TYR469      0.1957
    142  OH        82.5440   67.2410   -5.2600 O.3   469  TYR469     -0.2866
    143  N         84.1970   59.0270   -2.3770 N.am  470  GLY470     -0.1940
    144  CA        84.3230   57.5710   -2.2690 C.3   470  GLY470      0.2014
    145  C         83.0300   56.8740   -1.9610 C.2   470  GLY470      0.2639
    146  O         82.6940   55.8470   -2.5700 O.2   470  GLY470     -0.2714
    147  N         82.2400   57.4660   -1.0630 N.am  471  PHE471     -0.1959
    148  CA        80.9780   56.8570   -0.6880 C.3   471  PHE471      0.1771
    149  C         80.0800   56.7080   -1.8980 C.2   471  PHE471      0.2619
    150  O         79.3470   55.7160   -2.0010 O.2   471  PHE471     -0.2715
    151  CB        80.3150   57.7460    0.3880 C.3   471  PHE471      0.0574
    152  CG        79.2840   57.1340    1.2910 C.ar  471  PHE471     -0.0200
    153  CD1       79.6650   56.2830    2.3400 C.ar  471  PHE471     -0.0042
    154  CD2       77.9400   57.4350    1.1640 C.ar  471  PHE471     -0.0042
    155  CE1       78.7440   55.7430    3.2180 C.ar  471  PHE471     -0.0003
    156  CE2       77.0210   56.9080    2.0420 C.ar  471  PHE471     -0.0003
    157  CZ        77.4270   56.0820    3.0780 C.ar  471  PHE471     -0.0000
    158  N         80.1010   57.6780   -2.7980 N.am  472  ILE472     -0.1977
    159  CA        79.2810   57.6350   -4.0220 C.3   472  ILE472      0.1596
    160  C         79.8900   56.7800   -5.1060 C.2   472  ILE472      0.2287
    161  O         79.1670   56.1060   -5.8500 O.2   472  ILE472     -0.2864
    162  CB        79.0230   59.0430   -4.5360 C.3   472  ILE472      0.0276
    163  CG1       78.4910   59.9270   -3.4200 C.3   472  ILE472      0.0022
    164  CG2       78.1030   59.0680   -5.7520 C.3   472  ILE472      0.0022
    165  CD1       77.3120   59.3500   -2.7090 C.3   472  ILE472      0.0001
    166  N         78.7050   53.3830   -4.4820 N.3   475  GLU475     -0.1245
    167  CA        77.3330   53.2490   -4.9320 C.3   475  GLU475      0.1567
    168  C         77.2630   53.0250   -6.4360 C.2   475  GLU475      0.2260
    169  O         76.5420   52.1390   -6.8710 O.2   475  GLU475     -0.2867
    170  CB        76.5340   54.4840   -4.5480 C.3   475  GLU475      0.0388
    171  CG        76.3510   54.5800   -3.0390 C.3   475  GLU475      0.1160
    172  CD        75.7660   55.8780   -2.6090 C.2   475  GLU475      0.3649
    173  OE1       75.3670   56.7550   -3.4150 O.co2 475  GLU475     -0.2457
    174  OE2       75.7640   56.1500   -1.3830 O.co2 475  GLU475     -0.2457
    175  N         95.1310   59.2160    1.3690 N.3   536  ILE536     -0.1245
    176  CA        94.7650   57.8360    1.5830 C.3   536  ILE536      0.1561
    177  C         94.4790   57.1190    0.2700 C.2   536  ILE536      0.2260
    178  O         94.1920   57.7170   -0.7660 O.2   536  ILE536     -0.2867
    179  CB        93.5450   57.7080    2.5160 C.3   536  ILE536      0.0252
    180  CG1       92.3150   58.3980    1.9650 C.3   536  ILE536      0.0019
    181  CG2       93.9070   58.1880    3.9200 C.3   536  ILE536      0.0019
    182  CD1       91.0180   57.9510    2.5830 C.3   536  ILE536      0.0001
@<TRIPOS>BOND
     1   169   168    2
     2   168   167    1
     3   140   138   ar
     4   140   141   ar
     5   161   160    2
     6   130   128   am
     7   164   162    1
     8   138   136   ar
     9   127   128    1
    10   127   126    1
    11   142   141    1
    12   160   159    1
    13   141   139   ar
    14   128   129    2
    15   167   170    1
    16   167   166    1
    17   123   126    1
    18   123   122    1
    19   123   124    1
    20   170   171    1
    21   162   159    1
    22   162   163    1
    23   136   135    1
    24   136   137   ar
    25   131   124   am
    26   131   132    1
    27   135   132    1
    28   159   158    1
    29   134   133    2
    30   117   116    2
    31   124   125    2
    32   139   137   ar
    33   132   133    1
    34   163   165    1
    35   173   172   ar
    36   133   143   am
    37   171   172    1
    38   116   115    1
    39   158   149   am
    40   172   174   ar
    41   146   145    2
    42   143   144    1
    43   144   145    1
    44   150   149    2
    45   145   147   am
    46   149   148    1
    47   102   101    1
    48    86    84   ar
    49   115   118    1
    50   115   114    1
    51   120   119    2
    52   118   119    1
    53   147   148    1
    54   119   121   am
    55    84    85   ar
    56    84    83    1
    57   178   177    2
    58    88    87    1
    59    88    89    1
    60   148   151    1
    61   100   101    1
    62   100    99    1
    63    87    81   am
    64    74    73    1
    65    90    89    2
    66    83    80    1
    67    73    72    1
    68    82    81    2
    69    89    91   am
    70   177   176    1
    71    81    80    1
    72   151   152    1
    73    96    95    1
    74    96    99    1
    75    96    97    1
    76    80    79    1
    77   154   152   ar
    78   154   156   ar
    79    35    33   ar
    80   152   153   ar
    81    98    97    2
    82   175   176    1
    83    91    92    1
    84   176   179    1
    85     7     6    2
    86    72    71    1
    87    79    77   am
    88    34    33   ar
    89     8     6   am
    90   180   179    1
    91   180   182    1
    92   156   157   ar
    93    33    32    1
    94    71    68    1
    95   106   105    2
    96     6     5    1
    97   153   155   ar
    98    92    93    1
    99   179   181    1
   100   105   104    1
   101    77    78    2
   102    77    76    1
   103    93    94    2
   104   157   155   ar
   105    54    52   ar
   106    54    53   ar
   107    32    29    1
   108    52    50   ar
   109    28    29    1
   110    28    26   am
   111    25    26    1
   112    25    24    1
   113    20    19    2
   114    67    68    1
   115    67    62   am
   116    68    69    1
   117    76    75    1
   118     5     2    1
   119    58    57    2
   120    65    64    1
   121    70    69    2
   122    53    51   ar
   123    29    30    1
   124     1     2    1
   125    26    27    2
   126    47    46    2
   127    22    21    1
   128   104   107    1
   129   104   103    1
   130     2     3    1
   131    50    49   ar
   132    61    62    1
   133    61    64    1
   134    61    60    1
   135    19    24   am
   136    19    18    1
   137    62    63    2
   138    64    66    1
   139   107   108    1
   140    57    60   am
   141    57    56    1
   142    51    49   ar
   143    21    18    1
   144    21    23    1
   145    59    56    1
   146    15    14   ar
   147    49    48    1
   148    46    45    1
   149    46    55   am
   150    30    36   am
   151    30    31    2
   152    18    17    1
   153    56    55    1
   154    36    37    1
   155     3     4    2
   156    45    48    1
   157    45    44    1
   158    17    11   am
   159    14    16   ar
   160    14    13    1
   161   108   110   ar
   162   108   109   ar
   163   110   112   ar
   164    13    10    1
   165    37    40    1
   166    37    38    1
   167   109   111   ar
   168    42    40    1
   169    11    10    1
   170    11    12    2
   171    40    41    1
   172   112   113   ar
   173    10     9    1
   174    38    39    2
   175   111   113   ar
   176    41    43    1
