@<TRIPOS>MOLECULE
tmp/4fekA00.pdb
 89 87 0 0 0
SMALL
GASTEIGER

@<TRIPOS>ATOM
      1  N        -10.6540   18.2000   56.8540 N.3   145  ILE145     -0.1231
      2  CA       -11.8830   18.9840   56.7220 C.3   145  ILE145      0.1678
      3  C        -11.9170   19.6340   55.3420 C.2   145  ILE145      0.2434
      4  O        -11.8690   20.8550   55.2120 O.2   145  ILE145     -0.2733
      5  CB       -12.0350   20.0170   57.8780 C.3   145  ILE145      0.0265
      6  CG1      -10.7580   20.8440   58.0490 C.3   145  ILE145      0.0019
      7  CG2      -12.3860   19.2910   59.2000 C.3   145  ILE145      0.0020
      8  CD1      -10.9810   22.1130   58.8610 C.3   145  ILE145      0.0001
      9  N        -12.0260   18.7970   54.2850 N.am  146  PRO146     -0.2718
     10  CA       -11.9900   19.3480   52.9270 C.3   146  PRO146      0.1535
     11  C        -13.1950   20.2770   52.6590 C.2   146  PRO146      0.2599
     12  O        -14.3310   19.9520   53.0230 O.2   146  PRO146     -0.2715
     13  CB       -12.0900   18.0910   52.0460 C.3   146  PRO146      0.0310
     14  CG       -12.8320   17.0870   52.8930 C.3   146  PRO146      0.0237
     15  CD       -12.3170   17.3530   54.2950 C.3   146  PRO146      0.0939
     16  N        -12.9260   21.4080   52.0140 N.am  147  SER147     -0.1950
     17  CA       -13.9580   22.3500   51.6070 C.3   147  SER147      0.1924
     18  C        -13.5720   22.9260   50.2440 C.2   147  SER147      0.2314
     19  O        -12.3940   22.8710   49.8460 O.2   147  SER147     -0.2863
     20  CB       -14.1020   23.4680   52.6480 C.3   147  SER147      0.2116
     21  OG       -12.9300   24.2630   52.7150 O.3   147  SER147     -0.2180
     22  N        -10.6940   25.2580   50.7270 N.3   150  TRP150     -0.1241
     23  CA        -9.4930   24.5130   51.1430 C.3   150  TRP150      0.1605
     24  C         -9.6880   22.9990   51.0250 C.2   150  TRP150      0.2264
     25  O         -9.9910   22.3270   52.0070 O.2   150  TRP150     -0.2867
     26  CB        -9.0600   24.8630   52.5860 C.3   150  TRP150      0.0550
     27  CG        -8.7530   26.3050   52.8040 C.ar  150  TRP150      0.0003
     28  CD1       -7.6020   26.9730   52.4510 C.ar  150  TRP150      0.0946
     29  CD2       -9.6020   27.2690   53.4310 C.ar  150  TRP150      0.0152
     30  NE1       -7.6970   28.2950   52.8200 N.ar  150  TRP150     -0.2442
     31  CE2       -8.9120   28.5000   53.4260 C.ar  150  TRP150      0.0810
     32  CE3      -10.9000   27.2130   53.9840 C.ar  150  TRP150      0.0012
     33  CZ2       -9.4660   29.6670   53.9520 C.ar  150  TRP150      0.0191
     34  CZ3      -11.4490   28.3810   54.5100 C.ar  150  TRP150      0.0001
     35  CH2      -10.7320   29.5840   54.4930 C.ar  150  TRP150      0.0015
     36  N         -9.2850   27.7470   60.7580 N.3   169  ILE169     -0.1245
     37  CA       -10.5370   27.7920   61.5240 C.3   169  ILE169      0.1561
     38  C        -10.3400   28.4810   62.8860 C.2   169  ILE169      0.2260
     39  O         -9.3380   28.2280   63.5620 O.2   169  ILE169     -0.2867
     40  CB       -11.1750   26.4030   61.7230 C.3   169  ILE169      0.0252
     41  CG1      -11.0980   25.5540   60.4460 C.3   169  ILE169      0.0019
     42  CG2      -12.6320   26.5540   62.2120 C.3   169  ILE169      0.0019
     43  CD1      -11.7790   26.1710   59.2360 C.3   169  ILE169      0.0001
     44  N        -18.7860   29.4110   53.3540 N.3   198  HIS198     -0.1241
     45  CA       -18.6810   27.9630   53.3330 C.3   198  HIS198      0.1621
     46  C        -19.3810   27.3850   54.5630 C.2   198  HIS198      0.2264
     47  O        -18.9370   26.3950   55.1320 O.2   198  HIS198     -0.2867
     48  CB       -17.2010   27.5750   53.3280 C.3   198  HIS198      0.0745
     49  CG       -16.3480   28.4870   52.4970 C.ar  198  HIS198      0.0817
     50  ND1      -16.4380   28.5430   51.1190 N.ar  198  HIS198     -0.2268
     51  CD2      -15.3950   29.3880   52.8500 C.ar  198  HIS198      0.1154
     52  CE1      -15.5820   29.4400   50.6600 C.ar  198  HIS198      0.1986
     53  NE2      -14.9340   29.9650   51.6880 N.ar  198  HIS198     -0.2212
     54  N        -19.8640   23.6550   55.2470 N.3   201  HIS201     -0.1226
     55  CA       -18.6090   22.9850   55.5740 C.3   201  HIS201      0.1752
     56  C        -18.1070   23.3270   56.9680 C.2   201  HIS201      0.2595
     57  O        -17.4910   22.4890   57.6140 O.2   201  HIS201     -0.2718
     58  CB       -17.5370   23.2660   54.5300 C.3   201  HIS201      0.0759
     59  CG       -17.7720   22.5520   53.2430 C.ar  201  HIS201      0.0818
     60  ND1      -18.5860   23.0620   52.2580 N.ar  201  HIS201     -0.2268
     61  CD2      -17.3310   21.3530   52.7950 C.ar  201  HIS201      0.1154
     62  CE1      -18.6270   22.2110   51.2450 C.ar  201  HIS201      0.1986
     63  NE2      -17.8660   21.1730   51.5390 N.ar  201  HIS201     -0.2212
     64  N        -18.3530   24.5490   57.4360 N.am  202  VAL202     -0.1980
     65  CA       -17.9890   24.8750   58.8240 C.3   202  VAL202      0.1595
     66  C        -18.7340   23.9680   59.7980 C.2   202  VAL202      0.2287
     67  O        -18.1590   23.4690   60.7610 O.2   202  VAL202     -0.2864
     68  CB       -18.3110   26.3380   59.1340 C.3   202  VAL202      0.0276
     69  CG1      -18.0610   26.6530   60.6030 C.3   202  VAL202      0.0022
     70  CG2      -17.5050   27.2260   58.2150 C.3   202  VAL202      0.0022
     71  N        -19.8970   20.9620   59.1960 N.3   204  ALA204     -0.1231
     72  CA       -19.3360   19.6110   59.0780 C.3   204  ALA204      0.1694
     73  C        -18.0400   19.4950   59.8920 C.2   204  ALA204      0.2591
     74  O        -17.7980   18.4910   60.5650 O.2   204  ALA204     -0.2718
     75  CB       -19.0780   19.2530   57.5930 C.3   204  ALA204      0.0304
     76  N        -17.2110   20.5380   59.8220 N.am  205  ALA205     -0.1980
     77  CA       -15.9760   20.5790   60.6060 C.3   205  ALA205      0.1597
     78  C        -16.2550   20.5500   62.1160 C.2   205  ALA205      0.2287
     79  O        -15.6160   19.8050   62.8690 O.2   205  ALA205     -0.2864
     80  CB       -15.1390   21.8130   60.2280 C.3   205  ALA205      0.0319
     81  N        -17.1790   17.0990   63.1810 N.3   208  LYS208     -0.1245
     82  CA       -15.9630   16.2570   63.2360 C.3   208  LYS208      0.1561
     83  C        -15.1660   16.4220   64.5190 C.2   208  LYS208      0.2260
     84  O        -14.7100   15.4420   65.1170 O.2   208  LYS208     -0.2867
     85  CB       -15.0450   16.5100   62.0290 C.3   208  LYS208      0.0271
     86  CG       -15.4300   15.7410   60.7710 C.3   208  LYS208      0.0035
     87  CD       -14.7870   16.3580   59.5310 C.3   208  LYS208      0.0206
     88  CE       -15.4470   15.8670   58.2400 C.3   208  LYS208      0.1093
     89  NZ       -15.2730   16.8310   57.1040 N.3   208  LYS208     -0.1314
@<TRIPOS>BOND
     1    19    18    2
     2    18    17    1
     3    52    50   ar
     4    52    53   ar
     5    22    23    1
     6    24    23    1
     7    24    25    2
     8    50    49   ar
     9    23    26    1
    10    62    63   ar
    11    62    60   ar
    12    63    61   ar
    13    17    16    1
    14    17    20    1
    15    53    51   ar
    16    16    11   am
    17    13    14    1
    18    13    10    1
    19    60    59   ar
    20    28    27   ar
    21    28    30   ar
    22    49    51   ar
    23    49    48    1
    24    26    27    1
    25    20    21    1
    26    11    10    1
    27    11    12    2
    28    61    59   ar
    29    27    29   ar
    30    30    31   ar
    31    14    15    1
    32    10     9    1
    33    59    58    1
    34    48    45    1
    35    45    44    1
    36    45    46    1
    37    31    29   ar
    38    31    33   ar
    39    29    32   ar
    40    33    35   ar
    41    32    34   ar
    42     9    15    1
    43     9     3   am
    44    35    34   ar
    45    58    55    1
    46    46    47    2
    47     4     3    2
    48    54    55    1
    49     3     2    1
    50    55    56    1
    51     2     1    1
    52     2     5    1
    53    56    64   am
    54    56    57    2
    55    89    88    1
    56    64    65    1
    57    75    72    1
    58     5     6    1
    59     5     7    1
    60     6     8    1
    61    70    68    1
    62    88    87    1
    63    65    68    1
    64    65    66    1
    65    72    71    1
    66    72    73    1
    67    68    69    1
    68    43    41    1
    69    87    86    1
    70    66    67    2
    71    76    73   am
    72    76    77    1
    73    73    74    2
    74    80    77    1
    75    41    40    1
    76    77    78    1
    77    36    37    1
    78    86    85    1
    79    37    40    1
    80    37    38    1
    81    40    42    1
    82    85    82    1
    83    78    79    2
    84    38    39    2
    85    81    82    1
    86    82    83    1
    87    83    84    2
