@<TRIPOS>MOLECULE
tmp/4feqA00.pdb
 161 155 0 0 0
SMALL
GASTEIGER

@<TRIPOS>ATOM
      1  N          3.8570  -15.4690   12.3660 N.3    10  LEU10      -0.1231
      2  CA         4.5450  -15.3110   13.6460 C.3    10  LEU10       0.1693
      3  C          3.5900  -14.8090   14.7260 C.2    10  LEU10       0.2592
      4  O          3.6790  -15.2210   15.8820 O.2    10  LEU10      -0.2718
      5  CB         5.7410  -14.3630   13.4950 C.3    10  LEU10       0.0284
      6  CG         6.7640  -14.6510   12.3890 C.3    10  LEU10       0.0019
      7  CD1        7.6410  -13.4380   12.1340 C.3    10  LEU10       0.0001
      8  CD2        7.6170  -15.8720   12.7120 C.3    10  LEU10       0.0001
      9  N          2.6760  -13.9220   14.3370 N.am   11  GLY11      -0.1957
     10  CA         1.6750  -13.3750   15.2510 C.3    11  GLY11       0.1869
     11  C          0.4690  -12.8230   14.5160 C.2    11  GLY11       0.2309
     12  O          0.5580  -12.4830   13.3330 O.2    11  GLY11      -0.2863
     13  N          1.6880  -10.3560   11.4640 N.3    15  VAL15      -0.1245
     14  CA         3.1430  -10.3920   11.2620 C.3    15  VAL15       0.1561
     15  C          3.5760  -11.7860   10.8010 C.2    15  VAL15       0.2260
     16  O          3.2340  -12.7960   11.4220 O.2    15  VAL15      -0.2867
     17  CB         3.9470   -9.9460   12.5240 C.3    15  VAL15       0.0252
     18  CG1        5.4510   -9.9650   12.2470 C.3    15  VAL15       0.0019
     19  CG2        3.5240   -8.5490   12.9820 C.3    15  VAL15       0.0019
     20  N         11.0350  -10.1920    8.9760 N.3    29  ALA29      -0.1245
     21  CA         9.6440  -10.2480    9.4060 C.3    29  ALA29       0.1562
     22  C          8.8560   -9.1270    8.7340 C.2    29  ALA29       0.2260
     23  O          9.3110   -7.9810    8.6790 O.2    29  ALA29      -0.2867
     24  CB         9.5410  -10.1450   10.9030 C.3    29  ALA29       0.0290
     25  N          5.2680   -7.0310    8.4970 N.3    31  LYS31      -0.1245
     26  CA         4.0120   -6.6380    9.1200 C.3    31  LYS31       0.1561
     27  C          3.0270   -6.2540    8.0280 C.2    31  LYS31       0.2260
     28  O          3.2340   -5.2710    7.3160 O.2    31  LYS31      -0.2867
     29  CB         4.2270   -5.4720   10.0910 C.3    31  LYS31       0.0271
     30  CG         3.0240   -5.1540   10.9690 C.3    31  LYS31       0.0035
     31  CD         3.3940   -4.1370   12.0310 C.3    31  LYS31       0.0206
     32  CE         2.4000   -4.1390   13.1780 C.3    31  LYS31       0.1093
     33  NZ         2.8590   -3.2670   14.2900 N.3    31  LYS31      -0.1314
     34  N          5.3690   -3.5710    6.2620 N.3    59  VAL59      -0.1245
     35  CA         6.6070   -3.0820    6.8820 C.3    59  VAL59       0.1561
     36  C          7.6200   -4.2210    7.0570 C.2    59  VAL59       0.2260
     37  O          7.2960   -5.2730    7.6160 O.2    59  VAL59      -0.2867
     38  CB         6.3260   -2.4100    8.2580 C.3    59  VAL59       0.0252
     39  CG1        7.5840   -1.7430    8.8100 C.3    59  VAL59       0.0019
     40  CG2        5.2020   -1.3840    8.1420 C.3    59  VAL59       0.0019
     41  N         10.8500   -5.6410    8.8150 N.3    61  LEU61      -0.1231
     42  CA        11.7400   -5.5420    9.9780 C.3    61  LEU61       0.1678
     43  C         12.6810   -6.7480   10.1100 C.2    61  LEU61       0.2434
     44  O         12.4020   -7.8100    9.5420 O.2    61  LEU61      -0.2733
     45  CB        10.9250   -5.3670   11.2680 C.3    61  LEU61       0.0284
     46  CG        11.0060   -3.9740   11.9030 C.3    61  LEU61       0.0019
     47  CD1        9.9340   -3.0550   11.3530 C.3    61  LEU61       0.0001
     48  CD2       10.9280   -4.0550   13.4200 C.3    61  LEU61       0.0001
     49  N         13.7960   -6.5950   10.8650 N.am   62  PRO62      -0.2718
     50  CA        14.6940   -7.7240   11.1240 C.3    62  PRO62       0.1535
     51  C         13.9680   -8.9010   11.7560 C.2    62  PRO62       0.2599
     52  O         13.0490   -8.6980   12.5570 O.2    62  PRO62      -0.2715
     53  CB        15.7060   -7.1470   12.1260 C.3    62  PRO62       0.0310
     54  CG        15.7030   -5.6960   11.8790 C.3    62  PRO62       0.0237
     55  CD        14.2900   -5.3580   11.4970 C.3    62  PRO62       0.0939
     56  N         14.3570  -10.1220   11.3850 N.am   63  PHE63      -0.1960
     57  CA        13.8250  -11.2970   12.0640 C.3    63  PHE63       0.1771
     58  C         14.5780  -11.4910   13.3680 C.2    63  PHE63       0.2619
     59  O         15.8120  -11.3980   13.4060 O.2    63  PHE63      -0.2715
     60  CB        13.9120  -12.5730   11.2190 C.3    63  PHE63       0.0574
     61  CG        13.3310  -13.7750   11.9080 C.ar   63  PHE63      -0.0200
     62  CD1       11.9630  -14.0070   11.8890 C.ar   63  PHE63      -0.0042
     63  CD2       14.1500  -14.6490   12.6230 C.ar   63  PHE63      -0.0042
     64  CE1       11.4210  -15.0980   12.5470 C.ar   63  PHE63      -0.0003
     65  CE2       13.6220  -15.7390   13.2750 C.ar   63  PHE63      -0.0003
     66  CZ        12.2570  -15.9710   13.2440 C.ar   63  PHE63      -0.0000
     67  N         13.8310  -11.7530   14.4330 N.am   64  MET64      -0.1963
     68  CA        14.4180  -11.8820   15.7580 C.3    64  MET64       0.1736
     69  C         13.9080  -13.1210   16.4620 C.2    64  MET64       0.2616
     70  O         12.7630  -13.1640   16.9270 O.2    64  MET64      -0.2715
     71  CB        14.1800  -10.6130   16.5680 C.3    64  MET64       0.0427
     72  CG        15.0670   -9.4640   16.1080 C.3    64  MET64       0.0599
     73  SD        14.5640   -7.8640   16.7360 S.3    64  MET64      -0.1393
     74  CE        15.1690   -7.9800   18.4020 C.3    64  MET64       0.0692
     75  N         14.7930  -14.1220   16.5400 N.am   65  LYS65      -0.1963
     76  CA        14.4350  -15.4960   16.9120 C.3    65  LYS65       0.1728
     77  C         13.9430  -15.6470   18.3460 C.2    65  LYS65       0.2616
     78  O         13.1630  -16.5490   18.6390 O.2    65  LYS65      -0.2715
     79  CB        15.6210  -16.4480   16.6550 C.3    65  LYS65       0.0311
     80  CG        15.2890  -17.9530   16.7910 C.3    65  LYS65       0.0038
     81  CD        16.5410  -18.8300   16.5800 C.3    65  LYS65       0.0206
     82  CE        16.4650  -20.1140   17.4170 C.3    65  LYS65       0.1093
     83  NZ        17.7660  -20.8600   17.4640 N.3    65  LYS65      -0.1314
     84  N         14.3930  -14.7820   19.2480 N.am   66  HIS66      -0.1959
     85  CA        13.9780  -14.9090   20.6490 C.3    66  HIS66       0.1787
     86  C         12.5930  -14.2880   20.9170 C.2    66  HIS66       0.2621
     87  O         12.0730  -14.3870   22.0240 O.2    66  HIS66      -0.2715
     88  CB        15.0370  -14.3540   21.6070 C.3    66  HIS66       0.0785
     89  CG        16.3800  -15.0060   21.4790 C.ar   66  HIS66       0.0821
     90  ND1       17.5490  -14.2820   21.3600 N.ar   66  HIS66      -0.2267
     91  CD2       16.7430  -16.3120   21.4650 C.ar   66  HIS66       0.1154
     92  CE1       18.5720  -15.1150   21.2790 C.ar   66  HIS66       0.1986
     93  NE2       18.1100  -16.3500   21.3400 N.ar   66  HIS66      -0.2212
     94  N         12.0160  -13.6660   19.8930 N.am   67  GLY67      -0.1940
     95  CA        10.6620  -13.0880   19.9440 C.3    67  GLY67       0.2014
     96  C         10.5010  -11.8620   20.8290 C.2    67  GLY67       0.2638
     97  O         11.4830  -11.1950   21.1730 O.2    67  GLY67      -0.2714
     98  N          9.2600  -11.5860   21.2270 N.am   68  ASP68      -0.1971
     99  CA         8.9410  -10.3620   21.9570 C.3    68  ASP68       0.1709
    100  C          9.0740  -10.5150   23.4640 C.2    68  ASP68       0.2293
    101  O          8.9360  -11.6210   24.0200 O.2    68  ASP68      -0.2864
    102  CB         7.5560   -9.8180   21.5750 C.3    68  ASP68       0.1436
    103  CG         6.4250  -10.7360   21.9760 C.2    68  ASP68       0.3671
    104  OD1        5.9960  -10.7040   23.1310 O.co2  68  ASP68      -0.2456
    105  OD2        5.9340  -11.4780   21.1220 O.co2  68  ASP68      -0.2456
    106  N          5.9680  -12.2960   25.6040 N.3    71  ALA71      -0.1231
    107  CA         5.9840  -13.7720   25.6120 C.3    71  ALA71       0.1694
    108  C          7.1140  -14.3290   26.5070 C.2    71  ALA71       0.2592
    109  O          6.8750  -15.2080   27.3380 O.2    71  ALA71      -0.2718
    110  CB         6.0850  -14.3150   24.1960 C.3    71  ALA71       0.0304
    111  N          8.3230  -13.7800   26.3750 N.am   72  PHE72      -0.1976
    112  CA         9.4700  -14.2070   27.1910 C.3    72  PHE72       0.1639
    113  C          9.1690  -14.1250   28.6820 C.2    72  PHE72       0.2290
    114  O          9.4520  -15.0560   29.4320 O.2    72  PHE72      -0.2864
    115  CB        10.7180  -13.3750   26.8670 C.3    72  PHE72       0.0560
    116  CG        11.9370  -13.7670   27.6690 C.ar   72  PHE72      -0.0200
    117  CD1       12.3820  -12.9710   28.7140 C.ar   72  PHE72      -0.0042
    118  CD2       12.6260  -14.9500   27.3820 C.ar   72  PHE72      -0.0042
    119  CE1       13.5060  -13.3360   29.4650 C.ar   72  PHE72      -0.0003
    120  CE2       13.7340  -15.3290   28.1220 C.ar   72  PHE72      -0.0003
    121  CZ        14.1840  -14.5190   29.1640 C.ar   72  PHE72      -0.0000
    122  N          4.9500   -6.1730   24.4520 N.3   110  ARG110     -0.1231
    123  CA         4.7030   -6.8990   23.1900 C.3   110  ARG110      0.1694
    124  C          5.4390   -6.2490   22.0290 C.2   110  ARG110      0.2592
    125  O          5.7820   -6.9090   21.0330 O.2   110  ARG110     -0.2718
    126  CB         3.1880   -7.0000   22.8830 C.3   110  ARG110      0.0321
    127  CG         2.5340   -5.6410   22.5030 C.3   110  ARG110      0.0489
    128  CD         0.9900   -5.6600   22.3290 C.3   110  ARG110      0.2205
    129  NE         0.4570   -4.2830   22.3470 N.pl3 110  ARG110     -0.0865
    130  CZ         0.0290   -3.6420   23.4390 C.cat 110  ARG110      0.5346
    131  NH1        0.0170   -4.2470   24.6170 N.pl3 110  ARG110      0.1354
    132  NH2       -0.4180   -2.3900   23.3560 N.pl3 110  ARG110      0.1354
    133  N          5.6840   -4.9480   22.1650 N.am  111  ASN111     -0.1974
    134  CA         6.3590   -4.1620   21.1360 C.3   111  ASN111      0.1688
    135  C          7.8760   -4.0140   21.4000 C.2   111  ASN111      0.2292
    136  O          8.5780   -3.2740   20.6940 O.2   111  ASN111     -0.2864
    137  CB         5.6550   -2.8060   20.9640 C.3   111  ASN111      0.1181
    138  CG         4.3820   -2.9050   20.1070 C.2   111  ASN111      0.2629
    139  OD1        4.2680   -3.7790   19.2460 O.2   111  ASN111     -0.2716
    140  ND2        3.4360   -1.9960   20.3260 N.am  111  ASN111     -0.0877
    141  N         11.4590   -6.1860   21.5760 N.3   113  MET113     -0.1245
    142  CA        11.9500   -7.4010   20.9440 C.3   113  MET113      0.1570
    143  C         13.2830   -7.8450   21.5460 C.2   113  MET113      0.2261
    144  O         14.1520   -7.0100   21.8490 O.2   113  MET113     -0.2867
    145  CB        12.1160   -7.1820   19.4360 C.3   113  MET113      0.0387
    146  CG        10.8390   -7.0090   18.6250 C.3   113  MET113      0.0595
    147  SD         9.7200   -8.4180   18.6620 S.3   113  MET113     -0.1393
    148  CE        10.6200   -9.6100   17.6720 C.3   113  MET113      0.0692
    149  N         10.5480   -1.7850   19.2680 N.3   123  ALA123     -0.1231
    150  CA        10.0630   -1.9620   17.8960 C.3   123  ALA123      0.1694
    151  C          8.7280   -1.2610   17.6540 C.2   123  ALA123      0.2592
    152  O          8.0830   -0.7730   18.5880 O.2   123  ALA123     -0.2718
    153  CB         9.9440   -3.4480   17.5450 C.3   123  ALA123      0.0304
    154  N          8.3320   -1.2300   16.3860 N.am  124  ASP124     -0.1974
    155  CA         7.0300   -0.7440   15.9660 C.3   124  ASP124      0.1709
    156  C          6.9580    0.7910   15.8700 C.2   124  ASP124      0.2293
    157  O          6.5420    1.4700   16.8050 O.2   124  ASP124     -0.2864
    158  CB         5.9410   -1.3320   16.8750 C.3   124  ASP124      0.1436
    159  CG         4.5720   -0.8060   16.5650 C.2   124  ASP124      0.3671
    160  OD1        3.7630   -0.7140   17.4990 O.co2 124  ASP124     -0.2456
    161  OD2        4.3070   -0.4780   15.3970 O.co2 124  ASP124     -0.2456
@<TRIPOS>BOND
     1    34    35    1
     2    35    36    1
     3    35    38    1
     4    36    37    2
     5    28    27    2
     6    27    26    1
     7    40    38    1
     8    38    39    1
     9    25    26    1
    10    23    22    2
    11    22    21    1
    12    41    42    1
    13    20    21    1
    14    26    29    1
    15    21    24    1
    16    44    43    2
    17    42    43    1
    18    42    45    1
    19    29    30    1
    20    43    49   am
    21    15    14    1
    22    15    16    2
    23    49    50    1
    24    49    55    1
    25    30    31    1
    26    50    51    1
    27    50    53    1
    28    60    61    1
    29    60    57    1
    30    14    13    1
    31    14    17    1
    32    45    46    1
    33    47    46    1
    34    56    51   am
    35    56    57    1
    36    55    54    1
    37    51    52    2
    38    54    53    1
    39    62    61   ar
    40    62    64   ar
    41    46    48    1
    42    61    63   ar
    43    31    32    1
    44    57    58    1
    45     7     6    1
    46    18    17    1
    47     1     2    1
    48     6     8    1
    49     6     5    1
    50    17    19    1
    51    64    66   ar
    52    63    65   ar
    53    32    33    1
    54    66    65   ar
    55    12    11    2
    56    58    59    2
    57    58    67   am
    58     5     2    1
    59     2     3    1
    60     9     3   am
    61     9    10    1
    62    67    68    1
    63    11    10    1
    64     3     4    2
    65   161   159   ar
    66    68    69    1
    67    68    71    1
    68   156   155    1
    69   156   157    2
    70   155   154    1
    71   155   158    1
    72    72    71    1
    73    72    73    1
    74   154   151   am
    75    69    75   am
    76    69    70    2
    77    75    76    1
    78   159   158    1
    79   159   160   ar
    80    81    80    1
    81    81    82    1
    82    79    80    1
    83    79    76    1
    84    73    74    1
    85    76    77    1
    86    82    83    1
    87   153   150    1
    88   151   150    1
    89   151   152    2
    90   148   147    1
    91   150   149    1
    92    77    78    2
    93    77    84   am
    94   146   147    1
    95   146   145    1
    96   139   138    2
    97    84    85    1
    98   145   142    1
    99    94    95    1
   100    94    86   am
   101    95    96    1
   102   138   140   am
   103   138   137    1
   104    85    86    1
   105    85    88    1
   106   136   135    2
   107    96    97    2
   108    96    98   am
   109    86    87    2
   110   142   143    1
   111   142   141    1
   112   137   134    1
   113   125   124    2
   114   105   103   ar
   115   134   135    1
   116   134   133    1
   117    98    99    1
   118    92    93   ar
   119    92    90   ar
   120    93    91   ar
   121    90    89   ar
   122    91    89   ar
   123    89    88    1
   124   143   144    2
   125   102    99    1
   126   102   103    1
   127    99   100    1
   128   103   104   ar
   129   124   133   am
   130   124   123    1
   131   128   129    1
   132   128   127    1
   133   129   130    2
   134   127   126    1
   135   126   123    1
   136   123   122    1
   137   132   130    1
   138   130   131    1
   139   100   101    2
   140   110   107    1
   141   106   107    1
   142   107   108    1
   143   111   108   am
   144   111   112    1
   145   108   109    2
   146   115   112    1
   147   115   116    1
   148   112   113    1
   149   118   116   ar
   150   118   120   ar
   151   116   117   ar
   152   120   121   ar
   153   113   114    2
   154   117   119   ar
   155   121   119   ar
