@<TRIPOS>MOLECULE
tmp/4ferA00.pdb
 123 120 0 0 0
SMALL
GASTEIGER

@<TRIPOS>ATOM
      1  N         17.8040   50.6780   24.0740 N.3    21  ALA21      -0.1245
      2  CA        16.8690   49.6460   23.6160 C.3    21  ALA21       0.1562
      3  C         16.4500   49.8250   22.1550 C.2    21  ALA21       0.2260
      4  O         16.0380   48.8700   21.5020 O.2    21  ALA21      -0.2867
      5  CB        15.6400   49.5900   24.5240 C.3    21  ALA21       0.0290
      6  N         18.3270   50.5400   19.5980 N.3    23  LEU23      -0.1245
      7  CA        19.3700   50.1480   18.6380 C.3    23  LEU23       0.1561
      8  C         19.6520   51.2780   17.6370 C.2    23  LEU23       0.2260
      9  O         19.7220   51.0610   16.4280 O.2    23  LEU23      -0.2867
     10  CB        18.9380   48.8790   17.9020 C.3    23  LEU23       0.0270
     11  CG        18.6090   47.6770   18.8090 C.3    23  LEU23       0.0019
     12  CD1       18.2060   46.4510   17.9860 C.3    23  LEU23       0.0001
     13  CD2       19.8140   47.3430   19.6860 C.3    23  LEU23       0.0001
     14  N         18.5680   44.5970    9.9870 N.3   118  LYS118     -0.1231
     15  CA        19.1150   43.9000   11.1430 C.3   118  LYS118      0.1693
     16  C         19.7910   42.6010   10.7430 C.2   118  LYS118      0.2592
     17  O         19.3460   41.9250    9.8040 O.2   118  LYS118     -0.2718
     18  CB        18.0020   43.5910   12.1470 C.3   118  LYS118      0.0285
     19  CG        18.5050   43.2760   13.5540 C.3   118  LYS118      0.0035
     20  CD        17.3400   43.1530   14.5330 C.3   118  LYS118      0.0206
     21  CE        17.8370   43.1600   15.9850 C.3   118  LYS118      0.1093
     22  NZ        18.8120   42.0760   16.2570 N.3   118  LYS118     -0.1314
     23  N         20.8620   42.2530   11.4520 N.am  119  GLU119     -0.1966
     24  CA        21.5330   40.9860   11.2030 C.3   119  GLU119      0.1733
     25  C         20.5310   39.8430   11.3860 C.2   119  GLU119      0.2616
     26  O         19.6650   39.8850   12.2630 O.2   119  GLU119     -0.2715
     27  CB        22.7850   40.8150   12.0820 C.3   119  GLU119      0.0429
     28  CG        22.5420   40.4750   13.5600 C.3   119  GLU119      0.1163
     29  CD        21.9450   41.6260   14.3690 C.2   119  GLU119      0.3649
     30  OE1       21.9790   42.7870   13.9100 O.co2 119  GLU119     -0.2457
     31  OE2       21.4310   41.3650   15.4760 O.co2 119  GLU119     -0.2457
     32  N         20.6170   38.8520   10.5120 N.am  120  GLY120     -0.1955
     33  CA        19.6800   37.7540   10.5170 C.3   120  GLY120      0.1869
     34  C         18.5620   37.9440    9.5050 C.2   120  GLY120      0.2309
     35  O         17.7730   37.0300    9.2850 O.2   120  GLY120     -0.2863
     36  N         16.3520   38.1250    6.1890 N.3   122  SER122     -0.1217
     37  CA        16.3230   37.4260    4.9050 C.3   122  SER122      0.1889
     38  C         14.9450   37.5990    4.2750 C.2   122  SER122      0.2288
     39  O         14.0970   38.3120    4.8090 O.2   122  SER122     -0.2866
     40  CB        16.5730   35.9320    5.1020 C.3   122  SER122      0.2089
     41  OG        15.4380   35.3280    5.7060 O.3   122  SER122     -0.2183
     42  N         12.8600   35.4100    4.3950 N.3   124  TRP124     -0.1227
     43  CA        12.0030   34.6460    5.3050 C.3   124  TRP124      0.1737
     44  C         11.5500   35.4330    6.5350 C.2   124  TRP124      0.2595
     45  O         10.4440   35.2280    7.0450 O.2   124  TRP124     -0.2718
     46  CB        12.7300   33.3810    5.7600 C.3   124  TRP124      0.0564
     47  CG        13.1650   32.5300    4.6200 C.ar  124  TRP124      0.0003
     48  CD1       14.4460   32.2380    4.2480 C.ar  124  TRP124      0.0946
     49  CD2       12.3120   31.8740    3.6850 C.ar  124  TRP124      0.0152
     50  NE1       14.4390   31.4240    3.1430 N.ar  124  TRP124     -0.2442
     51  CE2       13.1390   31.1850    2.7790 C.ar  124  TRP124      0.0810
     52  CE3       10.9250   31.7880    3.5360 C.ar  124  TRP124      0.0012
     53  CZ2       12.6240   30.4260    1.7290 C.ar  124  TRP124      0.0191
     54  CZ3       10.4140   31.0330    2.4920 C.ar  124  TRP124      0.0001
     55  CH2       11.2630   30.3650    1.6010 C.ar  124  TRP124      0.0015
     56  N         12.4290   36.3090    7.0100 N.am  125  TRP125     -0.1976
     57  CA        12.1900   37.1440    8.1810 C.3   125  TRP125      0.1640
     58  C         13.1540   38.3090    8.0730 C.2   125  TRP125      0.2290
     59  O         14.3380   38.1190    7.7890 O.2   125  TRP125     -0.2864
     60  CB        12.4840   36.3730    9.4740 C.3   125  TRP125      0.0576
     61  CG        12.4110   37.2120   10.7440 C.ar  125  TRP125      0.0006
     62  CD1       11.3420   37.3270   11.5920 C.ar  125  TRP125      0.0946
     63  CD2       13.4500   38.0470   11.2940 C.ar  125  TRP125      0.0152
     64  NE1       11.6550   38.1620   12.6390 N.ar  125  TRP125     -0.2442
     65  CE2       12.9350   38.6280   12.4740 C.ar  125  TRP125      0.0810
     66  CE3       14.7610   38.3540   10.9040 C.ar  125  TRP125      0.0012
     67  CZ2       13.6920   39.5020   13.2730 C.ar  125  TRP125      0.0191
     68  CZ3       15.5130   39.2260   11.6980 C.ar  125  TRP125      0.0001
     69  CH2       14.9730   39.7900   12.8660 C.ar  125  TRP125      0.0015
     70  N          9.7340   46.3390   20.0280 N.3   155  ASP155     -0.1225
     71  CA        10.2960   47.1020   21.1470 C.3   155  ASP155      0.1805
     72  C         11.6870   47.6160   20.8120 C.2   155  ASP155      0.2597
     73  O         12.1390   48.6230   21.3650 O.2   155  ASP155     -0.2718
     74  CB        10.4100   46.2190   22.4020 C.3   155  ASP155      0.1424
     75  CG         9.0690   45.9010   23.0170 C.2   155  ASP155      0.3668
     76  OD1        8.1190   46.6790   22.7720 O.co2 155  ASP155     -0.2456
     77  OD2        8.9660   44.8850   23.7550 O.co2 155  ASP155     -0.2456
     78  N         12.3810   46.8880   19.9350 N.am  156  TYR156     -0.1976
     79  CA        13.7340   47.2590   19.5310 C.3   156  TYR156      0.1639
     80  C         13.7870   48.1700   18.2910 C.2   156  TYR156      0.2290
     81  O         14.8210   48.2530   17.6080 O.2   156  TYR156     -0.2864
     82  CB        14.6350   46.0150   19.3840 C.3   156  TYR156      0.0560
     83  CG        14.1150   44.8900   18.4930 C.ar  156  TYR156     -0.0198
     84  CD1       14.4340   44.8570   17.1470 C.ar  156  TYR156     -0.0009
     85  CD2       13.3520   43.8440   19.0120 C.ar  156  TYR156     -0.0009
     86  CE1       13.9940   43.8420   16.3240 C.ar  156  TYR156      0.0417
     87  CE2       12.9080   42.8000   18.1910 C.ar  156  TYR156      0.0417
     88  CZ        13.2310   42.8180   16.8420 C.ar  156  TYR156      0.1957
     89  OH        12.8170   41.8230   15.9850 O.3   156  TYR156     -0.2866
     90  N          7.5450   38.5250    7.8680 N.3   162  THR162     -0.1203
     91  CA         8.0480   37.2360    7.3870 C.3   162  THR162      0.1994
     92  C          7.5840   36.9520    5.9500 C.2   162  THR162      0.2617
     93  O          6.6310   37.5660    5.4660 O.2   162  THR162     -0.2717
     94  CB         7.5610   36.0910    8.2670 C.3   162  THR162      0.1784
     95  OG1        6.1370   36.1710    8.3800 O.3   162  THR162     -0.2211
     96  CG2        8.1820   36.1650    9.6490 C.3   162  THR162      0.0376
     97  N          8.2580   36.0200    5.2770 N.am  163  ASN163     -0.1974
     98  CA         7.9510   35.6740    3.8780 C.3   163  ASN163      0.1688
     99  C          7.7620   36.8970    2.9760 C.2   163  ASN163      0.2292
    100  O          6.7730   37.0000    2.2510 O.2   163  ASN163     -0.2864
    101  CB         6.7070   34.7810    3.7960 C.3   163  ASN163      0.1181
    102  CG         6.7160   33.6700    4.8240 C.2   163  ASN163      0.2629
    103  OD1        7.7130   32.9600    4.9890 O.2   163  ASN163     -0.2716
    104  ND2        5.6060   33.5210    5.5350 N.am  163  ASN163     -0.0877
    105  N         18.8770   35.4950    0.4050 N.3   190  GLU190     -0.1231
    106  CA        18.1920   34.2210    0.5780 C.3   190  GLU190      0.1699
    107  C         18.5350   33.6350    1.9360 C.2   190  GLU190      0.2593
    108  O         17.7220   32.9460    2.5530 O.2   190  GLU190     -0.2718
    109  CB        18.6000   33.2450   -0.5270 C.3   190  GLU190      0.0402
    110  CG        17.9220   31.8810   -0.4400 C.3   190  GLU190      0.1161
    111  CD        16.5200   31.8860   -1.0180 C.2   190  GLU190      0.3649
    112  OE1       16.1990   32.8030   -1.8080 O.co2 190  GLU190     -0.2457
    113  OE2       15.7420   30.9700   -0.6840 O.co2 190  GLU190     -0.2457
    114  N         19.7530   33.9130    2.3900 N.am  191  SER191     -0.1938
    115  CA        20.2110   33.4750    3.7030 C.3   191  SER191      0.2055
    116  C         20.3460   34.6870    4.6140 C.2   191  SER191      0.2643
    117  O         20.6580   35.7820    4.1430 O.2   191  SER191     -0.2714
    118  CB        21.5620   32.7720    3.5860 C.3   191  SER191      0.2130
    119  OG        22.5470   33.6660    3.0950 O.3   191  SER191     -0.2179
    120  N         20.1110   34.4830    5.9100 N.am  192  GLY192     -0.1954
    121  CA        20.1870   35.5400    6.9080 C.3   192  GLY192      0.1869
    122  C         21.4810   36.3350    6.8700 C.2   192  GLY192      0.2309
    123  O         22.5710   35.7550    6.8320 O.2   192  GLY192     -0.2863
@<TRIPOS>BOND
     1   112   111   ar
     2   111   113   ar
     3   111   110    1
     4   109   110    1
     5   109   106    1
     6   105   106    1
     7   106   107    1
     8    55    53   ar
     9    55    54   ar
    10    53    51   ar
    11   107   114   am
    12   107   108    2
    13   100    99    2
    14   114   115    1
    15    54    52   ar
    16    51    50   ar
    17    51    49   ar
    18    99    98    1
    19   119   118    1
    20    50    48   ar
    21    52    49   ar
    22   118   115    1
    23    49    47   ar
    24   115   116    1
    25   101    98    1
    26   101   102    1
    27    98    97    1
    28   117   116    2
    29    48    47   ar
    30    38    39    2
    31    38    37    1
    32    42    43    1
    33   116   120   am
    34    47    46    1
    35   102   103    2
    36   102   104   am
    37    37    40    1
    38    37    36    1
    39    40    41    1
    40    97    92   am
    41    43    46    1
    42    43    44    1
    43    93    92    2
    44   120   121    1
    45    92    91    1
    46    44    56   am
    47    44    45    2
    48   123   122    2
    49   122   121    1
    50    56    57    1
    51    91    90    1
    52    91    94    1
    53    59    58    2
    54    58    57    1
    55    57    60    1
    56    94    95    1
    57    94    96    1
    58    35    34    2
    59    60    61    1
    60    34    33    1
    61    17    16    2
    62    14    15    1
    63    32    33    1
    64    32    25   am
    65    16    15    1
    66    16    23   am
    67    61    63   ar
    68    61    62   ar
    69    66    63   ar
    70    66    68   ar
    71    15    18    1
    72    24    25    1
    73    24    23    1
    74    24    27    1
    75    63    65   ar
    76    25    26    2
    77    62    64   ar
    78    68    69   ar
    79    27    28    1
    80    18    19    1
    81    65    64   ar
    82    65    67   ar
    83    69    67   ar
    84    19    20    1
    85    28    29    1
    86    30    29   ar
    87    29    31   ar
    88    20    21    1
    89    21    22    1
    90    89    88    1
    91    86    88   ar
    92    86    84   ar
    93     9     8    2
    94    88    87   ar
    95    84    83   ar
    96    81    80    2
    97     8     7    1
    98    10     7    1
    99    10    11    1
   100    12    11    1
   101    87    85   ar
   102    80    79    1
   103    83    85   ar
   104    83    82    1
   105     7     6    1
   106    11    13    1
   107    82    79    1
   108    79    78    1
   109    78    72   am
   110    70    71    1
   111    72    71    1
   112    72    73    2
   113    71    74    1
   114     4     3    2
   115     3     2    1
   116    74    75    1
   117    76    75   ar
   118    75    77   ar
   119     2     1    1
   120     2     5    1
