@<TRIPOS>MOLECULE
tmp/4fesA00.pdb
 261 247 0 0 0
SMALL
GASTEIGER

@<TRIPOS>ATOM
      1  N         -5.5730   23.8160  -12.8480 N.3    12  TRP12      -0.1241
      2  CA        -6.3410   22.7350  -13.5060 C.3    12  TRP12       0.1605
      3  C         -7.1500   23.1950  -14.6770 C.2    12  TRP12       0.2264
      4  O         -7.1800   22.5350  -15.7400 O.2    12  TRP12      -0.2867
      5  CB        -7.2290   21.9180  -12.5440 C.3    12  TRP12       0.0550
      6  CG        -7.5440   20.5530  -13.1100 C.ar   12  TRP12       0.0003
      7  CD1       -8.7870   20.0380  -13.5450 C.ar   12  TRP12       0.0946
      8  CD2       -6.5640   19.4680  -13.3620 C.ar   12  TRP12       0.0152
      9  NE1       -8.6230   18.7550  -14.0590 N.ar   12  TRP12      -0.2442
     10  CE2       -7.3160   18.3640  -13.9650 C.ar   12  TRP12       0.0810
     11  CE3       -5.1800   19.3420  -13.1880 C.ar   12  TRP12       0.0012
     12  CZ2       -6.6990   17.1680  -14.3440 C.ar   12  TRP12       0.0191
     13  CZ3       -4.5670   18.1250  -13.5590 C.ar   12  TRP12       0.0001
     14  CH2       -5.3170   17.0570  -14.1200 C.ar   12  TRP12       0.0015
     15  N         -4.8930   23.8400  -17.5530 N.3    15  PHE15      -0.1241
     16  CA        -4.4930   22.5610  -18.1600 C.3    15  PHE15       0.1605
     17  C         -5.6170   21.9390  -18.9800 C.2    15  PHE15       0.2264
     18  O         -5.3730   21.4780  -20.0980 O.2    15  PHE15      -0.2867
     19  CB        -3.9410   21.5880  -17.0870 C.3    15  PHE15       0.0534
     20  CG        -3.6550   20.1880  -17.5950 C.ar   15  PHE15      -0.0203
     21  CD1       -2.5720   19.9380  -18.4600 C.ar   15  PHE15      -0.0042
     22  CD2       -4.4850   19.1210  -17.2160 C.ar   15  PHE15      -0.0042
     23  CE1       -2.2980   18.6550  -18.9060 C.ar   15  PHE15      -0.0003
     24  CE2       -4.2080   17.8170  -17.6410 C.ar   15  PHE15      -0.0003
     25  CZ        -3.1080   17.5840  -18.4890 C.ar   15  PHE15      -0.0000
     26  N         -5.6800   21.0230  -23.2750 N.3    19  ILE19      -0.1245
     27  CA        -5.9890   19.7430  -23.9480 C.3    19  ILE19       0.1561
     28  C         -6.8380   19.8990  -25.2220 C.2    19  ILE19       0.2260
     29  O         -6.6900   19.1310  -26.1670 O.2    19  ILE19      -0.2867
     30  CB        -6.6670   18.7550  -22.9760 C.3    19  ILE19       0.0252
     31  CG1       -5.6470   18.3160  -21.9350 C.3    19  ILE19       0.0019
     32  CG2       -7.2610   17.5640  -23.7420 C.3    19  ILE19       0.0019
     33  CD1       -6.2410   17.6140  -20.7510 C.3    19  ILE19       0.0001
     34  N          1.6980   13.4560  -26.0790 N.3    26  LEU26      -0.1245
     35  CA         1.4570   13.5410  -24.6170 C.3    26  LEU26       0.1561
     36  C          2.5780   14.2260  -23.8420 C.2    26  LEU26       0.2260
     37  O          2.3250   14.9640  -22.8740 O.2    26  LEU26      -0.2867
     38  CB         1.1570   12.1530  -24.0170 C.3    26  LEU26       0.0270
     39  CG        -0.1000   11.3980  -24.4810 C.3    26  LEU26       0.0019
     40  CD1        0.1700    9.9060  -24.3970 C.3    26  LEU26       0.0001
     41  CD2       -1.3640   11.7380  -23.7000 C.3    26  LEU26       0.0001
     42  N          1.6890   17.8490  -23.1040 N.3    29  LEU29      -0.1245
     43  CA         0.6970   18.2360  -22.0800 C.3    29  LEU29       0.1561
     44  C          1.3580   19.0110  -20.9600 C.2    29  LEU29       0.2260
     45  O          2.2170   18.4720  -20.2680 O.2    29  LEU29      -0.2867
     46  CB         0.0370   16.9940  -21.4740 C.3    29  LEU29       0.0270
     47  CG        -0.8770   16.1830  -22.3750 C.3    29  LEU29       0.0019
     48  CD1       -0.9150   14.7390  -21.9130 C.3    29  LEU29       0.0001
     49  CD2       -2.2560   16.8060  -22.3850 C.3    29  LEU29       0.0001
     50  N          1.2130   19.7200  -17.7780 N.3    31  ALA31      -0.1245
     51  CA         0.5030   19.2920  -16.6080 C.3    31  ALA31       0.1562
     52  C          1.0460   20.0180  -15.3960 C.2    31  ALA31       0.2260
     53  O          2.2410   20.0940  -15.2240 O.2    31  ALA31      -0.2867
     54  CB         0.6540   17.7850  -16.4630 C.3    31  ALA31       0.0290
     55  N          0.0130   16.9740  -10.4150 N.3    35  ILE35      -0.1245
     56  CA        -0.4690   15.8000  -11.1010 C.3    35  ILE35       0.1561
     57  C          0.7330   15.0580  -11.7970 C.2    35  ILE35       0.2260
     58  O          0.5520   14.1430  -12.6180 O.2    35  ILE35      -0.2867
     59  CB        -1.6030   16.1490  -12.1140 C.3    35  ILE35       0.0252
     60  CG1       -2.5920   14.9760  -12.2830 C.3    35  ILE35       0.0019
     61  CG2       -1.0500   16.5550  -13.5020 C.3    35  ILE35       0.0019
     62  CD1       -3.4250   14.7200  -11.0460 C.3    35  ILE35       0.0001
     63  N          8.6510    6.0810  -17.1220 N.3    41  LEU41      -0.1245
     64  CA         8.0540    4.9460  -17.7540 C.3    41  LEU41       0.1561
     65  C          8.9960    3.7640  -17.9030 C.2    41  LEU41       0.2260
     66  O          8.5550    2.6340  -18.0320 O.2    41  LEU41      -0.2867
     67  CB         7.4550    5.3650  -19.0740 C.3    41  LEU41       0.0270
     68  CG         6.1670    6.1520  -18.8860 C.3    41  LEU41       0.0019
     69  CD1        5.8480    6.8960  -20.1950 C.3    41  LEU41       0.0001
     70  CD2        5.0990    5.1120  -18.6030 C.3    41  LEU41       0.0001
     71  N          8.2630    1.0390  -15.4150 N.3    44  PHE44      -0.1241
     72  CA         6.9880    0.2910  -15.4430 C.3    44  PHE44       0.1605
     73  C          7.1740   -1.1680  -15.8330 C.2    44  PHE44       0.2264
     74  O          6.3270   -2.0030  -15.5340 O.2    44  PHE44      -0.2867
     75  CB         5.9080    0.9740  -16.3300 C.3    44  PHE44       0.0534
     76  CG         5.2470    2.1790  -15.6770 C.ar   44  PHE44      -0.0203
     77  CD1        6.0030    3.1680  -15.0760 C.ar   44  PHE44      -0.0042
     78  CD2        3.8480    2.3780  -15.7990 C.ar   44  PHE44      -0.0042
     79  CE1        5.3970    4.2740  -14.5120 C.ar   44  PHE44      -0.0003
     80  CE2        3.2420    3.5150  -15.2440 C.ar   44  PHE44      -0.0003
     81  CZ         4.0150    4.4590  -14.6100 C.ar   44  PHE44      -0.0000
     82  N          5.7540   -6.4700  -14.4580 N.3    48  TRP48      -0.1241
     83  CA         5.5580   -7.8580  -14.9670 C.3    48  TRP48       0.1605
     84  C          5.8530   -8.9820  -13.9860 C.2    48  TRP48       0.2264
     85  O          5.4170  -10.1300  -14.2230 O.2    48  TRP48      -0.2867
     86  CB         6.2800   -8.1000  -16.3080 C.3    48  TRP48       0.0550
     87  CG         5.6410   -7.3660  -17.4450 C.ar   48  TRP48       0.0003
     88  CD1        5.9360   -6.0790  -17.9020 C.ar   48  TRP48       0.0946
     89  CD2        4.5650   -7.8470  -18.2610 C.ar   48  TRP48       0.0152
     90  NE1        5.1570   -5.7520  -18.9580 N.ar   48  TRP48      -0.2442
     91  CE2        4.2950   -6.7970  -19.2400 C.ar   48  TRP48       0.0810
     92  CE3        3.8440   -9.0560  -18.3230 C.ar   48  TRP48       0.0012
     93  CZ2        3.3230   -6.9440  -20.2300 C.ar   48  TRP48       0.0191
     94  CZ3        2.8480   -9.2000  -19.3000 C.ar   48  TRP48       0.0001
     95  CH2        2.6080   -8.1770  -20.2590 C.ar   48  TRP48       0.0015
     96  N          0.5880   -2.9440  -12.6100 N.3    98  GLN98      -0.1231
     97  CA         0.6970   -2.1650  -13.8140 C.3    98  GLN98       0.1698
     98  C         -0.2520   -0.9840  -13.7670 C.2    98  GLN98       0.2592
     99  O          0.0990    0.1260  -14.1550 O.2    98  GLN98      -0.2718
    100  CB         0.1860   -3.0240  -14.9910 C.3    98  GLN98       0.0381
    101  CG         1.0330   -4.2310  -15.3440 C.3    98  GLN98       0.0905
    102  CD         2.1940   -3.8330  -16.1920 C.2    98  GLN98       0.2608
    103  OE1        2.5300   -2.6410  -16.2940 O.2    98  GLN98      -0.2717
    104  NE2        2.8890   -4.8210  -16.7530 N.am   98  GLN98      -0.0878
    105  N         -1.4780   -1.2360  -13.3160 N.am   99  TYR99      -0.1976
    106  CA        -2.5230   -0.2340  -13.5260 C.3    99  TYR99       0.1639
    107  C         -3.0410    0.5380  -12.2790 C.2    99  TYR99       0.2290
    108  O         -3.7900    1.5330  -12.4190 O.2    99  TYR99      -0.2864
    109  CB        -3.6680   -0.8470  -14.3060 C.3    99  TYR99       0.0560
    110  CG        -3.1860   -1.3610  -15.6190 C.ar   99  TYR99      -0.0198
    111  CD1       -3.2270   -2.7150  -15.8950 C.ar   99  TYR99      -0.0009
    112  CD2       -2.5880   -0.5060  -16.5540 C.ar   99  TYR99      -0.0009
    113  CE1       -2.7760   -3.1920  -17.0820 C.ar   99  TYR99       0.0417
    114  CE2       -2.0820   -0.9870  -17.7360 C.ar   99  TYR99       0.0417
    115  CZ        -2.1970   -2.3580  -17.9960 C.ar   99  TYR99       0.1957
    116  OH        -1.7280   -2.8590  -19.2120 O.3    99  TYR99      -0.2866
    117  N          0.3750    3.7540   -8.9040 N.3   102  ARG102     -0.1245
    118  CA         0.3650    5.2480   -8.6260 C.3   102  ARG102      0.1563
    119  C         -0.8420    5.6380   -7.7590 C.2   102  ARG102      0.2260
    120  O         -0.6600    6.5000   -6.9380 O.2   102  ARG102     -0.2867
    121  CB         0.4300    6.1340   -9.8770 C.3   102  ARG102      0.0307
    122  CG         1.8340    6.0820  -10.5660 C.3   102  ARG102      0.0489
    123  CD         2.1140    4.6930  -11.1230 C.3   102  ARG102      0.2205
    124  NE         1.0490    4.2880  -12.0430 N.pl3 102  ARG102     -0.0865
    125  CZ         0.8950    3.0670  -12.5870 C.cat 102  ARG102      0.5346
    126  NH1        1.7220    2.0630  -12.2710 N.pl3 102  ARG102      0.1354
    127  NH2       -0.0940    2.8470  -13.4410 N.pl3 102  ARG102      0.1354
    128  N         -3.7010    8.1940  -10.3330 N.3   109  GLU109     -0.1231
    129  CA        -2.7850    8.0310  -11.4680 C.3   109  GLU109      0.1699
    130  C         -2.1730    9.4510  -11.7600 C.2   109  GLU109      0.2592
    131  O         -2.8610   10.4650  -11.5720 O.2   109  GLU109     -0.2718
    132  CB        -3.5410    7.4910  -12.7050 C.3   109  GLU109      0.0402
    133  CG        -2.5850    7.2880  -13.8590 C.3   109  GLU109      0.1161
    134  CD        -1.5900    6.1950  -13.5170 C.2   109  GLU109      0.3649
    135  OE1       -1.9380    5.0090  -13.5640 O.co2 109  GLU109     -0.2457
    136  OE2       -0.4670    6.5280  -13.1380 O.co2 109  GLU109     -0.2457
    137  N         -0.8930    9.5510  -12.1020 N.am  110  LYS110     -0.1966
    138  CA        -0.3000   10.8680  -12.3210 C.3   110  LYS110      0.1728
    139  C          0.4910   10.8190  -13.6260 C.2   110  LYS110      0.2616
    140  O          0.7030    9.7450  -14.1330 O.2   110  LYS110     -0.2715
    141  CB         0.5870   11.2750  -11.1260 C.3   110  LYS110      0.0311
    142  CG        -0.2650   11.7900   -9.9870 C.3   110  LYS110      0.0038
    143  CD         0.5140   12.4630   -8.8750 C.3   110  LYS110      0.0206
    144  CE        -0.5010   12.8690   -7.7910 C.3   110  LYS110      0.1093
    145  NZ         0.1870   13.6310   -6.7330 N.3   110  LYS110     -0.1314
    146  N          0.9800   11.9170  -14.1440 N.am  111  LYS111     -0.1964
    147  CA         1.6330   11.8430  -15.4980 C.3   111  LYS111      0.1713
    148  C          3.1100   11.4780  -15.3020 C.2   111  LYS111      0.2458
    149  O          3.8020   12.1870  -14.6020 O.2   111  LYS111     -0.2730
    150  CB         1.5370   13.1630  -16.2600 C.3   111  LYS111      0.0311
    151  CG         2.2950   13.1210  -17.5950 C.3   111  LYS111      0.0038
    152  CD         2.3460   14.5120  -18.1930 C.3   111  LYS111      0.0206
    153  CE         2.9980   14.4970  -19.5760 C.3   111  LYS111      0.1093
    154  NZ         3.8200   15.7460  -19.6520 N.3   111  LYS111     -0.1314
    155  N          3.5490   10.3240  -15.8210 N.am  112  PRO112     -0.2727
    156  CA         4.8980    9.7960  -15.5200 C.3   112  PRO112      0.1402
    157  C          5.9580   10.5780  -16.2810 C.2   112  PRO112      0.2269
    158  O          5.6250   11.1810  -17.2930 O.2   112  PRO112     -0.2865
    159  CB         4.8340    8.3750  -16.0120 C.3   112  PRO112      0.0296
    160  CG         3.7960    8.3640  -17.0710 C.3   112  PRO112      0.0237
    161  CD         2.7700    9.4040  -16.6940 C.3   112  PRO112      0.0939
    162  N         12.1280   -4.5760  -22.4550 N.3   152  PHE152     -0.1241
    163  CA        12.4500   -5.1140  -21.1490 C.3   152  PHE152      0.1605
    164  C         12.6120   -6.6410  -21.2510 C.2   152  PHE152      0.2264
    165  O         12.1420   -7.2770  -22.1800 O.2   152  PHE152     -0.2867
    166  CB        11.3200   -4.7260  -20.1520 C.3   152  PHE152      0.0534
    167  CG         9.9170   -5.0180  -20.6820 C.ar  152  PHE152     -0.0203
    168  CD1        9.1080   -3.9720  -21.1680 C.ar  152  PHE152     -0.0042
    169  CD2        9.4060   -6.3110  -20.6760 C.ar  152  PHE152     -0.0042
    170  CE1        7.8120   -4.2240  -21.6420 C.ar  152  PHE152     -0.0003
    171  CE2        8.1160   -6.5910  -21.1600 C.ar  152  PHE152     -0.0003
    172  CZ         7.3250   -5.5380  -21.6330 C.ar  152  PHE152     -0.0000
    173  N          6.9170   -2.0050  -25.2170 N.3   167  ASN167     -0.1240
    174  CA         5.6340   -1.3210  -25.1340 C.3   167  ASN167      0.1653
    175  C          5.6920    0.0400  -25.7090 C.2   167  ASN167      0.2266
    176  O          6.7080    0.7110  -25.5700 O.2   167  ASN167     -0.2867
    177  CB         5.2600   -1.1310  -23.6630 C.3   167  ASN167      0.1155
    178  CG         3.9190   -0.5310  -23.5080 C.2   167  ASN167      0.2627
    179  OD1        2.8860   -1.2540  -23.4630 O.2   167  ASN167     -0.2716
    180  ND2        3.8840    0.7470  -23.3920 N.am  167  ASN167     -0.0877
    181  N          2.5480    3.3940  -26.7830 N.3   169  ILE169     -0.1245
    182  CA         1.0960    3.6980  -26.9080 C.3   169  ILE169      0.1561
    183  C          0.7180    4.6560  -28.0150 C.2   169  ILE169      0.2260
    184  O          1.5620    5.3100  -28.5990 O.2   169  ILE169     -0.2867
    185  CB         0.5140    4.2240  -25.5530 C.3   169  ILE169      0.0252
    186  CG1        1.1870    5.5740  -25.2000 C.3   169  ILE169      0.0019
    187  CG2        0.7110    3.1380  -24.4640 C.3   169  ILE169      0.0019
    188  CD1        0.7770    6.1840  -23.8720 C.3   169  ILE169      0.0001
    189  N         -7.8860   12.2060  -26.7300 N.3   173  PHE173     -0.1241
    190  CA        -8.9200   12.6070  -25.7970 C.3   173  PHE173      0.1605
    191  C        -10.2420   12.5990  -26.4990 C.2   173  PHE173      0.2264
    192  O        -10.2920   12.7700  -27.7150 O.2   173  PHE173     -0.2867
    193  CB        -8.6250   14.0400  -25.2940 C.3   173  PHE173      0.0534
    194  CG        -7.4440   14.1190  -24.3790 C.ar  173  PHE173     -0.0203
    195  CD1       -6.1560   14.4180  -24.8910 C.ar  173  PHE173     -0.0042
    196  CD2       -7.6200   13.9230  -22.9700 C.ar  173  PHE173     -0.0042
    197  CE1       -5.0690   14.5300  -24.0360 C.ar  173  PHE173     -0.0003
    198  CE2       -6.5250   13.9760  -22.1070 C.ar  173  PHE173     -0.0003
    199  CZ        -5.2610   14.2870  -22.6330 C.ar  173  PHE173     -0.0000
    200  N         -9.3500    9.8140  -21.7640 N.3   179  LEU179     -0.1245
    201  CA        -8.2230    9.5940  -22.6120 C.3   179  LEU179      0.1561
    202  C         -8.2080    8.1340  -23.0280 C.2   179  LEU179      0.2260
    203  O         -8.0220    7.2570  -22.1830 O.2   179  LEU179     -0.2867
    204  CB        -6.9390    9.9380  -21.8690 C.3   179  LEU179      0.0270
    205  CG        -5.7200    9.6500  -22.7430 C.3   179  LEU179      0.0019
    206  CD1       -5.6750   10.6030  -23.9110 C.3   179  LEU179      0.0001
    207  CD2       -4.4180    9.7010  -21.9230 C.3   179  LEU179      0.0001
    208  N         -6.5790    5.0090  -24.7460 N.3   181  VAL181     -0.1245
    209  CA        -5.1670    4.5990  -24.8990 C.3   181  VAL181      0.1561
    210  C         -5.1100    3.2080  -25.6070 C.2   181  VAL181      0.2260
    211  O         -5.7340    2.2490  -25.1850 O.2   181  VAL181     -0.2867
    212  CB        -4.4000    4.5990  -23.5240 C.3   181  VAL181      0.0252
    213  CG1       -2.9480    4.1260  -23.7030 C.3   181  VAL181      0.0019
    214  CG2       -4.4320    5.9970  -22.8960 C.3   181  VAL181      0.0019
    215  N         -2.4910    0.3010  -26.5330 N.3   183  GLN183     -0.1245
    216  CA        -1.1430   -0.2370  -26.3690 C.3   183  GLN183      0.1566
    217  C         -0.6930   -0.9350  -27.6840 C.2   183  GLN183      0.2260
    218  O         -1.5190   -1.4910  -28.3710 O.2   183  GLN183     -0.2867
    219  CB        -1.1140   -1.2330  -25.1860 C.3   183  GLN183      0.0367
    220  CG        -1.3210   -0.4740  -23.8180 C.3   183  GLN183      0.0905
    221  CD        -0.9950   -1.2990  -22.5840 C.2   183  GLN183      0.2608
    222  OE1       -1.8970   -1.8260  -21.9090 O.2   183  GLN183     -0.2717
    223  NE2        0.2710   -1.4490  -22.3090 N.am  183  GLN183     -0.0878
    224  N         -7.0050    0.6180  -23.0200 N.3   203  LEU203     -0.1245
    225  CA        -7.4630    1.1560  -21.6880 C.3   203  LEU203      0.1561
    226  C         -7.9920    2.5630  -21.8400 C.2   203  LEU203      0.2260
    227  O         -7.8320    3.1370  -22.8860 O.2   203  LEU203     -0.2867
    228  CB        -6.3430    1.0760  -20.6570 C.3   203  LEU203      0.0270
    229  CG        -5.0040    1.7160  -20.9730 C.3   203  LEU203      0.0019
    230  CD1       -4.9740    3.1170  -20.3810 C.3   203  LEU203      0.0001
    231  CD2       -3.8110    0.8880  -20.5160 C.3   203  LEU203      0.0001
    232  N         -8.3340    6.4770  -19.5560 N.3   205  ILE205     -0.1245
    233  CA        -8.0510    7.1620  -18.2900 C.3   205  ILE205      0.1561
    234  C         -9.2720    7.9950  -17.9930 C.2   205  ILE205      0.2260
    235  O         -9.7180    8.7830  -18.8470 O.2   205  ILE205     -0.2867
    236  CB        -6.8020    8.0780  -18.3770 C.3   205  ILE205      0.0252
    237  CG1       -5.5980    7.3950  -19.0800 C.3   205  ILE205      0.0019
    238  CG2       -6.4290    8.6200  -16.9840 C.3   205  ILE205      0.0019
    239  CD1       -4.9150    6.2250  -18.3840 C.3   205  ILE205      0.0001
    240  N        -10.0130   12.7370  -15.3820 N.3   208  ILE208     -0.1245
    241  CA        -9.1770   13.8590  -15.7480 C.3   208  ILE208      0.1561
    242  C         -9.9500   15.1660  -15.4270 C.2   208  ILE208      0.2260
    243  O         -9.4320   16.1040  -14.8030 O.2   208  ILE208     -0.2867
    244  CB        -8.8900   13.8030  -17.2760 C.3   208  ILE208      0.0252
    245  CG1       -8.0470   12.5980  -17.6530 C.3   208  ILE208      0.0019
    246  CG2       -8.1230   15.0170  -17.7910 C.3   208  ILE208      0.0019
    247  CD1       -6.7800   12.5310  -16.9010 C.3   208  ILE208      0.0001
    248  N         -7.2370   11.1740  -11.7620 N.3   213  PRO213     -0.2116
    249  CA        -7.2510   10.2620  -12.9080 C.3   213  PRO213      0.1372
    250  C         -7.0990    8.7760  -12.4490 C.2   213  PRO213      0.2244
    251  O         -6.5330    8.4960  -11.4020 O.2   213  PRO213     -0.2868
    252  CB        -6.0100   10.6820  -13.7370 C.3   213  PRO213      0.0268
    253  CG        -5.5880   12.0000  -13.1810 C.3   213  PRO213      0.0207
    254  CD        -6.0660   12.0680  -11.7710 C.3   213  PRO213      0.0892
    255  N         -6.9550    4.5430  -14.2870 N.3   215  VAL215     -0.1245
    256  CA        -7.0490    3.6160  -15.4120 C.3   215  VAL215      0.1561
    257  C         -8.2110    2.6140  -15.2670 C.2   215  VAL215      0.2260
    258  O         -8.4750    2.0850  -14.1550 O.2   215  VAL215     -0.2867
    259  CB        -5.7480    2.7860  -15.4570 C.3   215  VAL215      0.0252
    260  CG1       -5.8080    1.6630  -16.4690 C.3   215  VAL215      0.0019
    261  CG2       -4.5210    3.6630  -15.6210 C.3   215  VAL215      0.0019
@<TRIPOS>BOND
     1   184   183    2
     2   218   217    2
     3   183   182    1
     4   192   191    2
     5   217   216    1
     6   182   181    1
     7   182   185    1
     8   189   190    1
     9   215   216    1
    10   191   190    1
    11   216   219    1
    12    29    28    2
    13    34    35    1
    14   190   193    1
    15   175   176    2
    16   175   174    1
    17   210   211    2
    18   210   209    1
    19   185   186    1
    20   185   187    1
    21   193   194    1
    22    28    27    1
    23   173   174    1
    24   186   188    1
    25   219   220    1
    26   174   177    1
    27   209   208    1
    28   209   212    1
    29   195   194   ar
    30   195   197   ar
    31    35    38    1
    32    35    36    1
    33    39    40    1
    34    39    38    1
    35    39    41    1
    36   194   196   ar
    37   197   199   ar
    38    27    26    1
    39    27    30    1
    40   206   205    1
    41    36    37    2
    42   220   221    1
    43    32    30    1
    44   213   212    1
    45   177   178    1
    46   212   214    1
    47   178   179    2
    48   178   180   am
    49    42    43    1
    50   202   201    1
    51   202   203    2
    52   224   225    1
    53    30    31    1
    54   196   198   ar
    55   227   226    2
    56   205   207    1
    57   205   204    1
    58   199   198   ar
    59   201   204    1
    60   201   200    1
    61   221   223   am
    62   221   222    2
    63   162   163    1
    64    49    47    1
    65    47    48    1
    66    47    46    1
    67   165   164    2
    68    43    46    1
    69    43    44    1
    70    31    33    1
    71   226   225    1
    72   225   228    1
    73   170   172   ar
    74   170   168   ar
    75   172   171   ar
    76   164   163    1
    77   168   167   ar
    78   171   169   ar
    79   163   166    1
    80   229   228    1
    81   229   231    1
    82   229   230    1
    83    44    45    2
    84   167   169   ar
    85   167   166    1
    86    95    93   ar
    87    95    94   ar
    88    93    91   ar
    89    69    68    1
    90    18    17    2
    91   154   153    1
    92   153   152    1
    93   232   233    1
    94    94    92   ar
    95    91    90   ar
    96    91    89   ar
    97   116   115    1
    98   237   239    1
    99   237   236    1
   100    67    68    1
   101    67    64    1
   102    17    16    1
   103    90    88   ar
   104    23    25   ar
   105    23    21   ar
   106    68    70    1
   107   235   234    2
   108    25    24   ar
   109    21    20   ar
   110   236   233    1
   111   236   238    1
   112    92    89   ar
   113   233   234    1
   114    89    87   ar
   115   152   151    1
   116    16    15    1
   117    16    19    1
   118    66    65    2
   119   115   114   ar
   120   115   113   ar
   121    65    64    1
   122    88    87   ar
   123   246   244    1
   124    50    51    1
   125    64    63    1
   126   114   112   ar
   127   245   244    1
   128   245   247    1
   129    24    22   ar
   130   151   150    1
   131    20    22   ar
   132    20    19    1
   133    87    86    1
   134   158   157    2
   135   244   241    1
   136   113   111   ar
   137   160   161    1
   138   160   159    1
   139   104   102   am
   140   161   155    1
   141    51    54    1
   142    51    52    1
   143   112   110   ar
   144   260   259    1
   145    75    76    1
   146    75    72    1
   147    86    83    1
   148   103   102    2
   149   157   156    1
   150   150   147    1
   151   102   101    1
   152   159   156    1
   153   111   110   ar
   154    73    74    2
   155    73    72    1
   156   155   156    1
   157   155   148   am
   158    78    76   ar
   159    78    80   ar
   160   241   242    1
   161   241   240    1
   162     4     3    2
   163    76    77   ar
   164   261   259    1
   165   110   109    1
   166   147   148    1
   167   147   146    1
   168   259   256    1
   169    72    71    1
   170   242   243    2
   171   256   257    1
   172   256   255    1
   173    52    53    2
   174   101   100    1
   175   148   149    2
   176   257   258    2
   177    80    81   ar
   178    77    79   ar
   179   100    97    1
   180    83    82    1
   181    83    84    1
   182     3     2    1
   183    81    79   ar
   184    12    14   ar
   185    12    10   ar
   186   109   106    1
   187    85    84    2
   188    99    98    2
   189   146   139   am
   190   140   139    2
   191    14    13   ar
   192     9    10   ar
   193     9     7   ar
   194    10     8   ar
   195   133   134    1
   196   133   132    1
   197    97    98    1
   198    97    96    1
   199    98   105   am
   200   252   253    1
   201   252   249    1
   202   139   138    1
   203   135   134   ar
   204    13    11   ar
   205     7     6   ar
   206   106   105    1
   207   106   107    1
   208   134   136   ar
   209     2     1    1
   210     2     5    1
   211    61    59    1
   212   127   125    1
   213     8    11   ar
   214     8     6   ar
   215   253   254    1
   216     6     5    1
   217   249   250    1
   218   249   248    1
   219   132   129    1
   220    58    57    2
   221   125   126    1
   222   125   124    2
   223   250   251    2
   224   108   107    2
   225   138   137    1
   226   138   141    1
   227    60    59    1
   228    60    62    1
   229    59    56    1
   230   137   130   am
   231   124   123    1
   232    57    56    1
   233   254   248    1
   234   130   131    2
   235   130   129    1
   236   129   128    1
   237   141   142    1
   238   123   122    1
   239    56    55    1
   240   122   121    1
   241   142   143    1
   242   121   118    1
   243   117   118    1
   244   143   144    1
   245   118   119    1
   246   144   145    1
   247   119   120    2
