@<TRIPOS>MOLECULE
tmp/4feuA01.pdb
 164 151 0 0 0
SMALL
GASTEIGER

@<TRIPOS>ATOM
      1  N        -25.8750   24.6480  -23.7160 N.3    13  ASP13      -0.1239
      2  CA       -24.6780   25.4430  -24.0140 C.3    13  ASP13       0.1674
      3  C        -23.4490   24.6370  -24.3910 C.2    13  ASP13       0.2266
      4  O        -22.9400   23.8190  -23.5980 O.2    13  ASP13      -0.2867
      5  CB       -24.3000   26.3600  -22.8310 C.3    13  ASP13       0.1410
      6  CG       -25.2840   27.4520  -22.4590 C.2    13  ASP13       0.3668
      7  OD1      -26.2700   27.6390  -23.2010 O.co2  13  ASP13      -0.2456
      8  OD2      -25.0410   28.1510  -21.4430 O.co2  13  ASP13      -0.2456
      9  N        -19.8790   25.3290  -24.7190 N.3    15  VAL15      -0.1245
     10  CA       -18.8080   26.2740  -24.3660 C.3    15  VAL15       0.1561
     11  C        -17.4250   25.6190  -24.6420 C.2    15  VAL15       0.2260
     12  O        -16.4110   25.9780  -24.0310 O.2    15  VAL15      -0.2867
     13  CB       -18.9500   26.8990  -22.9320 C.3    15  VAL15       0.0252
     14  CG1      -18.2960   28.2810  -22.8770 C.3    15  VAL15       0.0019
     15  CG2      -20.4120   27.0030  -22.4970 C.3    15  VAL15       0.0019
     16  N        -24.1320   20.8420  -20.4040 N.3    22  ILE22      -0.1245
     17  CA       -24.4210   22.0470  -19.6400 C.3    22  ILE22       0.1561
     18  C        -25.7480   22.6010  -20.1290 C.2    22  ILE22       0.2260
     19  O        -25.9210   22.8470  -21.3190 O.2    22  ILE22      -0.2867
     20  CB       -23.2780   23.1020  -19.7030 C.3    22  ILE22       0.0252
     21  CG1      -21.9190   22.5070  -19.1990 C.3    22  ILE22       0.0019
     22  CG2      -23.6630   24.3680  -18.9280 C.3    22  ILE22       0.0019
     23  CD1      -20.6500   23.3400  -19.4980 C.3    22  ILE22       0.0001
     24  N        -30.7080   32.9080  -12.6450 N.3    33  GLU33      -0.1196
     25  CA       -30.2580   32.0190  -13.6960 C.3    33  GLU33       0.1783
     26  C        -29.5780   30.8590  -12.9860 C.2    33  GLU33       0.2306
     27  O        -28.9230   31.0700  -11.9580 O.2    33  GLU33      -0.2863
     28  CB       -29.2460   32.7540  -14.5950 C.2    33  GLU33       0.0071
     29  CG       -28.7900   31.9770  -15.8190 C.2    33  GLU33       0.0834
     30  CD       -27.8220   32.7070  -16.7310 C.2    33  GLU33       0.3877
     31  OE1      -26.7080   33.0530  -16.2770 O.co2  33  GLU33      -0.2406
     32  OE2      -28.1760   32.9220  -17.9110 O.co2  33  GLU33      -0.2406
     33  N        -27.4050   26.8790  -13.6830 N.3    35  PHE35      -0.1241
     34  CA       -26.7250   25.9810  -14.6050 C.3    35  PHE35       0.1605
     35  C        -26.8500   24.5770  -14.0800 C.2    35  PHE35       0.2264
     36  O        -26.7750   24.3640  -12.8740 O.2    35  PHE35      -0.2867
     37  CB       -25.2470   26.3590  -14.8430 C.3    35  PHE35       0.0534
     38  CG       -25.0600   27.4950  -15.8190 C.ar   35  PHE35      -0.0203
     39  CD1      -25.0860   27.2690  -17.1860 C.ar   35  PHE35      -0.0042
     40  CD2      -24.8970   28.8010  -15.3700 C.ar   35  PHE35      -0.0042
     41  CE1      -24.9300   28.3310  -18.0930 C.ar   35  PHE35      -0.0003
     42  CE2      -24.7400   29.8590  -16.2760 C.ar   35  PHE35      -0.0003
     43  CZ       -24.7560   29.6180  -17.6310 C.ar   35  PHE35      -0.0000
     44  N        -25.1780   20.8680  -14.9010 N.3    37  LYS37      -0.1245
     45  CA       -24.1580   20.0600  -15.5540 C.3    37  LYS37       0.1561
     46  C        -24.5690   18.5810  -15.3970 C.2    37  LYS37       0.2260
     47  O        -24.9960   18.1780  -14.3130 O.2    37  LYS37      -0.2867
     48  CB       -22.8020   20.2730  -14.8880 C.3    37  LYS37       0.0271
     49  CG       -21.9940   21.4180  -15.4290 C.3    37  LYS37       0.0035
     50  CD       -20.5210   21.0230  -15.4160 C.3    37  LYS37       0.0206
     51  CE       -19.6140   22.0820  -16.0020 C.3    37  LYS37       0.1093
     52  NZ       -18.4930   21.4700  -16.7830 N.3    37  LYS37      -0.1314
     53  N        -15.8580   18.3920   -9.8110 N.3    50  GLU50      -0.1245
     54  CA       -16.1810   19.8200   -9.7440 C.3    50  GLU50       0.1567
     55  C        -16.9770   20.1670   -8.5060 C.2    50  GLU50       0.2260
     56  O        -16.6630   21.1570   -7.8340 O.2    50  GLU50      -0.2867
     57  CB       -16.9210   20.3290  -10.9950 C.3    50  GLU50       0.0388
     58  CG       -16.8680   21.8540  -11.0380 C.3    50  GLU50       0.1160
     59  CD       -17.5810   22.6490  -12.1140 C.2    50  GLU50       0.3649
     60  OE1      -18.4220   22.0710  -12.8420 O.co2  50  GLU50      -0.2457
     61  OE2      -17.3270   23.8760  -12.1880 O.co2  50  GLU50      -0.2457
     62  N        -16.0590   22.9590   -5.7610 N.3    53  LEU53      -0.1245
     63  CA       -16.9440   24.1030   -5.5790 C.3    53  LEU53       0.1561
     64  C        -17.2600   24.1560   -4.0850 C.2    53  LEU53       0.2260
     65  O        -17.0820   25.2000   -3.4550 O.2    53  LEU53      -0.2867
     66  CB       -18.2800   23.9120   -6.3460 C.3    53  LEU53       0.0270
     67  CG       -18.3820   24.3220   -7.8140 C.3    53  LEU53       0.0019
     68  CD1      -19.6970   23.8890   -8.3710 C.3    53  LEU53       0.0001
     69  CD2      -18.2710   25.8330   -7.9960 C.3    53  LEU53       0.0001
     70  N        -19.9030   29.7940   -8.0960 N.3    62  PRO62      -0.2116
     71  CA       -21.3370   29.4420   -8.1450 C.3    62  PRO62       0.1372
     72  C        -21.6860   28.5580   -6.9290 C.2    62  PRO62       0.2244
     73  O        -20.8560   27.7290   -6.5260 O.2    62  PRO62      -0.2868
     74  CB       -21.4580   28.6540   -9.4580 C.3    62  PRO62       0.0268
     75  CG       -20.2620   29.0860  -10.2950 C.3    62  PRO62       0.0207
     76  CD       -19.1730   29.2160   -9.2510 C.3    62  PRO62       0.0892
     77  N        -26.3140   24.5010  -10.0720 N.3    78  THR78      -0.1203
     78  CA       -25.6580   25.6310   -9.4140 C.3    78  THR78       0.1994
     79  C        -26.2800   26.9400   -9.8240 C.2    78  THR78       0.2619
     80  O        -26.9570   26.9880  -10.8370 O.2    78  THR78      -0.2717
     81  CB       -24.1330   25.6660   -9.7680 C.3    78  THR78       0.1784
     82  OG1      -23.9740   25.9390  -11.1620 O.3    78  THR78      -0.2211
     83  CG2      -23.3730   24.3860   -9.3630 C.3    78  THR78       0.0376
     84  N        -26.0150   28.0170   -9.0820 N.am   79  THR79      -0.1938
     85  CA       -26.4690   29.3450   -9.4800 C.3    79  THR79       0.2028
     86  C        -25.4480   29.8930  -10.5060 C.2    79  THR79       0.2642
     87  O        -24.2990   29.4620  -10.5140 O.2    79  THR79      -0.2714
     88  CB       -26.4820   30.2890   -8.2900 C.3    79  THR79       0.1808
     89  OG1      -25.1370   30.4380   -7.8140 O.3    79  THR79      -0.2208
     90  CG2      -27.4440   29.8520   -7.1990 C.3    79  THR79       0.0379
     91  N        -25.8550   30.8490  -11.3480 N.am   80  ALA80      -0.1963
     92  CA       -24.9390   31.4600  -12.2890 C.3    80  ALA80       0.1728
     93  C        -24.2260   32.6570  -11.6490 C.2    80  ALA80       0.2616
     94  O        -24.7590   33.2940  -10.7420 O.2    80  ALA80      -0.2715
     95  CB       -25.7090   31.9280  -13.5030 C.3    80  ALA80       0.0334
     96  N        -23.0350   32.9810  -12.1520 N.am   81  ILE81      -0.1977
     97  CA       -22.2970   34.1680  -11.7530 C.3    81  ILE81       0.1596
     98  C        -22.7120   35.2030  -12.7920 C.2    81  ILE81       0.2287
     99  O        -22.5170   34.9710  -13.9880 O.2    81  ILE81      -0.2864
    100  CB       -20.7620   33.9700  -11.6950 C.3    81  ILE81       0.0276
    101  CG1      -20.3620   32.9440  -10.6020 C.3    81  ILE81       0.0022
    102  CG2      -20.0830   35.3320  -11.4380 C.3    81  ILE81       0.0022
    103  CD1      -18.8020   32.7430  -10.4610 C.3    81  ILE81       0.0001
    104  N        -22.9680   38.3920  -15.3650 N.3    83  GLY83      -0.1210
    105  CA       -21.9490   39.0810  -16.1480 C.3    83  GLY83       0.1956
    106  C        -21.4150   38.3320  -17.3530 C.2    83  GLY83       0.2612
    107  O        -22.0570   37.4080  -17.8610 O.2    83  GLY83      -0.2717
    108  N        -20.2350   38.7330  -17.8200 N.am   84  LYS84      -0.1965
    109  CA       -19.6280   38.1850  -19.0270 C.3    84  LYS84       0.1728
    110  C        -18.2650   37.5980  -18.7320 C.2    84  LYS84       0.2616
    111  O        -17.6230   38.0070  -17.7600 O.2    84  LYS84      -0.2715
    112  CB       -19.4480   39.3080  -20.0900 C.3    84  LYS84       0.0311
    113  CG       -20.6800   40.1500  -20.4430 C.3    84  LYS84       0.0038
    114  CD       -21.6050   39.4730  -21.4450 C.3    84  LYS84       0.0206
    115  CE       -22.9990   39.2930  -20.8750 C.3    84  LYS84       0.1093
    116  NZ       -23.8260   38.3620  -21.6910 N.3    84  LYS84      -0.1314
    117  N        -17.7840   36.6910  -19.6090 N.am   85  THR85      -0.1951
    118  CA       -16.4520   36.1250  -19.4740 C.3    85  THR85       0.1897
    119  C        -15.4520   37.2470  -19.7210 C.2    85  THR85       0.2313
    120  O        -15.7590   38.1830  -20.4590 O.2    85  THR85      -0.2863
    121  CB       -16.2190   34.9720  -20.4840 C.3    85  THR85       0.1794
    122  OG1      -16.2060   35.4810  -21.8280 O.3    85  THR85      -0.2208
    123  CG2      -17.2390   33.8340  -20.3390 C.3    85  THR85       0.0378
    124  N        -15.0140   37.8490  -23.4680 N.3    88  GLN88      -0.1245
    125  CA       -16.0950   38.6690  -24.0480 C.3    88  GLN88       0.1566
    126  C        -15.9350   40.1470  -23.7200 C.2    88  GLN88       0.2260
    127  O        -16.1980   40.9920  -24.5770 O.2    88  GLN88      -0.2867
    128  CB       -17.4950   38.1860  -23.6010 C.3    88  GLN88       0.0367
    129  CG       -17.9950   36.9260  -24.2920 C.3    88  GLN88       0.0905
    130  CD       -19.3190   36.4820  -23.7130 C.2    88  GLN88       0.2608
    131  OE1      -19.4020   35.9830  -22.5750 O.2    88  GLN88      -0.2717
    132  NE2      -20.3950   36.6680  -24.4770 N.am   88  GLN88      -0.0878
    133  N        -12.2830   32.3440  -20.4400 N.3   180  ASP180     -0.1239
    134  CA       -13.6900   31.9000  -20.4370 C.3   180  ASP180      0.1674
    135  C        -14.1760   31.5400  -19.0370 C.2   180  ASP180      0.2266
    136  O        -15.3840   31.4630  -18.7980 O.2   180  ASP180     -0.2867
    137  CB       -13.9130   30.6970  -21.3810 C.3   180  ASP180      0.1410
    138  CG       -13.4110   30.8790  -22.7960 C.2   180  ASP180      0.3668
    139  OD1      -13.6380   31.9620  -23.3740 O.co2 180  ASP180     -0.2456
    140  OD2      -12.7940   29.9410  -23.3240 O.co2 180  ASP180     -0.2456
    141  N        -15.3070   35.5970  -14.6290 N.3   183  ILE183     -0.1245
    142  CA       -16.5300   36.3630  -14.8230 C.3   183  ILE183      0.1561
    143  C        -16.4680   37.8050  -14.3410 C.2   183  ILE183      0.2260
    144  O        -16.1630   38.0680  -13.1760 O.2   183  ILE183     -0.2867
    145  CB       -17.7800   35.5700  -14.2820 C.3   183  ILE183      0.0252
    146  CG1      -17.6980   34.0590  -14.6100 C.3   183  ILE183      0.0019
    147  CG2      -19.1170   36.1790  -14.8020 C.3   183  ILE183      0.0019
    148  CD1      -17.5900   33.6610  -16.2050 C.3   183  ILE183      0.0001
    149  N        -15.4690   30.0540  -12.5950 N.3   193  ILE193     -0.1231
    150  CA       -16.2210   28.8440  -12.8760 C.3   193  ILE193      0.1692
    151  C        -15.2380   27.7770  -13.3630 C.2   193  ILE193      0.2592
    152  O        -14.0550   28.0820  -13.5410 O.2   193  ILE193     -0.2718
    153  CB       -17.3550   29.1630  -13.9140 C.3   193  ILE193      0.0266
    154  CG1      -16.7920   29.6870  -15.2670 C.3   193  ILE193      0.0019
    155  CG2      -18.3900   30.1500  -13.3210 C.3   193  ILE193      0.0020
    156  CD1      -17.7500   29.6050  -16.4890 C.3   193  ILE193      0.0001
    157  N        -15.7300   26.5430  -13.5880 N.am  194  ASP194     -0.1974
    158  CA       -14.9950   25.3940  -14.1330 C.3   194  ASP194      0.1709
    159  C        -13.8460   24.9850  -13.2210 C.2   194  ASP194      0.2293
    160  O        -12.6760   24.9200  -13.6280 O.2   194  ASP194     -0.2864
    161  CB       -14.5500   25.6860  -15.5880 C.3   194  ASP194      0.1436
    162  CG       -14.2570   24.4820  -16.4600 C.2   194  ASP194      0.3671
    163  OD1      -14.3600   23.3350  -15.9540 O.co2 194  ASP194     -0.2456
    164  OD2      -13.8980   24.6840  -17.6470 O.co2 194  ASP194     -0.2456
@<TRIPOS>BOND
     1     9    10    1
     2    11    10    1
     3    11    12    2
     4   127   126    2
     5   132   130   am
     6     3     2    1
     7     3     4    2
     8    10    13    1
     9   129   130    1
    10   129   128    1
    11   125   126    1
    12   125   128    1
    13   125   124    1
    14     2     1    1
    15     2     5    1
    16   130   131    2
    17   139   138   ar
    18   140   138   ar
    19     7     6   ar
    20    13    14    1
    21    13    15    1
    22     5     6    1
    23   138   137    1
    24     6     8   ar
    25   122   121    1
    26   116   115    1
    27   114   115    1
    28   114   113    1
    29   137   134    1
    30    19    18    2
    31   121   123    1
    32   121   118    1
    33   120   119    2
    34   113   112    1
    35   133   134    1
    36   134   135    1
    37    16    17    1
    38    18    17    1
    39   112   109    1
    40   119   118    1
    41    20    17    1
    42    20    21    1
    43    20    22    1
    44   117   118    1
    45   117   110   am
    46    23    21    1
    47   135   136    2
    48   109   110    1
    49   109   108    1
    50   110   111    2
    51    41    43   ar
    52    41    39   ar
    53    32    30   ar
    54   107   106    2
    55   108   106   am
    56   164   162   ar
    57    43    42   ar
    58   106   105    1
    59    39    38   ar
    60    52    51    1
    61    30    31   ar
    62    30    29    1
    63   156   154    1
    64   162   163   ar
    65   162   161    1
    66    42    40   ar
    67   148   146    1
    68   105   104    1
    69    51    50    1
    70    29    28    2
    71    38    40   ar
    72    38    37    1
    73   161   158    1
    74    45    46    1
    75    45    44    1
    76    45    48    1
    77    49    50    1
    78    49    48    1
    79    46    47    2
    80   154   153    1
    81    37    34    1
    82   142   141    1
    83   142   143    1
    84   142   145    1
    85   147   145    1
    86   146   145    1
    87    34    35    1
    88    34    33    1
    89    28    25    1
    90   143   144    2
    91   158   157    1
    92   158   159    1
    93    35    36    2
    94    99    98    2
    95   153   155    1
    96   153   150    1
    97    25    26    1
    98    25    24    1
    99   160   159    2
   100   157   151   am
   101   152   151    2
   102    95    92    1
   103   151   150    1
   104    26    27    2
   105   150   149    1
   106    60    59   ar
   107    98    97    1
   108    92    93    1
   109    92    91    1
   110    61    59   ar
   111    96    97    1
   112    96    93   am
   113    59    58    1
   114    97   100    1
   115   100   102    1
   116   100   101    1
   117    93    94    2
   118    91    86   am
   119    82    81    1
   120    58    57    1
   121    57    54    1
   122    80    79    2
   123   101   103    1
   124    87    86    2
   125    86    85    1
   126    75    74    1
   127    75    76    1
   128    77    78    1
   129    79    78    1
   130    79    84   am
   131    53    54    1
   132    81    78    1
   133    81    83    1
   134    54    55    1
   135    85    84    1
   136    85    88    1
   137    74    71    1
   138    76    70    1
   139    55    56    2
   140    68    67    1
   141    88    89    1
   142    88    90    1
   143    71    70    1
   144    71    72    1
   145    69    67    1
   146    67    66    1
   147    72    73    2
   148    66    63    1
   149    62    63    1
   150    63    64    1
   151    64    65    2
