@<TRIPOS>MOLECULE
tmp/4fevD00.pdb
 151 141 0 0 0
SMALL
GASTEIGER

@<TRIPOS>ATOM
      1  N         11.7130  -83.8150  -42.2370 N.3   155  ARG155     -0.1245
      2  CA        11.0610  -84.2710  -43.4620 C.3   155  ARG155      0.1563
      3  C         11.4870  -85.6970  -43.8120 C.2   155  ARG155      0.2260
      4  O         10.6700  -86.5120  -44.2440 O.2   155  ARG155     -0.2867
      5  CB        11.3450  -83.3220  -44.6340 C.3   155  ARG155      0.0307
      6  CG        10.7690  -81.9110  -44.4150 C.3   155  ARG155      0.0489
      7  CD        10.7150  -81.1150  -45.7030 C.3   155  ARG155      0.2205
      8  NE         9.3590  -81.1090  -46.2390 N.pl3 155  ARG155     -0.0865
      9  CZ         8.9950  -81.6580  -47.3920 C.cat 155  ARG155      0.5346
     10  NH1        7.7260  -81.5950  -47.7740 N.pl3 155  ARG155      0.1354
     11  NH2        9.8880  -82.2550  -48.1810 N.pl3 155  ARG155      0.1354
     12  N         10.7750  -85.9910  -51.4370 N.3   162  ASP162     -0.1239
     13  CA        10.4000  -86.4600  -52.7700 C.3   162  ASP162      0.1674
     14  C         11.6100  -87.1030  -53.4250 C.2   162  ASP162      0.2266
     15  O         12.4050  -86.4300  -54.0770 O.2   162  ASP162     -0.2867
     16  CB         9.8980  -85.3040  -53.6400 C.3   162  ASP162      0.1410
     17  CG         9.2910  -85.7840  -54.9610 C.2   162  ASP162      0.3668
     18  OD1        9.3740  -86.9990  -55.2610 O.co2 162  ASP162     -0.2456
     19  OD2        8.7420  -84.9410  -55.7030 O.co2 162  ASP162     -0.2456
     20  N         12.4830  -86.7920  -57.2280 N.3   165  ASP165     -0.1225
     21  CA        12.7740  -85.4700  -57.7840 C.3   165  ASP165      0.1805
     22  C         14.2220  -85.0430  -57.5290 C.2   165  ASP165      0.2598
     23  O         14.5430  -83.8660  -57.6260 O.2   165  ASP165     -0.2718
     24  CB        11.7770  -84.4400  -57.2390 C.3   165  ASP165      0.1424
     25  CG        11.6940  -83.1570  -58.0930 C.2   165  ASP165      0.3668
     26  OD1       11.9760  -83.1970  -59.3150 O.co2 165  ASP165     -0.2456
     27  OD2       11.3430  -82.1020  -57.5280 O.co2 165  ASP165     -0.2456
     28  N         15.1020  -85.9970  -57.2290 N.am  166  PHE166     -0.1962
     29  CA        16.4980  -85.6530  -56.9590 C.3   166  PHE166      0.1771
     30  C         17.1780  -85.2340  -58.2590 C.2   166  PHE166      0.2620
     31  O         16.7690  -85.6640  -59.3510 O.2   166  PHE166     -0.2715
     32  CB        17.2670  -86.8300  -56.3410 C.3   166  PHE166      0.0574
     33  CG        16.8690  -87.1590  -54.9190 C.ar  166  PHE166     -0.0200
     34  CD1       16.1650  -86.2450  -54.1320 C.ar  166  PHE166     -0.0042
     35  CD2       17.2240  -88.3890  -54.3630 C.ar  166  PHE166     -0.0042
     36  CE1       15.8110  -86.5720  -52.8060 C.ar  166  PHE166     -0.0003
     37  CE2       16.8820  -88.7090  -53.0570 C.ar  166  PHE166     -0.0003
     38  CZ        16.1760  -87.8060  -52.2790 C.ar  166  PHE166     -0.0000
     39  N         18.2130  -84.4030  -58.1540 N.am  167  ASP167     -0.1957
     40  CA        19.0400  -84.0940  -59.3310 C.3   167  ASP167      0.1840
     41  C         19.6650  -85.3540  -59.9320 C.2   167  ASP167      0.2622
     42  O         19.8390  -86.3660  -59.2540 O.2   167  ASP167     -0.2715
     43  CB        20.1380  -83.0850  -59.0010 C.3   167  ASP167      0.1450
     44  CG        19.5820  -81.7580  -58.5110 C.2   167  ASP167      0.3671
     45  OD1       18.5010  -81.3390  -58.9860 O.co2 167  ASP167     -0.2456
     46  OD2       20.2260  -81.1380  -57.6390 O.co2 167  ASP167     -0.2456
     47  N         20.0100  -85.2750  -61.2140 N.am  168  ASP168     -0.1971
     48  CA        20.5260  -86.4240  -61.9560 C.3   168  ASP168      0.1709
     49  C         21.6660  -87.1600  -61.2620 C.2   168  ASP168      0.2293
     50  O         21.6890  -88.3870  -61.2340 O.2   168  ASP168     -0.2864
     51  CB        20.9960  -85.9790  -63.3460 C.3   168  ASP168      0.1436
     52  CG        21.5570  -87.1250  -64.1500 C.2   168  ASP168      0.3671
     53  OD1       20.7620  -88.0100  -64.5360 O.co2 168  ASP168     -0.2456
     54  OD2       22.7870  -87.1490  -64.3810 O.co2 168  ASP168     -0.2456
     55  N         14.0380  -69.7920  -52.3980 N.3   198  ASP198     -0.1239
     56  CA        13.6380  -70.6080  -53.5550 C.3   198  ASP198      0.1674
     57  C         13.7400  -69.7570  -54.8120 C.2   198  ASP198      0.2266
     58  O         12.7410  -69.4940  -55.4990 O.2   198  ASP198     -0.2867
     59  CB        12.2180  -71.1660  -53.3950 C.3   198  ASP198      0.1410
     60  CG        11.9210  -72.3030  -54.3840 C.2   198  ASP198      0.3668
     61  OD1       12.8310  -72.6990  -55.1370 O.co2 198  ASP198     -0.2456
     62  OD2       10.7860  -72.8180  -54.4080 O.co2 198  ASP198     -0.2456
     63  N         14.1560  -69.6440  -57.9200 N.3   200  SER200     -0.1217
     64  CA        14.1000  -70.4510  -59.1360 C.3   200  SER200      0.1889
     65  C         13.5170  -69.6440  -60.2920 C.2   200  SER200      0.2288
     66  O         12.9500  -68.5720  -60.0950 O.2   200  SER200     -0.2866
     67  CB        13.2260  -71.6800  -58.9100 C.3   200  SER200      0.2089
     68  OG        11.8790  -71.2670  -58.7410 O.3   200  SER200     -0.2183
     69  N         10.9170  -70.1450  -61.7880 N.3   202  ASP202     -0.1225
     70  CA         9.4640  -70.0350  -61.6740 C.3   202  ASP202      0.1805
     71  C          9.0400  -68.8950  -60.7530 C.2   202  ASP202      0.2597
     72  O          7.8690  -68.4960  -60.7620 O.2   202  ASP202     -0.2718
     73  CB         8.8540  -71.3480  -61.1630 C.3   202  ASP202      0.1424
     74  CG         8.9970  -72.4910  -62.1610 C.2   202  ASP202      0.3668
     75  OD1        9.1010  -72.2250  -63.3810 O.co2 202  ASP202     -0.2456
     76  OD2        8.9990  -73.6590  -61.7190 O.co2 202  ASP202     -0.2456
     77  N          9.9660  -68.3880  -59.9350 N.am  203  ASN203     -0.1974
     78  CA         9.5890  -67.3790  -58.9380 C.3   203  ASN203      0.1688
     79  C         10.0290  -65.9530  -59.2530 C.2   203  ASN203      0.2292
     80  O          9.9730  -65.0830  -58.3870 O.2   203  ASN203     -0.2864
     81  CB        10.0480  -67.7890  -57.5270 C.3   203  ASN203      0.1181
     82  CG         9.3100  -69.0010  -57.0130 C.2   203  ASN203      0.2629
     83  OD1        8.1520  -69.2310  -57.3700 O.2   203  ASN203     -0.2716
     84  ND2        9.9710  -69.7840  -56.1650 N.am  203  ASN203     -0.0877
     85  N          6.5810  -65.9870  -54.0350 N.3   216  ASP216     -0.1239
     86  CA         6.8060  -67.2130  -53.2610 C.3   216  ASP216      0.1674
     87  C          7.9530  -67.0100  -52.2600 C.2   216  ASP216      0.2266
     88  O          8.9820  -67.6880  -52.3300 O.2   216  ASP216     -0.2867
     89  CB         7.0910  -68.3910  -54.2070 C.3   216  ASP216      0.1410
     90  CG         7.0490  -69.7480  -53.5060 C.2   216  ASP216      0.3668
     91  OD1        6.1980  -69.9410  -52.6110 O.co2 216  ASP216     -0.2456
     92  OD2        7.8630  -70.6320  -53.8640 O.co2 216  ASP216     -0.2456
     93  N         21.0240  -74.3420  -60.6820 N.3   234  ASN234     -0.1225
     94  CA        20.4280  -75.6330  -61.0080 C.3   234  ASN234      0.1785
     95  C         19.3990  -75.4610  -62.1270 C.2   234  ASN234      0.2597
     96  O         19.4460  -76.1810  -63.1250 O.2   234  ASN234     -0.2718
     97  CB        19.7730  -76.2570  -59.7670 C.3   234  ASN234      0.1169
     98  CG        19.6710  -77.7730  -59.8620 C.2   234  ASN234      0.2627
     99  OD1       20.4120  -78.4110  -60.6040 O.2   234  ASN234     -0.2716
    100  ND2       18.7640  -78.3510  -59.1020 N.am  234  ASN234     -0.0877
    101  N         18.4920  -74.4940  -61.9680 N.am  235  CYS235     -0.1970
    102  CA        17.4680  -74.2210  -62.9760 C.3   235  CYS235      0.1712
    103  C         18.0560  -73.9170  -64.3660 C.2   235  CYS235      0.2296
    104  O         17.5000  -74.3200  -65.3830 O.2   235  CYS235     -0.2864
    105  CB        16.6100  -73.0330  -62.5580 C.3   235  CYS235      0.0983
    106  SG        15.4890  -73.4180  -61.2040 S.3   235  CYS235     -0.0798
    107  N         18.7950  -76.4800  -67.3070 N.3   238  GLU238     -0.1245
    108  CA        17.8570  -76.8970  -68.3530 C.3   238  GLU238      0.1567
    109  C         18.1130  -76.1080  -69.6340 C.2   238  GLU238      0.2260
    110  O         17.5240  -76.3840  -70.6670 O.2   238  GLU238     -0.2867
    111  CB        16.4130  -76.6750  -67.9320 C.3   238  GLU238      0.0388
    112  CG        15.8500  -77.7730  -67.0640 C.3   238  GLU238      0.1160
    113  CD        16.1660  -77.5400  -65.6100 C.2   238  GLU238      0.3649
    114  OE1       15.3730  -76.8580  -64.9320 O.co2 238  GLU238     -0.2457
    115  OE2       17.2130  -78.0220  -65.1470 O.co2 238  GLU238     -0.2457
    116  N         22.6440  -77.5680  -53.1370 N.3   265  LEU265     -0.1245
    117  CA        21.9080  -78.4440  -54.0500 C.3   265  LEU265      0.1561
    118  C         21.3980  -79.6810  -53.3130 C.2   265  LEU265      0.2260
    119  O         20.2540  -80.0950  -53.4920 O.2   265  LEU265     -0.2867
    120  CB        22.7880  -78.8860  -55.2210 C.3   265  LEU265      0.0270
    121  CG        23.1790  -77.7500  -56.1630 C.3   265  LEU265      0.0019
    122  CD1       24.2520  -78.2160  -57.1640 C.3   265  LEU265      0.0001
    123  CD2       21.9350  -77.2720  -56.8690 C.3   265  LEU265      0.0001
    124  N         18.5640  -78.8010  -50.7940 N.3   268  ASP268     -0.1225
    125  CA        17.2840  -78.5870  -51.4610 C.3   268  ASP268      0.1805
    126  C         16.5690  -79.8930  -51.8480 C.2   268  ASP268      0.2597
    127  O         15.3600  -79.8840  -52.0850 O.2   268  ASP268     -0.2718
    128  CB        17.4300  -77.6980  -52.7070 C.3   268  ASP268      0.1424
    129  CG        16.1170  -77.0260  -53.0910 C.2   268  ASP268      0.3668
    130  OD1       15.3680  -76.5820  -52.1840 O.co2 268  ASP268     -0.2456
    131  OD2       15.8200  -76.9400  -54.2950 O.co2 268  ASP268     -0.2456
    132  N         17.2980  -81.0050  -51.8990 N.am  269  GLU269     -0.1979
    133  CA        16.6670  -82.2900  -52.2130 C.3   269  GLU269      0.1602
    134  C         15.6180  -82.6490  -51.1640 C.2   269  GLU269      0.2287
    135  O         14.6800  -83.3780  -51.4500 O.2   269  GLU269     -0.2864
    136  CB        17.6930  -83.4250  -52.3030 C.3   269  GLU269      0.0415
    137  CG        18.8400  -83.2210  -53.2950 C.3   269  GLU269      0.1163
    138  CD        18.4160  -83.3440  -54.7470 C.2   269  GLU269      0.3649
    139  OE1       17.2580  -82.9950  -55.0710 O.co2 269  GLU269     -0.2457
    140  OE2       19.2490  -83.7880  -55.5770 O.co2 269  GLU269     -0.2457
    141  N         13.5050  -80.6660  -49.7040 N.3   271  PHE271     -0.1241
    142  CA        12.3920  -79.7250  -49.6390 C.3   271  PHE271      0.1605
    143  C         11.4580  -79.7560  -50.8420 C.2   271  PHE271      0.2264
    144  O         10.5850  -78.8950  -50.9870 O.2   271  PHE271     -0.2867
    145  CB        12.9170  -78.3210  -49.3570 C.3   271  PHE271      0.0534
    146  CG        13.5780  -78.2130  -48.0230 C.ar  271  PHE271     -0.0203
    147  CD1       12.8090  -78.1980  -46.8720 C.ar  271  PHE271     -0.0042
    148  CD2       14.9580  -78.1820  -47.9150 C.ar  271  PHE271     -0.0042
    149  CE1       13.4100  -78.1270  -45.6260 C.ar  271  PHE271     -0.0003
    150  CE2       15.5660  -78.1060  -46.6740 C.ar  271  PHE271     -0.0003
    151  CZ        14.7870  -78.0800  -45.5320 C.ar  271  PHE271     -0.0000
@<TRIPOS>BOND
     1   110   109    2
     2   109   108    1
     3   108   111    1
     4   108   107    1
     5   111   112    1
     6   112   113    1
     7   113   115   ar
     8   113   114   ar
     9   104   103    2
    10    53    52   ar
    11    54    52   ar
    12   103   102    1
    13    52    51    1
    14    75    74   ar
    15    51    48    1
    16    96    95    2
    17   102   105    1
    18   102   101    1
    19   105   106    1
    20    74    76   ar
    21    74    73    1
    22    95   101   am
    23    95    94    1
    24    48    49    1
    25    48    47    1
    26    69    70    1
    27    70    73    1
    28    70    71    1
    29    49    50    2
    30    47    41   am
    31    94    93    1
    32    94    97    1
    33    72    71    2
    34    71    77   am
    35    99    98    2
    36    65    66    2
    37    65    64    1
    38    77    78    1
    39    41    40    1
    40    41    42    2
    41    98    97    1
    42    98   100   am
    43    31    30    2
    44    40    43    1
    45    40    39    1
    46    26    25   ar
    47    79    78    1
    48    79    80    2
    49    64    67    1
    50    64    63    1
    51    43    44    1
    52    45    44   ar
    53    78    81    1
    54    67    68    1
    55    44    46   ar
    56    30    39   am
    57    30    29    1
    58    25    27   ar
    59    25    24    1
    60    21    22    1
    61    21    24    1
    62    21    20    1
    63    23    22    2
    64    22    28   am
    65    81    82    1
    66    83    82    2
    67    28    29    1
    68   122   121    1
    69    82    84   am
    70    29    32    1
    71   123   121    1
    72    32    33    1
    73   121   120    1
    74    19    17   ar
    75   140   138   ar
    76    58    57    2
    77    18    17   ar
    78   120   117    1
    79    61    60   ar
    80   139   138   ar
    81    17    16    1
    82    33    35   ar
    83    33    34   ar
    84    57    56    1
    85   138   137    1
    86    62    60   ar
    87    60    59    1
    88    35    37   ar
    89   131   129   ar
    90    89    90    1
    91    89    86    1
    92    34    36   ar
    93    15    14    2
    94   117   118    1
    95   117   116    1
    96    85    86    1
    97    92    90   ar
    98    16    13    1
    99    56    59    1
   100    56    55    1
   101    90    91   ar
   102   119   118    2
   103    14    13    1
   104   137   136    1
   105    86    87    1
   106   129   128    1
   107   129   130   ar
   108    37    38   ar
   109    36    38   ar
   110    13    12    1
   111   128   125    1
   112    88    87    2
   113   136   133    1
   114   133   132    1
   115   133   134    1
   116   127   126    2
   117   132   126   am
   118   126   125    1
   119   125   124    1
   120   135   134    2
   121   144   143    2
   122   143   142    1
   123   141   142    1
   124   142   145    1
   125   145   146    1
   126    11     9    1
   127   146   148   ar
   128   146   147   ar
   129   148   150   ar
   130    10     9    1
   131     9     8    2
   132   147   149   ar
   133   150   151   ar
   134     8     7    1
   135     7     6    1
   136   149   151   ar
   137     5     6    1
   138     5     2    1
   139     4     3    2
   140     3     2    1
   141     2     1    1
