@<TRIPOS>MOLECULE
tmp/4fevD01.pdb
 156 147 0 0 0
SMALL
GASTEIGER

@<TRIPOS>ATOM
      1  N         -5.7790  -71.5900  -59.7270 N.3    31  ASP31      -0.1225
      2  CA        -4.4910  -71.6270  -60.4030 C.3    31  ASP31       0.1805
      3  C         -3.8900  -73.0260  -60.3990 C.2    31  ASP31       0.2597
      4  O         -3.6180  -73.6050  -61.4560 O.2    31  ASP31      -0.2718
      5  CB        -3.5240  -70.6440  -59.7310 C.3    31  ASP31       0.1424
      6  CG        -2.4040  -70.1950  -60.6550 C.2    31  ASP31       0.3668
      7  OD1       -2.6620  -70.0300  -61.8690 O.co2  31  ASP31      -0.2456
      8  OD2       -1.2670  -70.0040  -60.1650 O.co2  31  ASP31      -0.2456
      9  N         -3.6990  -73.5730  -59.2030 N.am   32  ASN32      -0.1974
     10  CA        -2.8590  -74.7540  -59.0390 C.3    32  ASN32       0.1688
     11  C         -3.5760  -76.0770  -58.7920 C.2    32  ASN32       0.2292
     12  O         -3.2680  -76.7780  -57.8310 O.2    32  ASN32      -0.2864
     13  CB        -1.8320  -74.5150  -57.9280 C.3    32  ASN32       0.1181
     14  CG        -0.9140  -73.3470  -58.2280 C.2    32  ASN32       0.2629
     15  OD1       -0.9630  -72.7630  -59.3140 O.2    32  ASN32      -0.2716
     16  ND2       -0.0580  -73.0070  -57.2690 N.am   32  ASN32      -0.0877
     17  N         -4.8060  -72.1120  -54.3820 N.3    40  ILE40      -0.1245
     18  CA        -4.5300  -70.8170  -54.9900 C.3    40  ILE40       0.1561
     19  C         -5.6110  -70.4140  -55.9830 C.2    40  ILE40       0.2260
     20  O         -5.9560  -71.1720  -56.8940 O.2    40  ILE40      -0.2867
     21  CB        -3.1380  -70.7900  -55.6640 C.3    40  ILE40       0.0252
     22  CG1       -2.0530  -71.0790  -54.6250 C.3    40  ILE40       0.0019
     23  CG2       -2.8950  -69.4570  -56.3640 C.3    40  ILE40       0.0019
     24  CD1       -0.6630  -70.6650  -55.0470 C.3    40  ILE40       0.0001
     25  N         -4.3350  -62.5540  -56.3490 N.3    53  PHE53      -0.1227
     26  CA        -4.1760  -63.9580  -56.0160 C.3    53  PHE53       0.1736
     27  C         -4.6350  -64.1610  -54.5850 C.2    53  PHE53       0.2595
     28  O         -4.3410  -63.3490  -53.7090 O.2    53  PHE53      -0.2718
     29  CB        -2.7160  -64.4000  -56.1680 C.3    53  PHE53       0.0547
     30  CG        -2.3210  -64.6980  -57.5860 C.ar   53  PHE53      -0.0202
     31  CD1       -2.6170  -65.9290  -58.1550 C.ar   53  PHE53      -0.0042
     32  CD2       -1.6600  -63.7560  -58.3490 C.ar   53  PHE53      -0.0042
     33  CE1       -2.2620  -66.2150  -59.4630 C.ar   53  PHE53      -0.0003
     34  CE2       -1.3000  -64.0370  -59.6710 C.ar   53  PHE53      -0.0003
     35  CZ        -1.6040  -65.2660  -60.2220 C.ar   53  PHE53      -0.0000
     36  N         -5.3650  -65.2430  -54.3590 N.am   54  LEU54      -0.1966
     37  CA        -5.7970  -65.5960  -53.0200 C.3    54  LEU54       0.1728
     38  C         -5.2760  -66.9880  -52.6640 C.2    54  LEU54       0.2616
     39  O         -5.5350  -67.9670  -53.3750 O.2    54  LEU54      -0.2715
     40  CB        -7.3190  -65.5340  -52.9150 C.3    54  LEU54       0.0311
     41  CG        -7.9290  -65.9160  -51.5640 C.3    54  LEU54       0.0022
     42  CD1       -7.5780  -64.9000  -50.4880 C.3    54  LEU54       0.0001
     43  CD2       -9.4320  -66.0630  -51.6980 C.3    54  LEU54       0.0001
     44  N         -4.5330  -67.0490  -51.5640 N.am   55  LYS55      -0.1977
     45  CA        -3.9410  -68.2730  -51.0700 C.3    55  LYS55       0.1596
     46  C         -4.6940  -68.7180  -49.8140 C.2    55  LYS55       0.2287
     47  O         -4.8780  -67.9310  -48.8930 O.2    55  LYS55      -0.2864
     48  CB        -2.4790  -68.0060  -50.7340 C.3    55  LYS55       0.0298
     49  CG        -1.5110  -69.0630  -51.1860 C.3    55  LYS55       0.0038
     50  CD        -0.1210  -68.4720  -51.3120 C.3    55  LYS55       0.0206
     51  CE         0.9130  -69.5410  -51.5780 C.3    55  LYS55       0.1093
     52  NZ         2.2290  -68.9360  -51.9050 N.3    55  LYS55      -0.1314
     53  N          4.6890  -66.8630  -45.3110 N.3    68  GLU68      -0.1245
     54  CA         4.8320  -66.0480  -46.5210 C.3    68  GLU68       0.1567
     55  C          4.3330  -64.6210  -46.3070 C.2    68  GLU68       0.2260
     56  O          4.9810  -63.6580  -46.7210 O.2    68  GLU68      -0.2867
     57  CB         4.1330  -66.6550  -47.7390 C.3    68  GLU68       0.0388
     58  CG         4.1260  -65.6390  -48.8930 C.3    68  GLU68       0.1160
     59  CD         3.8040  -66.2210  -50.2570 C.2    68  GLU68       0.3649
     60  OE1        2.9780  -67.1540  -50.3350 O.co2  68  GLU68      -0.2457
     61  OE2        4.3780  -65.7220  -51.2550 O.co2  68  GLU68      -0.2457
     62  N          4.6680  -58.8630  -54.5370 N.3    82  PRO82      -0.2116
     63  CA         3.2140  -58.6690  -54.4920 C.3    82  PRO82       0.1372
     64  C          2.8220  -57.9040  -53.2250 C.2    82  PRO82       0.2244
     65  O          3.4230  -58.1240  -52.1820 O.2    82  PRO82      -0.2868
     66  CB         2.6690  -60.0960  -54.4200 C.3    82  PRO82       0.0268
     67  CG         3.7700  -60.9560  -54.9790 C.3    82  PRO82       0.0207
     68  CD         5.0360  -60.2920  -54.5610 C.3    82  PRO82       0.0892
     69  N         -3.3310  -61.0700  -52.2760 N.3    98  THR98      -0.1203
     70  CA        -2.2600  -60.2060  -52.7660 C.3    98  THR98       0.1994
     71  C         -2.5180  -59.7530  -54.2000 C.2    98  THR98       0.2619
     72  O         -3.2650  -60.3890  -54.9420 O.2    98  THR98      -0.2717
     73  CB        -0.8680  -60.9010  -52.7370 C.3    98  THR98       0.1784
     74  OG1       -0.8670  -62.0320  -53.6260 O.3    98  THR98      -0.2211
     75  CG2       -0.4990  -61.3510  -51.3230 C.3    98  THR98       0.0376
     76  N         -1.8870  -58.6470  -54.5760 N.am   99  THR99      -0.1938
     77  CA        -2.0010  -58.1310  -55.9340 C.3    99  THR99       0.2028
     78  C         -1.1000  -58.9500  -56.8380 C.2    99  THR99       0.2642
     79  O         -0.0070  -59.3510  -56.4410 O.2    99  THR99      -0.2714
     80  CB        -1.5410  -56.6770  -56.0220 C.3    99  THR99       0.1808
     81  OG1       -0.1580  -56.6090  -55.6590 O.3    99  THR99      -0.2208
     82  CG2       -2.3590  -55.7860  -55.0880 C.3    99  THR99       0.0379
     83  N         -1.5480  -59.1830  -58.0610 N.am  100  ALA100     -0.1963
     84  CA        -0.7660  -59.9650  -59.0040 C.3   100  ALA100      0.1728
     85  C          0.3390  -59.1120  -59.6070 C.2   100  ALA100      0.2616
     86  O          0.1310  -57.9380  -59.9040 O.2   100  ALA100     -0.2715
     87  CB        -1.6570  -60.5090  -60.0900 C.3   100  ALA100      0.0334
     88  N          1.5210  -59.6950  -59.7660 N.am  101  ILE101     -0.1977
     89  CA         2.5580  -59.0620  -60.5700 C.3   101  ILE101      0.1596
     90  C          2.3610  -59.4960  -62.0140 C.2   101  ILE101      0.2287
     91  O          2.4690  -60.6820  -62.3310 O.2   101  ILE101     -0.2864
     92  CB         3.9750  -59.4480  -60.1070 C.3   101  ILE101      0.0276
     93  CG1        4.1780  -59.0830  -58.6370 C.3   101  ILE101      0.0022
     94  CG2        5.0160  -58.7340  -60.9510 C.3   101  ILE101      0.0022
     95  CD1        5.6060  -59.2070  -58.1840 C.3   101  ILE101      0.0001
     96  N          2.8720  -60.3590  -65.8990 N.3   103  GLY103     -0.1210
     97  CA         3.9930  -60.8650  -66.6620 C.3   103  GLY103      0.1956
     98  C          4.1070  -62.3790  -66.6960 C.2   103  GLY103      0.2612
     99  O          3.1780  -63.1050  -66.3300 O.2   103  GLY103     -0.2717
    100  N          5.2610  -62.8490  -67.1530 N.am  104  LYS104     -0.1965
    101  CA         5.5250  -64.2720  -67.2960 C.3   104  LYS104      0.1728
    102  C          6.7150  -64.6050  -66.4200 C.2   104  LYS104      0.2616
    103  O          7.5080  -63.7200  -66.0900 O.2   104  LYS104     -0.2715
    104  CB         5.8770  -64.5990  -68.7520 C.3   104  LYS104      0.0311
    105  CG         4.7810  -64.2960  -69.7620 C.3   104  LYS104      0.0038
    106  CD         5.3080  -64.4760  -71.1870 C.3   104  LYS104      0.0206
    107  CE         4.3160  -63.9650  -72.2160 C.3   104  LYS104      0.1093
    108  NZ         5.0110  -63.2990  -73.3580 N.3   104  LYS104     -0.1314
    109  N          6.8620  -65.8730  -66.0520 N.am  105  THR105     -0.1951
    110  CA         8.0110  -66.2760  -65.2490 C.3   105  THR105      0.1897
    111  C          9.2790  -66.2080  -66.1010 C.2   105  THR105      0.2313
    112  O          9.2090  -66.1810  -67.3350 O.2   105  THR105     -0.2863
    113  CB         7.8590  -67.7170  -64.7320 C.3   105  THR105      0.1794
    114  OG1        7.9250  -68.6270  -65.8400 O.3   105  THR105     -0.2208
    115  CG2        6.5190  -67.8860  -64.0020 C.3   105  THR105      0.0378
    116  N          9.3480  -69.0530  -68.5240 N.3   108  GLN108     -0.1245
    117  CA         8.5550  -68.8230  -69.7220 C.3   108  GLN108      0.1566
    118  C          9.2660  -67.8850  -70.6890 C.2   108  GLN108      0.2260
    119  O          9.2370  -68.1080  -71.8940 O.2   108  GLN108     -0.2867
    120  CB         7.1870  -68.2510  -69.3650 C.3   108  GLN108      0.0367
    121  CG         6.2650  -69.2480  -68.6600 C.3   108  GLN108      0.0905
    122  CD         5.0030  -68.5890  -68.1290 C.2   108  GLN108      0.2608
    123  OE1        5.0680  -67.5760  -67.4310 O.2   108  GLN108     -0.2717
    124  NE2        3.8460  -69.1600  -68.4580 N.am  108  GLN108     -0.0878
    125  N         10.9170  -70.1450  -61.7880 N.3   202  ASP202     -0.1239
    126  CA         9.4640  -70.0350  -61.6740 C.3   202  ASP202      0.1674
    127  C          9.0400  -68.8950  -60.7530 C.2   202  ASP202      0.2266
    128  O          7.8690  -68.4960  -60.7620 O.2   202  ASP202     -0.2867
    129  CB         8.8540  -71.3480  -61.1630 C.3   202  ASP202      0.1410
    130  CG         8.9970  -72.4910  -62.1610 C.2   202  ASP202      0.3668
    131  OD1        9.1010  -72.2250  -63.3810 O.co2 202  ASP202     -0.2456
    132  OD2        8.9990  -73.6590  -61.7190 O.co2 202  ASP202     -0.2456
    133  N          9.5120  -62.7500  -62.0390 N.3   205  ILE205     -0.1245
    134  CA         8.5180  -62.3590  -63.0260 C.3   205  ILE205      0.1561
    135  C          9.0410  -61.2270  -63.9030 C.2   205  ILE205      0.2260
    136  O          9.5370  -60.2150  -63.3990 O.2   205  ILE205     -0.2867
    137  CB         7.1930  -61.9440  -62.3650 C.3   205  ILE205      0.0252
    138  CG1        6.7310  -63.0240  -61.3700 C.3   205  ILE205      0.0019
    139  CG2        6.1230  -61.6380  -63.4270 C.3   205  ILE205      0.0019
    140  CD1        6.5790  -64.4000  -61.9940 C.3   205  ILE205      0.0001
    141  N          8.2950  -63.7530  -56.3720 N.3   215  ILE215     -0.1231
    142  CA         7.1230  -64.2550  -55.6530 C.3   215  ILE215      0.1692
    143  C          7.5280  -65.4510  -54.8100 C.2   215  ILE215      0.2592
    144  O          8.6890  -65.8680  -54.8560 O.2   215  ILE215     -0.2718
    145  CB         6.0160  -64.7030  -56.6330 C.3   215  ILE215      0.0266
    146  CG1        6.5230  -65.8600  -57.5100 C.3   215  ILE215      0.0019
    147  CG2        5.5540  -63.5100  -57.4880 C.3   215  ILE215      0.0020
    148  CD1        5.5120  -66.3800  -58.5150 C.3   215  ILE215      0.0001
    149  N          6.5810  -65.9870  -54.0350 N.am  216  ASP216     -0.1974
    150  CA         6.8060  -67.2130  -53.2610 C.3   216  ASP216      0.1709
    151  C          7.9530  -67.0100  -52.2600 C.2   216  ASP216      0.2293
    152  O          8.9820  -67.6880  -52.3300 O.2   216  ASP216     -0.2864
    153  CB         7.0910  -68.3910  -54.2070 C.3   216  ASP216      0.1436
    154  CG         7.0490  -69.7480  -53.5060 C.2   216  ASP216      0.3671
    155  OD1        6.1980  -69.9410  -52.6110 O.co2 216  ASP216     -0.2456
    156  OD2        7.8630  -70.6320  -53.8640 O.co2 216  ASP216     -0.2456
@<TRIPOS>BOND
     1   108   107    1
     2   107   106    1
     3   119   118    2
     4   106   105    1
     5   118   117    1
     6   105   104    1
     7   117   120    1
     8   117   116    1
     9   120   121    1
    10   104   101    1
    11   121   122    1
    12   124   122   am
    13   122   123    2
    14   112   111    2
    15   101   100    1
    16   101   102    1
    17   100    98   am
    18    98    97    1
    19    98    99    2
    20    97    96    1
    21   102   103    2
    22   102   109   am
    23   111   110    1
    24   109   110    1
    25   114   113    1
    26   110   113    1
    27   113   115    1
    28   135   136    2
    29   135   134    1
    30   139   137    1
    31   131   130   ar
    32   134   137    1
    33   134   133    1
    34   137   138    1
    35    91    90    2
    36   130   132   ar
    37   130   129    1
    38    90    89    1
    39   140   138    1
    40     7     6   ar
    41   125   126    1
    42   126   129    1
    43   126   127    1
    44     4     3    2
    45    94    92    1
    46   128   127    2
    47     6     8   ar
    48     6     5    1
    49    89    92    1
    50    89    88    1
    51     2     3    1
    52     2     5    1
    53     2     1    1
    54     3     9   am
    55    35    34   ar
    56    35    33   ar
    57    92    93    1
    58    87    84    1
    59    86    85    2
    60    88    85   am
    61    34    32   ar
    62    85    84    1
    63    33    31   ar
    64    15    14    2
    65     9    10    1
    66    10    11    1
    67    10    13    1
    68    84    83    1
    69    11    12    2
    70    93    95    1
    71   148   146    1
    72    32    30   ar
    73    14    13    1
    74    14    16   am
    75    31    30   ar
    76    83    78   am
    77    30    29    1
    78   146   145    1
    79   147   145    1
    80    20    19    2
    81    78    79    2
    82    78    77    1
    83   145   142    1
    84   141   142    1
    85    23    21    1
    86    25    26    1
    87    29    26    1
    88    80    77    1
    89    80    81    1
    90    80    82    1
    91    26    27    1
    92    19    18    1
    93    77    76    1
    94    21    18    1
    95    21    22    1
    96   142   143    1
    97    24    22    1
    98    18    17    1
    99    67    68    1
   100    67    66    1
   101    72    71    2
   102   144   143    2
   103   143   149   am
   104    27    36   am
   105    27    28    2
   106    76    71   am
   107    68    62    1
   108    62    63    1
   109    63    66    1
   110    63    64    1
   111    36    37    1
   112   153   154    1
   113   153   150    1
   114    71    70    1
   115   149   150    1
   116   156   154   ar
   117    74    73    1
   118   154   155   ar
   119    39    38    2
   120   150   151    1
   121    64    65    2
   122    37    40    1
   123    37    38    1
   124    40    41    1
   125    70    73    1
   126    70    69    1
   127    73    75    1
   128    38    44   am
   129   152   151    2
   130    52    51    1
   131    43    41    1
   132    51    50    1
   133    44    45    1
   134    41    42    1
   135    50    49    1
   136    61    59   ar
   137    49    48    1
   138    45    48    1
   139    45    46    1
   140    60    59   ar
   141    59    58    1
   142    46    47    2
   143    58    57    1
   144    57    54    1
   145    56    55    2
   146    54    55    1
   147    54    53    1
