@<TRIPOS>MOLECULE
tmp/4fexD01.pdb
 170 160 0 0 0
SMALL
GASTEIGER

@<TRIPOS>ATOM
      1  N        -23.2300 -100.0350  -32.8690 N.3    13  ASP13      -0.1239
      2  CA       -22.0310  -99.8420  -33.6700 C.3    13  ASP13       0.1674
      3  C        -21.0100 -100.8160  -33.1330 C.2    13  ASP13       0.2266
      4  O        -21.2850 -101.5460  -32.1860 O.2    13  ASP13      -0.2867
      5  CB       -21.5000  -98.4140  -33.5510 C.3    13  ASP13       0.1410
      6  CG       -21.9670  -97.5110  -34.6880 C.2    13  ASP13       0.3668
      7  OD1      -23.1120  -97.7040  -35.1680 O.co2  13  ASP13      -0.2456
      8  OD2      -21.1880  -96.6110  -35.0990 O.co2  13  ASP13      -0.2456
      9  N        -20.5770  -99.6620  -28.0290 N.3    22  ILE22      -0.1245
     10  CA       -21.0400  -98.3490  -28.4740 C.3    22  ILE22       0.1561
     11  C        -22.4170  -98.4040  -29.1130 C.2    22  ILE22       0.2260
     12  O        -22.6640  -99.2070  -30.0070 O.2    22  ILE22      -0.2867
     13  CB       -20.0810  -97.7220  -29.4810 C.3    22  ILE22       0.0252
     14  CG1      -18.6800  -97.6090  -28.8800 C.3    22  ILE22       0.0019
     15  CG2      -20.6000  -96.3610  -29.9090 C.3    22  ILE22       0.0019
     16  CD1      -17.7170  -96.7810  -29.7180 C.3    22  ILE22       0.0001
     17  N        -24.3440  -90.7340  -29.4420 N.3    35  PHE35      -0.1241
     18  CA       -23.5740  -91.9460  -29.1780 C.3    35  PHE35       0.1605
     19  C        -23.5290  -92.2540  -27.6970 C.2    35  PHE35       0.2264
     20  O        -23.1820  -91.4020  -26.8780 O.2    35  PHE35      -0.2867
     21  CB       -22.1700  -91.8690  -29.7810 C.3    35  PHE35       0.0534
     22  CG       -22.1490  -92.0860  -31.2650 C.ar   35  PHE35      -0.0203
     23  CD1      -22.1720  -93.3710  -31.7940 C.ar   35  PHE35      -0.0042
     24  CD2      -22.1430  -91.0060  -32.1410 C.ar   35  PHE35      -0.0042
     25  CE1      -22.1730  -93.5850  -33.1760 C.ar   35  PHE35      -0.0003
     26  CE2      -22.1450  -91.2070  -33.5270 C.ar   35  PHE35      -0.0003
     27  CZ       -22.1560  -92.4990  -34.0420 C.ar   35  PHE35      -0.0000
     28  N        -21.6070  -94.7640  -25.2170 N.3    37  LYS37      -0.1245
     29  CA       -20.5200  -95.6810  -24.9830 C.3    37  LYS37       0.1561
     30  C        -20.7470  -96.2480  -23.5920 C.2    37  LYS37       0.2260
     31  O        -21.1560  -95.5360  -22.6890 O.2    37  LYS37      -0.2867
     32  CB       -19.2020  -94.9200  -25.0590 C.3    37  LYS37       0.0271
     33  CG       -17.9570  -95.7790  -25.1070 C.3    37  LYS37       0.0035
     34  CD       -16.9560  -95.1670  -26.0770 C.3    37  LYS37       0.0206
     35  CE       -15.6290  -95.9060  -26.0830 C.3    37  LYS37       0.1093
     36  NZ       -14.6810  -95.3600  -27.0910 N.3    37  LYS37      -0.1314
     37  N        -11.7470  -91.4270  -21.3260 N.3    50  GLU50      -0.1245
     38  CA       -12.3040  -90.7530  -22.4970 C.3    50  GLU50       0.1567
     39  C        -13.0000  -89.4810  -22.0450 C.2    50  GLU50       0.2260
     40  O        -12.7580  -88.3950  -22.5720 O.2    50  GLU50      -0.2867
     41  CB       -13.3120  -91.6530  -23.2320 C.3    50  GLU50       0.0388
     42  CG       -12.9120  -92.0340  -24.6690 C.3    50  GLU50       0.1160
     43  CD       -14.0390  -91.8290  -25.6950 C.2    50  GLU50       0.3649
     44  OE1      -15.0650  -92.5450  -25.6100 O.co2  50  GLU50      -0.2457
     45  OE2      -13.8880  -90.9560  -26.5930 O.co2  50  GLU50      -0.2457
     46  N        -12.1280  -85.7410  -23.2580 N.3    54  LEU54      -0.1245
     47  CA       -13.1690  -85.0380  -24.0020 C.3    54  LEU54       0.1561
     48  C        -13.4210  -83.6790  -23.3800 C.2    54  LEU54       0.2260
     49  O        -13.3440  -82.6500  -24.0500 O.2    54  LEU54      -0.2867
     50  CB       -14.4680  -85.8250  -23.9820 C.3    54  LEU54       0.0270
     51  CG       -14.9840  -86.4010  -25.2890 C.3    54  LEU54       0.0019
     52  CD1      -16.4770  -86.6050  -25.1530 C.3    54  LEU54       0.0001
     53  CD2      -14.6810  -85.4900  -26.4630 C.3    54  LEU54       0.0001
     54  N        -17.0330  -83.9580  -29.8740 N.3    64  PRO64      -0.2116
     55  CA       -18.4350  -84.1030  -29.4780 C.3    64  PRO64       0.1372
     56  C        -18.6290  -83.4120  -28.1370 C.2    64  PRO64       0.2244
     57  O        -17.6390  -83.0800  -27.4940 O.2    64  PRO64      -0.2868
     58  CB       -18.6010  -85.6200  -29.3180 C.3    64  PRO64       0.0268
     59  CG       -17.5840  -86.2080  -30.2170 C.3    64  PRO64       0.0207
     60  CD       -16.4080  -85.2610  -30.1640 C.3    64  PRO64       0.0892
     61  N        -21.2540  -93.0940  -21.0440 N.3    78  LEU78      -0.1245
     62  CA       -20.8270  -91.8240  -21.6000 C.3    78  LEU78       0.1561
     63  C        -21.7160  -91.6180  -22.7750 C.2    78  LEU78       0.2260
     64  O        -21.7070  -92.4310  -23.6870 O.2    78  LEU78      -0.2867
     65  CB       -19.3820  -91.9100  -22.0840 C.3    78  LEU78       0.0270
     66  CG       -18.8690  -90.6570  -22.7760 C.3    78  LEU78       0.0019
     67  CD1      -18.8650  -89.5260  -21.8020 C.3    78  LEU78       0.0001
     68  CD2      -17.4780  -90.8720  -23.3040 C.3    78  LEU78       0.0001
     69  N        -22.6810  -88.9480  -25.7350 N.3    80  THR80      -0.1203
     70  CA       -22.1500  -87.7750  -26.4360 C.3    80  THR80       0.1994
     71  C        -23.0400  -87.3950  -27.6160 C.2    80  THR80       0.2619
     72  O        -23.8800  -88.1890  -28.0340 O.2    80  THR80      -0.2717
     73  CB       -20.7330  -88.0660  -26.9320 C.3    80  THR80       0.1784
     74  OG1      -20.7190  -89.3580  -27.5430 O.3    80  THR80      -0.2211
     75  CG2      -19.7590  -88.1040  -25.7570 C.3    80  THR80       0.0376
     76  N        -22.8770  -86.1870  -28.1510 N.am   81  THR81      -0.1938
     77  CA       -23.5650  -85.8210  -29.3980 C.3    81  THR81       0.2028
     78  C        -22.7940  -86.4360  -30.5360 C.2    81  THR81       0.2642
     79  O        -21.5980  -86.6990  -30.4040 O.2    81  THR81      -0.2714
     80  CB       -23.5790  -84.2950  -29.6450 C.3    81  THR81       0.1808
     81  OG1      -22.2480  -83.7680  -29.5130 O.3    81  THR81      -0.2208
     82  CG2      -24.5170  -83.5760  -28.6740 C.3    81  THR81       0.0379
     83  N        -23.4540  -86.6560  -31.6650 N.am   82  ALA82      -0.1963
     84  CA       -22.7610  -87.2080  -32.8240 C.3    82  ALA82       0.1728
     85  C        -22.0620  -86.1100  -33.6250 C.2    82  ALA82       0.2616
     86  O        -22.4890  -84.9540  -33.6190 O.2    82  ALA82      -0.2715
     87  CB       -23.7240  -87.9600  -33.6920 C.3    82  ALA82       0.0334
     88  N        -20.9650  -86.4590  -34.2820 N.am   83  ILE83      -0.1964
     89  CA       -20.3870  -85.5640  -35.2760 C.3    83  ILE83       0.1712
     90  C        -20.8510  -86.0630  -36.6320 C.2    83  ILE83       0.2458
     91  O        -20.4770  -87.1520  -37.0540 O.2    83  ILE83      -0.2730
     92  CB       -18.8530  -85.5570  -35.2560 C.3    83  ILE83       0.0289
     93  CG1      -18.3270  -85.0250  -33.9310 C.3    83  ILE83       0.0022
     94  CG2      -18.3220  -84.6750  -36.3610 C.3    83  ILE83       0.0023
     95  CD1      -16.7950  -84.9240  -33.9010 C.3    83  ILE83       0.0001
     96  N        -21.6800  -85.2740  -37.3220 N.am   84  PRO84      -0.2716
     97  CA       -22.3030  -85.7780  -38.5520 C.3    84  PRO84       0.1536
     98  C        -21.2950  -85.8110  -39.6870 C.2    84  PRO84       0.2599
     99  O        -20.4070  -84.9700  -39.7430 O.2    84  PRO84      -0.2715
    100  CB       -23.4100  -84.7570  -38.8220 C.3    84  PRO84       0.0310
    101  CG       -22.8870  -83.4710  -38.2240 C.3    84  PRO84       0.0237
    102  CD       -21.9940  -83.8560  -37.0630 C.3    84  PRO84       0.0939
    103  N        -21.4160  -86.7900  -40.5700 N.am   85  GLY85      -0.1941
    104  CA       -20.4490  -86.9460  -41.6400 C.3    85  GLY85       0.2014
    105  C        -19.9920  -88.3870  -41.7390 C.2    85  GLY85       0.2639
    106  O        -20.7130  -89.2900  -41.3300 O.2    85  GLY85      -0.2714
    107  N        -18.8110  -88.6100  -42.3060 N.am   86  LYS86      -0.1963
    108  CA       -18.2630  -89.9600  -42.4010 C.3    86  LYS86       0.1728
    109  C        -16.7970  -89.9090  -42.0240 C.2    86  LYS86       0.2616
    110  O        -16.1960  -88.8280  -41.9730 O.2    86  LYS86      -0.2715
    111  CB       -18.4410  -90.5610  -43.8070 C.3    86  LYS86       0.0311
    112  CG       -19.4950  -89.8670  -44.6740 C.3    86  LYS86       0.0038
    113  CD       -20.3580  -90.8680  -45.4500 C.3    86  LYS86       0.0206
    114  CE       -21.1690  -90.1700  -46.5480 C.3    86  LYS86       0.1093
    115  NZ       -22.2470  -91.0290  -47.1200 N.3    86  LYS86      -0.1314
    116  N        -16.2230  -91.0720  -41.7470 N.am   87  THR87      -0.1951
    117  CA       -14.8390  -91.1100  -41.3230 C.3    87  THR87       0.1897
    118  C        -13.9390  -90.8210  -42.4990 C.2    87  THR87       0.2313
    119  O        -14.2930  -91.1160  -43.6490 O.2    87  THR87      -0.2863
    120  CB       -14.4530  -92.4620  -40.7140 C.3    87  THR87       0.1794
    121  OG1      -14.4890  -93.4850  -41.7190 O.3    87  THR87      -0.2208
    122  CG2      -15.3940  -92.8190  -39.5790 C.3    87  THR87       0.0378
    123  N        -13.7500  -93.7290  -44.7270 N.3    90  GLN90      -0.1245
    124  CA       -14.9010  -93.9060  -45.6020 C.3    90  GLN90       0.1566
    125  C        -14.8510  -92.9470  -46.7970 C.2    90  GLN90       0.2260
    126  O        -15.0680  -93.3600  -47.9390 O.2    90  GLN90      -0.2867
    127  CB       -16.2000  -93.6530  -44.8450 C.3    90  GLN90       0.0367
    128  CG       -16.5540  -94.6450  -43.7670 C.3    90  GLN90       0.0905
    129  CD       -17.8780  -94.2800  -43.1080 C.2    90  GLN90       0.2608
    130  OE1      -17.9120  -93.6360  -42.0460 O.2    90  GLN90      -0.2717
    131  NE2      -18.9800  -94.6700  -43.7510 N.am   90  GLN90      -0.0878
    132  N        -10.1120  -93.7210  -38.9790 N.3   184  ASP184     -0.1239
    133  CA       -11.4160  -94.0050  -38.3940 C.3   184  ASP184      0.1674
    134  C        -11.8640  -92.9340  -37.4130 C.2   184  ASP184      0.2266
    135  O        -13.0460  -92.8400  -37.0880 O.2   184  ASP184     -0.2867
    136  CB       -11.4050  -95.3390  -37.6560 C.3   184  ASP184      0.1410
    137  CG       -10.8580  -96.4570  -38.4970 C.2   184  ASP184      0.3668
    138  OD1      -11.6390  -97.0150  -39.3010 O.co2 184  ASP184     -0.2456
    139  OD2       -9.6490  -96.7780  -38.3530 O.co2 184  ASP184     -0.2456
    140  N        -13.4160  -86.9480  -38.5460 N.3   187  ILE187     -0.1245
    141  CA       -14.7220  -86.8400  -39.1810 C.3   187  ILE187      0.1561
    142  C        -14.8450  -85.6960  -40.1900 C.2   187  ILE187      0.2260
    143  O        -14.7430  -84.5200  -39.8340 O.2   187  ILE187     -0.2867
    144  CB       -15.8710  -86.7910  -38.1480 C.3   187  ILE187      0.0252
    145  CG1      -15.7130  -87.9130  -37.1250 C.3   187  ILE187      0.0019
    146  CG2      -17.2070  -86.9570  -38.8470 C.3   187  ILE187      0.0019
    147  CD1      -15.8350  -89.3050  -37.7200 C.3   187  ILE187      0.0001
    148  N        -12.6850  -87.9850  -32.9180 N.3   197  ILE197     -0.1231
    149  CA       -13.3600  -88.7760  -31.9020 C.3   197  ILE197      0.1692
    150  C        -12.3770  -89.6820  -31.1600 C.2   197  ILE197      0.2592
    151  O        -11.1770  -89.6200  -31.3940 O.2   197  ILE197     -0.2718
    152  CB       -14.4750  -89.6350  -32.5270 C.3   197  ILE197      0.0266
    153  CG1      -13.8980  -90.6020  -33.5600 C.3   197  ILE197      0.0019
    154  CG2      -15.5240  -88.7560  -33.1830 C.3   197  ILE197      0.0020
    155  CD1      -14.9160  -91.5770  -34.1020 C.3   197  ILE197      0.0001
    156  N        -12.8880  -90.5010  -30.2490 N.am  198  ASP198     -0.1960
    157  CA       -12.0830  -91.5470  -29.6320 C.3   198  ASP198      0.1840
    158  C        -10.8440  -91.0020  -28.9370 C.2   198  ASP198      0.2621
    159  O         -9.7200  -91.3550  -29.2850 O.2   198  ASP198     -0.2715
    160  CB       -11.6430  -92.5040  -30.7140 C.3   198  ASP198      0.1450
    161  CG       -12.0200  -93.9260  -30.4260 C.2   198  ASP198      0.3671
    162  OD1      -13.1740  -94.1930  -29.9940 O.co2 198  ASP198     -0.2456
    163  OD2      -11.1400  -94.7790  -30.6620 O.co2 198  ASP198     -0.2456
    164  N        -11.0440  -90.1390  -27.9590 N.am  199  VAL199     -0.1977
    165  CA        -9.9410  -89.3440  -27.4410 C.3   199  VAL199      0.1596
    166  C         -9.3710  -89.9070  -26.1410 C.2   199  VAL199      0.2287
    167  O         -8.6880  -89.2080  -25.4080 O.2   199  VAL199     -0.2864
    168  CB       -10.3880  -87.8910  -27.2470 C.3   199  VAL199      0.0276
    169  CG1      -10.7040  -87.2660  -28.5930 C.3   199  VAL199      0.0022
    170  CG2      -11.6260  -87.8350  -26.3730 C.3   199  VAL199      0.0022
@<TRIPOS>BOND
     1   126   125    2
     2   115   114    1
     3   125   124    1
     4   114   113    1
     5   124   127    1
     6   124   123    1
     7   113   112    1
     8   127   128    1
     9   112   111    1
    10   111   108    1
    11   128   129    1
    12   131   129   am
    13   119   118    2
    14   129   130    2
    15   118   117    1
    16   108   107    1
    17   108   109    1
    18   107   105   am
    19   109   110    2
    20   109   116   am
    21   116   117    1
    22   105   104    1
    23   105   106    2
    24   121   120    1
    25   104   103    1
    26   117   120    1
    27   120   122    1
    28   103    98   am
    29   142   143    2
    30   142   141    1
    31    99    98    2
    32    98    97    1
    33   138   137   ar
    34   141   140    1
    35   141   144    1
    36   132   133    1
    37   146   144    1
    38   100    97    1
    39   100   101    1
    40    97    96    1
    41   137   139   ar
    42   137   136    1
    43   133   136    1
    44   133   134    1
    45   101   102    1
    46   144   145    1
    47   147   145    1
    48   134   135    2
    49    96   102    1
    50    96    90   am
    51    91    90    2
    52    90    89    1
    53    94    92    1
    54    89    92    1
    55    89    88    1
    56    92    93    1
    57     7     6   ar
    58     8     6   ar
    59     6     5    1
    60    88    85   am
    61   155   153    1
    62    27    26   ar
    63    27    25   ar
    64    93    95    1
    65    87    84    1
    66     2     5    1
    67     2     3    1
    68     2     1    1
    69    85    86    2
    70    85    84    1
    71   153   152    1
    72    26    24   ar
    73   154   152    1
    74    25    23   ar
    75     3     4    2
    76   148   149    1
    77    84    83    1
    78   152   149    1
    79    24    22   ar
    80   149   150    1
    81    23    22   ar
    82    83    78   am
    83   151   150    2
    84    22    21    1
    85   150   156   am
    86   160   161    1
    87   160   157    1
    88   163   161   ar
    89    78    79    2
    90    78    77    1
    91   161   162   ar
    92   156   157    1
    93    59    60    1
    94    59    58    1
    95    60    54    1
    96    12    11    2
    97    15    13    1
    98    54    55    1
    99    21    18    1
   100    16    14    1
   101    80    81    1
   102    80    77    1
   103    80    82    1
   104   157   158    1
   105    13    14    1
   106    13    10    1
   107    55    58    1
   108    55    56    1
   109    17    18    1
   110    77    76    1
   111   159   158    2
   112    18    19    1
   113    11    10    1
   114   158   164   am
   115   169   168    1
   116    10     9    1
   117    76    71   am
   118    56    57    2
   119    72    71    2
   120   164   165    1
   121    19    20    2
   122    71    70    1
   123    74    73    1
   124   165   168    1
   125   165   166    1
   126   168   170    1
   127    36    35    1
   128    73    70    1
   129    73    75    1
   130    45    43   ar
   131    53    51    1
   132    70    69    1
   133   166   167    2
   134    35    34    1
   135    34    33    1
   136    43    44   ar
   137    43    42    1
   138    51    52    1
   139    51    50    1
   140    28    29    1
   141    33    32    1
   142    32    29    1
   143    29    30    1
   144    42    41    1
   145    49    48    2
   146    47    50    1
   147    47    48    1
   148    47    46    1
   149    64    63    2
   150    30    31    2
   151    68    66    1
   152    41    38    1
   153    66    65    1
   154    66    67    1
   155    63    62    1
   156    40    39    2
   157    38    39    1
   158    38    37    1
   159    65    62    1
   160    62    61    1
