@<TRIPOS>MOLECULE
tmp/4feyA00.pdb
 177 170 0 0 0
SMALL
GASTEIGER

@<TRIPOS>ATOM
      1  N         -8.5610   79.5700  -24.9170 N.3   190  GLY190     -0.1210
      2  CA        -9.7860   78.9930  -25.4390 C.3   190  GLY190      0.1956
      3  C         -9.5110   77.8260  -26.3550 C.2   190  GLY190      0.2612
      4  O         -8.4680   77.7790  -27.0050 O.2   190  GLY190     -0.2717
      5  N        -10.4530   76.8970  -26.4020 N.am  191  GLY191     -0.1942
      6  CA       -10.3390   75.6850  -27.2010 C.3   191  GLY191      0.2014
      7  C        -11.3450   74.6160  -26.8290 C.2   191  GLY191      0.2639
      8  O        -12.1630   74.8050  -25.9120 O.2   191  GLY191     -0.2714
      9  N        -11.2670   73.4620  -27.5120 N.am  192  SER192     -0.1949
     10  CA       -12.2310   72.3950  -27.2940 C.3   192  SER192      0.1924
     11  C        -11.9360   71.5320  -26.0580 C.2   192  SER192      0.2314
     12  O        -12.8720   70.9560  -25.4970 O.2   192  SER192     -0.2863
     13  CB       -12.3530   71.5210  -28.5420 C.3   192  SER192      0.2116
     14  OG       -11.1800   70.7770  -28.8230 O.3   192  SER192     -0.2180
     15  N         -5.5610   69.4070  -24.0690 N.3   196  THR196     -0.1203
     16  CA        -4.6130   69.9170  -25.0600 C.3   196  THR196      0.1994
     17  C         -3.9600   71.2380  -24.6290 C.2   196  THR196      0.2617
     18  O         -2.9070   71.5740  -25.1720 O.2   196  THR196     -0.2717
     19  CB        -5.2720   70.0440  -26.4490 C.3   196  THR196      0.1784
     20  OG1       -6.3680   70.9270  -26.3640 O.3   196  THR196     -0.2211
     21  CG2       -5.7490   68.6980  -27.0140 C.3   196  THR196      0.0376
     22  N         -4.5320   71.9480  -23.6250 N.am  197  LYS197     -0.1979
     23  CA        -4.0170   73.2460  -23.1440 C.3   197  LYS197      0.1596
     24  C         -3.5720   73.2240  -21.6780 C.2   197  LYS197      0.2287
     25  O         -3.2310   74.2830  -21.1260 O.2   197  LYS197     -0.2864
     26  CB        -5.0970   74.3390  -23.3250 C.3   197  LYS197      0.0298
     27  CG        -5.5300   74.5540  -24.7940 C.3   197  LYS197      0.0038
     28  CD        -4.5010   75.3330  -25.6100 C.3   197  LYS197      0.0206
     29  CE        -4.9580   75.5390  -27.0470 C.3   197  LYS197      0.1093
     30  NZ        -5.5950   76.8720  -27.2260 N.3   197  LYS197     -0.1314
     31  N        -14.6400   78.5090  -24.4590 N.3   215  GLY215     -0.1210
     32  CA       -15.1720   77.3790  -25.2140 C.3   215  GLY215      0.1956
     33  C        -15.3020   76.1320  -24.3700 C.2   215  GLY215      0.2612
     34  O        -15.7510   76.2100  -23.2200 O.2   215  GLY215     -0.2717
     35  N        -14.8710   75.0010  -24.9370 N.am  216  GLY216     -0.1956
     36  CA       -14.8790   73.6920  -24.2860 C.3   216  GLY216      0.1869
     37  C        -14.1120   73.6910  -22.9700 C.2   216  GLY216      0.2309
     38  O        -14.5500   73.0640  -22.0060 O.2   216  GLY216     -0.2863
     39  N        -16.2390   75.3560  -20.3300 N.3   219  ASN219     -0.1240
     40  CA       -17.3590   74.4790  -19.9790 C.3   219  ASN219      0.1653
     41  C        -16.9470   73.4680  -18.9450 C.2   219  ASN219      0.2266
     42  O        -17.7480   73.1920  -18.0470 O.2   219  ASN219     -0.2867
     43  CB       -17.9560   73.7760  -21.2020 C.3   219  ASN219      0.1155
     44  CG       -18.6400   74.6890  -22.1940 C.2   219  ASN219      0.2627
     45  OD1      -19.0270   75.8230  -21.8840 O.2   219  ASN219     -0.2716
     46  ND2      -18.8110   74.2080  -23.4150 N.am  219  ASN219     -0.0877
     47  N        -19.9930   70.5530  -24.7710 N.3   233  LEU233     -0.1245
     48  CA       -18.6730   69.9480  -24.9650 C.3   233  LEU233      0.1561
     49  C        -17.8060   70.3030  -23.7710 C.2   233  LEU233      0.2260
     50  O        -17.6820   71.4770  -23.4250 O.2   233  LEU233     -0.2867
     51  CB       -18.0510   70.4410  -26.2830 C.3   233  LEU233      0.0270
     52  CG       -16.5890   70.0720  -26.5870 C.3   233  LEU233      0.0019
     53  CD1      -16.4760   68.6760  -27.1960 C.3   233  LEU233      0.0001
     54  CD2      -15.9940   71.0720  -27.5390 C.3   233  LEU233      0.0001
     55  N        -26.4460   71.8350  -33.1010 N.3   268  PHE268     -0.1241
     56  CA       -25.1030   72.3310  -33.3980 C.3   268  PHE268      0.1605
     57  C        -25.0170   72.5680  -34.9140 C.2   268  PHE268      0.2264
     58  O        -24.6290   71.6860  -35.6850 O.2   268  PHE268     -0.2867
     59  CB       -24.0120   71.3780  -32.8660 C.3   268  PHE268      0.0534
     60  CG       -22.6040   71.8820  -33.0600 C.ar  268  PHE268     -0.0203
     61  CD1      -22.0670   72.8470  -32.2100 C.ar  268  PHE268     -0.0042
     62  CD2      -21.7910   71.3530  -34.0540 C.ar  268  PHE268     -0.0042
     63  CE1      -20.7540   73.3030  -32.3830 C.ar  268  PHE268     -0.0003
     64  CE2      -20.4840   71.8100  -34.2260 C.ar  268  PHE268     -0.0003
     65  CZ       -19.9770   72.7890  -33.3980 C.ar  268  PHE268     -0.0000
     66  N        -23.8070   74.6890  -24.3650 N.3   288  ILE288     -0.1231
     67  CA       -23.2310   76.0370  -24.3020 C.3   288  ILE288      0.1692
     68  C        -22.3410   76.2580  -25.5430 C.2   288  ILE288      0.2592
     69  O        -21.3350   75.5600  -25.7280 O.2   288  ILE288     -0.2718
     70  CB       -22.4690   76.2570  -22.9630 C.3   288  ILE288      0.0266
     71  CG1      -23.4350   76.2220  -21.7620 C.3   288  ILE288      0.0019
     72  CG2      -21.6780   77.5650  -22.9860 C.3   288  ILE288      0.0020
     73  CD1      -22.8920   75.5400  -20.5630 C.3   288  ILE288      0.0001
     74  N        -22.7250   77.2260  -26.3910 N.am  289  LEU289     -0.1966
     75  CA       -22.0100   77.5230  -27.6340 C.3   289  LEU289      0.1728
     76  C        -21.3900   78.9310  -27.6510 C.2   289  LEU289      0.2616
     77  O        -20.6520   79.2630  -28.5870 O.2   289  LEU289     -0.2715
     78  CB       -22.9460   77.3180  -28.8420 C.3   289  LEU289      0.0311
     79  CG       -23.3420   75.8710  -29.1660 C.3   289  LEU289      0.0022
     80  CD1      -23.9380   75.7870  -30.5380 C.3   289  LEU289      0.0001
     81  CD2      -22.1250   74.9220  -29.1190 C.3   289  LEU289      0.0001
     82  N        -21.6610   79.7310  -26.5980 N.am  290  ASP290     -0.1971
     83  CA       -21.1350   81.0810  -26.3780 C.3   290  ASP290      0.1709
     84  C        -21.4360   81.5160  -24.9410 C.2   290  ASP290      0.2293
     85  O        -22.2890   80.9180  -24.2740 O.2   290  ASP290     -0.2864
     86  CB       -21.7390   82.1020  -27.3950 C.3   290  ASP290      0.1436
     87  CG       -21.0570   83.4700  -27.4730 C.2   290  ASP290      0.3671
     88  OD1      -19.8050   83.5230  -27.3720 O.co2 290  ASP290     -0.2456
     89  OD2      -21.7660   84.4770  -27.6900 O.co2 290  ASP290     -0.2456
     90  N         -4.9830   83.3860  -26.8200 N.3   312  ASN312     -0.1225
     91  CA        -4.8890   82.0630  -27.4150 C.3   312  ASN312      0.1785
     92  C         -6.2720   81.3530  -27.4060 C.2   312  ASN312      0.2598
     93  O         -6.4590   80.3440  -26.7160 O.2   312  ASN312     -0.2718
     94  CB        -3.7940   81.2240  -26.7280 C.3   312  ASN312      0.1169
     95  CG        -3.5500   79.8800  -27.3980 C.2   312  ASN312      0.2627
     96  OD1       -3.5180   78.8390  -26.7400 O.2   312  ASN312     -0.2716
     97  ND2       -3.4300   79.8590  -28.7270 N.am  312  ASN312     -0.0877
     98  N         -7.1830   81.8540  -28.2360 N.am  313  GLY313     -0.1943
     99  CA        -8.4900   81.2450  -28.4330 C.3   313  GLY313      0.1998
    100  C         -9.7470   82.0850  -28.2830 C.2   313  GLY313      0.2481
    101  O         -9.7230   83.1630  -27.6760 O.2   313  GLY313     -0.2729
    102  N        -10.8870   81.5660  -28.8180 N.am  314  PRO314     -0.2715
    103  CA       -12.1740   82.2780  -28.6670 C.3   314  PRO314      0.1536
    104  C        -12.9150   81.8820  -27.3740 C.2   314  PRO314      0.2598
    105  O        -12.4560   81.0140  -26.6160 O.2   314  PRO314     -0.2715
    106  CB       -12.9570   81.8090  -29.8970 C.3   314  PRO314      0.0310
    107  CG       -12.4980   80.3840  -30.0960 C.3   314  PRO314      0.0237
    108  CD       -11.0620   80.3070  -29.5830 C.3   314  PRO314      0.0939
    109  N        -14.0960   82.4900  -27.1440 N.am  315  VAL315     -0.1964
    110  CA       -14.9290   82.1710  -25.9820 C.3   315  VAL315      0.1727
    111  C        -16.2570   81.5050  -26.4280 C.2   315  VAL315      0.2617
    112  O        -17.0630   81.1180  -25.5820 O.2   315  VAL315     -0.2715
    113  CB       -15.1630   83.4020  -25.0610 C.3   315  VAL315      0.0290
    114  CG1      -13.8450   83.8630  -24.4410 C.3   315  VAL315      0.0023
    115  CG2      -15.8660   84.5480  -25.7980 C.3   315  VAL315      0.0023
    116  N        -16.4540   81.4100  -27.7380 N.am  316  GLY316     -0.1940
    117  CA       -17.6690   80.8680  -28.3170 C.3   316  GLY316      0.2014
    118  C        -17.4670   80.3810  -29.7380 C.2   316  GLY316      0.2639
    119  O        -16.4310   80.6360  -30.3430 O.2   316  GLY316     -0.2714
    120  N        -18.4600   79.6840  -30.2790 N.am  317  VAL317     -0.1963
    121  CA       -18.3780   79.2030  -31.6500 C.3   317  VAL317      0.1727
    122  C        -18.7800   80.3610  -32.5530 C.2   317  VAL317      0.2616
    123  O        -19.9120   80.4550  -33.0160 O.2   317  VAL317     -0.2715
    124  CB       -19.3180   78.0140  -31.8870 C.3   317  VAL317      0.0290
    125  CG1      -19.0570   77.3990  -33.2430 C.3   317  VAL317      0.0023
    126  CG2      -19.1460   76.9790  -30.7950 C.3   317  VAL317      0.0023
    127  N        -17.8180   81.2450  -32.7810 N.am  318  PHE318     -0.1960
    128  CA       -18.0040   82.4970  -33.5320 C.3   318  PHE318      0.1771
    129  C        -18.2880   82.2560  -35.0230 C.2   318  PHE318      0.2619
    130  O        -18.6910   83.1950  -35.7040 O.2   318  PHE318     -0.2715
    131  CB       -16.8010   83.4490  -33.3610 C.3   318  PHE318      0.0574
    132  CG       -15.4960   82.9080  -33.8930 C.ar  318  PHE318     -0.0200
    133  CD1      -15.1050   83.1570  -35.2050 C.ar  318  PHE318     -0.0042
    134  CD2      -14.6650   82.1310  -33.0850 C.ar  318  PHE318     -0.0042
    135  CE1      -13.9100   82.6330  -35.7030 C.ar  318  PHE318     -0.0003
    136  CE2      -13.4640   81.6220  -33.5780 C.ar  318  PHE318     -0.0003
    137  CZ       -13.0910   81.8790  -34.8790 C.ar  318  PHE318     -0.0000
    138  N        -18.0740   81.0120  -35.5240 N.am  319  GLU319     -0.1977
    139  CA       -18.3860   80.6060  -36.9070 C.3   319  GLU319      0.1602
    140  C        -19.9100   80.6720  -37.1140 C.2   319  GLU319      0.2287
    141  O        -20.3800   80.7270  -38.2560 O.2   319  GLU319     -0.2864
    142  CB       -17.8600   79.1840  -37.2180 C.3   319  GLU319      0.0415
    143  CG       -16.3450   79.0290  -37.1740 C.3   319  GLU319      0.1163
    144  CD       -15.7060   78.6600  -35.8430 C.2   319  GLU319      0.3649
    145  OE1      -16.3830   78.7540  -34.7930 O.co2 319  GLU319     -0.2457
    146  OE2      -14.5090   78.2920  -35.8530 O.co2 319  GLU319     -0.2457
    147  N         -2.6150   80.9800  -32.7400 N.3   345  GLY345     -0.1210
    148  CA        -3.5710   79.9020  -32.9270 C.3   345  GLY345      0.1956
    149  C         -4.5440   80.2100  -34.0500 C.2   345  GLY345      0.2612
    150  O         -4.8500   81.3670  -34.3140 O.2   345  GLY345     -0.2717
    151  N         -5.0350   79.1650  -34.7080 N.am  346  GLY346     -0.1942
    152  CA        -5.8950   79.3240  -35.8670 C.3   346  GLY346      0.2014
    153  C         -7.2370   79.9970  -35.6680 C.2   346  GLY346      0.2639
    154  O         -7.6320   80.8340  -36.4700 O.2   346  GLY346     -0.2714
    155  N         -7.9450   79.6360  -34.6070 N.am  347  ASP347     -0.1957
    156  CA        -9.2300   80.2590  -34.3220 C.3   347  ASP347      0.1840
    157  C         -9.0760   81.7360  -33.9970 C.2   347  ASP347      0.2622
    158  O         -9.8910   82.5570  -34.4020 O.2   347  ASP347     -0.2715
    159  CB        -9.9770   79.5180  -33.2170 C.3   347  ASP347      0.1450
    160  CG       -10.7520   78.3300  -33.7420 C.2   347  ASP347      0.3671
    161  OD1      -10.2400   77.6410  -34.6480 O.co2 347  ASP347     -0.2456
    162  OD2      -11.8750   78.0860  -33.2560 O.co2 347  ASP347     -0.2456
    163  N         -8.0250   82.0600  -33.2550 N.am  348  THR348     -0.1951
    164  CA        -7.7390   83.4360  -32.8820 C.3   348  THR348      0.1897
    165  C         -7.4670   84.2660  -34.1310 C.2   348  THR348      0.2313
    166  O         -7.9220   85.3990  -34.2510 O.2   348  THR348     -0.2863
    167  CB        -6.5220   83.5000  -31.9510 C.3   348  THR348      0.1794
    168  OG1       -6.7110   82.5980  -30.8560 O.3   348  THR348     -0.2208
    169  CG2       -6.3270   84.9060  -31.4200 C.3   348  THR348      0.0378
    170  N          2.6620   77.3050  -29.2170 N.3   372  LEU372     -0.1245
    171  CA         2.1190   76.6260  -28.0430 C.3   372  LEU372      0.1561
    172  C          3.1980   76.1060  -27.1130 C.2   372  LEU372      0.2260
    173  O          3.0690   76.2900  -25.9070 O.2   372  LEU372     -0.2867
    174  CB         1.1670   75.5090  -28.4140 C.3   372  LEU372      0.0270
    175  CG        -0.0990   75.4700  -27.5430 C.3   372  LEU372      0.0019
    176  CD1       -0.9540   76.7670  -27.7210 C.3   372  LEU372      0.0001
    177  CD2       -0.9410   74.2220  -27.8520 C.3   372  LEU372      0.0001
@<TRIPOS>BOND
     1   141   140    2
     2   142   143    1
     3   142   139    1
     4   143   144    1
     5   140   139    1
     6   139   138    1
     7   154   153    2
     8   152   153    1
     9   152   151    1
    10   146   144   ar
    11   144   145   ar
    12   130   129    2
    13   135   133   ar
    14   135   137   ar
    15    58    57    2
    16   153   155   am
    17   138   129   am
    18   133   132   ar
    19   129   128    1
    20    57    56    1
    21   137   136   ar
    22   151   149   am
    23   161   160   ar
    24   155   156    1
    25   158   157    2
    26   156   157    1
    27   156   159    1
    28   150   149    2
    29   166   165    2
    30    64    62   ar
    31    64    65   ar
    32   165   164    1
    33    62    60   ar
    34   149   148    1
    35   157   163   am
    36   132   131    1
    37   132   134   ar
    38   160   162   ar
    39   160   159    1
    40   136   134   ar
    41   128   131    1
    42   128   127    1
    43    65    63   ar
    44    56    55    1
    45    56    59    1
    46   163   164    1
    47   125   124    1
    48    60    59    1
    49    60    61   ar
    50   123   122    2
    51   148   147    1
    52   164   167    1
    53   127   122   am
    54   122   121    1
    55    63    61   ar
    56   167   169    1
    57   167   168    1
    58   124   121    1
    59   124   126    1
    60   121   120    1
    61    80    79    1
    62   119   118    2
    63   120   118   am
    64   107   106    1
    65   107   108    1
    66   106   103    1
    67   118   117    1
    68   108   102    1
    69   170   171    1
    70    79    81    1
    71    79    78    1
    72    78    75    1
    73    14    13    1
    74   102   103    1
    75   102   100   am
    76    97    95   am
    77   103   104    1
    78    77    76    2
    79    13    10    1
    80    99   100    1
    81    99    98    1
    82   174   171    1
    83   174   175    1
    84   117   116    1
    85   100   101    2
    86    98    92   am
    87   171   172    1
    88   177   175    1
    89   116   111   am
    90   176   175    1
    91    89    87   ar
    92    76    75    1
    93    76    82   am
    94    75    74    1
    95    54    52    1
    96     9    10    1
    97     9     7   am
    98    87    86    1
    99    87    88   ar
   100    91    92    1
   101    91    90    1
   102    91    94    1
   103    92    93    2
   104    95    96    2
   105    95    94    1
   106    86    83    1
   107   104   109   am
   108   104   105    2
   109    10    11    1
   110    30    29    1
   111     6     7    1
   112     6     5    1
   113    53    52    1
   114   109   110    1
   115   172   173    2
   116    29    28    1
   117    21    19    1
   118     4     3    2
   119     7     8    2
   120    82    83    1
   121    52    51    1
   122    19    20    1
   123    19    16    1
   124   111   110    1
   125   111   112    2
   126     5     3   am
   127    74    68   am
   128    83    84    1
   129     3     2    1
   130    51    48    1
   131    11    12    2
   132   110   113    1
   133   115   113    1
   134    69    68    2
   135    28    27    1
   136    68    67    1
   137     2     1    1
   138    32    31    1
   139    32    33    1
   140    18    17    2
   141   113   114    1
   142    16    17    1
   143    16    15    1
   144    48    47    1
   145    48    49    1
   146    84    85    2
   147    35    33   am
   148    35    36    1
   149    27    26    1
   150    17    22   am
   151    33    34    2
   152    66    67    1
   153    67    70    1
   154    36    37    1
   155    49    50    2
   156    22    23    1
   157    46    44   am
   158    26    23    1
   159    23    24    1
   160    72    70    1
   161    37    38    2
   162    70    71    1
   163    44    45    2
   164    44    43    1
   165    71    73    1
   166    24    25    2
   167    43    40    1
   168    39    40    1
   169    40    41    1
   170    41    42    2
