@<TRIPOS>MOLECULE
tmp/4fezA00.pdb
 108 104 0 0 0
SMALL
GASTEIGER

@<TRIPOS>ATOM
      1  N         18.4420   15.3470   64.7510 N.3   109  VAL109     -0.1231
      2  CA        18.4040   16.7710   64.6330 C.3   109  VAL109      0.1692
      3  C         19.6960   17.3690   65.1390 C.2   109  VAL109      0.2593
      4  O         20.4830   16.7200   65.8550 O.2   109  VAL109     -0.2718
      5  CB        17.2010   17.3940   65.4350 C.3   109  VAL109      0.0266
      6  CG1       15.9050   16.8990   64.8280 C.3   109  VAL109      0.0020
      7  CG2       17.3450   17.0190   66.9370 C.3   109  VAL109      0.0020
      8  N         19.9440   18.6100   64.7770 N.am  110  GLY110     -0.1942
      9  CA        21.1780   19.2890   65.2540 C.3   110  GLY110      0.2014
     10  C         20.9010   19.8780   66.6560 C.2   110  GLY110      0.2639
     11  O         19.7530   19.9290   67.0990 O.2   110  GLY110     -0.2714
     12  N         21.9420   20.3770   67.3000 N.am  111  ALA111     -0.1963
     13  CA        21.8970   20.9190   68.6330 C.3   111  ALA111      0.1728
     14  C         21.8560   22.4360   68.6270 C.2   111  ALA111      0.2616
     15  O         21.8710   23.0340   69.6820 O.2   111  ALA111     -0.2715
     16  CB        23.1010   20.4460   69.4250 C.3   111  ALA111      0.0334
     17  N         21.7770   23.0590   67.4600 N.am  112  ALA112     -0.1964
     18  CA        21.6630   24.5350   67.3850 C.3   112  ALA112      0.1713
     19  C         20.2920   24.9340   67.8330 C.2   112  ALA112      0.2458
     20  O         19.3610   24.1230   67.7180 O.2   112  ALA112     -0.2730
     21  CB        21.8840   25.0460   65.9560 C.3   112  ALA112      0.0333
     22  N         20.1360   26.1860   68.3440 N.am  113  PRO113     -0.2716
     23  CA        18.7790   26.7360   68.5960 C.3   113  PRO113      0.1536
     24  C         17.9720   26.7270   67.3190 C.2   113  PRO113      0.2599
     25  O         18.5540   26.7920   66.2340 O.2   113  PRO113     -0.2715
     26  CB        19.0590   28.2210   68.9990 C.3   113  PRO113      0.0310
     27  CG        20.5140   28.2270   69.4060 C.3   113  PRO113      0.0237
     28  CD        21.1850   27.2110   68.5400 C.3   113  PRO113      0.0939
     29  N         16.6490   26.6880   67.4250 N.am  114  GLY114     -0.1941
     30  CA        15.8070   26.7350   66.2270 C.3   114  GLY114      0.2014
     31  C         15.4230   25.4310   65.5680 C.2   114  GLY114      0.2639
     32  O         14.8860   25.4310   64.4720 O.2   114  GLY114     -0.2714
     33  N         15.6510   24.3080   66.2340 N.am  115  ASN115     -0.1958
     34  CA        15.2700   23.0050   65.7000 C.3   115  ASN115      0.1819
     35  C         13.9680   22.5210   66.2920 C.2   115  ASN115      0.2621
     36  O         13.5470   21.3600   66.0630 O.2   115  ASN115     -0.2715
     37  CB        16.4330   22.0010   65.9260 C.3   115  ASN115      0.1195
     38  CG        17.4950   22.1450   64.8730 C.2   115  ASN115      0.2630
     39  OD1       17.2520   21.8090   63.7440 O.2   115  ASN115     -0.2716
     40  ND2       18.6370   22.7030   65.2050 N.am  115  ASN115     -0.0877
     41  N         13.2980   23.3830   67.0570 N.am  116  GLU116     -0.1977
     42  CA        12.0600   23.0040   67.7190 C.3   116  GLU116      0.1602
     43  C         10.9790   22.4980   66.8040 C.2   116  GLU116      0.2287
     44  O         10.2510   21.5870   67.2030 O.2   116  GLU116     -0.2864
     45  CB        11.4250   24.1380   68.5520 C.3   116  GLU116      0.0415
     46  CG        12.2020   24.4660   69.8160 C.3   116  GLU116      0.1163
     47  CD        13.3270   25.4890   69.5820 C.2   116  GLU116      0.3649
     48  OE1       13.6870   25.8080   68.4000 O.co2 116  GLU116     -0.2457
     49  OE2       13.8970   25.9430   70.6080 O.co2 116  GLU116     -0.2457
     50  N         11.8280   18.9100   65.6210 N.3   119  VAL119     -0.1245
     51  CA        11.5500   17.9100   66.6530 C.3   119  VAL119      0.1561
     52  C         10.0620   17.6690   66.7370 C.2   119  VAL119      0.2260
     53  O          9.6320   16.5400   66.8410 O.2   119  VAL119     -0.2867
     54  CB        12.0760   18.3460   68.0560 C.3   119  VAL119      0.0252
     55  CG1       11.6490   17.3440   69.1570 C.3   119  VAL119      0.0019
     56  CG2       13.5990   18.4120   68.0140 C.3   119  VAL119      0.0019
     57  N         20.0240   13.7970   69.1450 N.3   132  ILE132     -0.1245
     58  CA        20.5380   15.1660   69.0430 C.3   132  ILE132      0.1561
     59  C         22.0000   14.9880   68.7260 C.2   132  ILE132      0.2260
     60  O         22.7300   14.5960   69.5540 O.2   132  ILE132     -0.2867
     61  CB        20.2890   15.9350   70.3450 C.3   132  ILE132      0.0252
     62  CG1       18.7720   16.0710   70.4600 C.3   132  ILE132      0.0019
     63  CG2       21.0480   17.2880   70.2840 C.3   132  ILE132      0.0019
     64  CD1       18.2630   16.6840   71.7900 C.3   132  ILE132      0.0001
     65  N         20.3730   22.2370   75.0540 N.3   145  ARG145     -0.1245
     66  CA        19.3370   21.8330   74.0720 C.3   145  ARG145      0.1563
     67  C         18.7300   20.5310   74.4420 C.2   145  ARG145      0.2260
     68  O         17.5110   20.3090   74.1940 O.2   145  ARG145     -0.2867
     69  CB        19.8340   21.8240   72.6120 C.3   145  ARG145      0.0307
     70  CG        19.1660   22.9310   71.7460 C.3   145  ARG145      0.0489
     71  CD        19.4780   24.3610   72.1430 C.3   145  ARG145      0.2205
     72  NE        20.8530   24.6930   71.7610 N.pl3 145  ARG145     -0.0865
     73  CZ        21.6210   25.6250   72.3380 C.cat 145  ARG145      0.5346
     74  NH1       21.1900   26.3660   73.3780 N.pl3 145  ARG145      0.1354
     75  NH2       22.8560   25.7930   71.8770 N.pl3 145  ARG145      0.1354
     76  N         16.2650   21.1960   77.2830 N.3   148  GLU148     -0.1231
     77  CA        15.0310   21.8300   76.7670 C.3   148  GLU148      0.1699
     78  C         14.1310   20.7940   76.1200 C.2   148  GLU148      0.2592
     79  O         12.9160   20.8480   76.2640 O.2   148  GLU148     -0.2718
     80  CB        15.3130   22.9620   75.7640 C.3   148  GLU148      0.0402
     81  CG        16.1220   24.0880   76.3920 C.3   148  GLU148      0.1161
     82  CD        16.7110   25.0730   75.3790 C.2   148  GLU148      0.3649
     83  OE1       16.7150   24.7650   74.1660 O.co2 148  GLU148     -0.2457
     84  OE2       17.2290   26.1290   75.8090 O.co2 148  GLU148     -0.2457
     85  N         14.7340   19.8240   75.4240 N.am  149  THR149     -0.1953
     86  CA        13.9600   18.8330   74.6730 C.3   149  THR149      0.1897
     87  C         13.3600   17.8430   75.6250 C.2   149  THR149      0.2313
     88  O         12.1960   17.4560   75.4720 O.2   149  THR149     -0.2863
     89  CB        14.8600   18.0820   73.6510 C.3   149  THR149      0.1794
     90  OG1       15.5180   19.0800   72.8570 O.3   149  THR149     -0.2208
     91  CG2       14.0670   17.1090   72.8020 C.3   149  THR149      0.0378
     92  N         10.3300   19.4880   77.2130 N.3   152  ALA152     -0.1231
     93  CA         9.1950   19.6360   76.2780 C.3   152  ALA152      0.1694
     94  C          8.5810   18.2450   75.9610 C.2   152  ALA152      0.2592
     95  O          7.4060   18.1830   75.7490 O.2   152  ALA152     -0.2718
     96  CB         9.5500   20.4030   74.9770 C.3   152  ALA152      0.0304
     97  N          9.3650   17.1710   76.0640 N.am  153  TYR153     -0.1976
     98  CA         8.9190   15.7950   75.6990 C.3   153  TYR153      0.1639
     99  C          9.3950   14.8210   76.7730 C.2   153  TYR153      0.2290
    100  O         10.3540   14.0610   76.5510 O.2   153  TYR153     -0.2864
    101  CB         9.5020   15.3770   74.3230 C.3   153  TYR153      0.0560
    102  CG         9.0910   16.2840   73.2230 C.ar  153  TYR153     -0.0198
    103  CD1        7.8670   16.1460   72.5750 C.ar  153  TYR153     -0.0009
    104  CD2        9.8810   17.3140   72.8590 C.ar  153  TYR153     -0.0009
    105  CE1        7.4440   17.0940   71.5860 C.ar  153  TYR153      0.0417
    106  CE2        9.5180   18.2240   71.8900 C.ar  153  TYR153      0.0417
    107  CZ         8.3040   18.0860   71.2270 C.ar  153  TYR153      0.1957
    108  OH         8.0050   19.0300   70.2270 O.3   153  TYR153     -0.2866
@<TRIPOS>BOND
     1    39    38    2
     2    32    31    2
     3     2     1    1
     4     2     3    1
     5     2     5    1
     6     8     3   am
     7     8     9    1
     8     6     5    1
     9    38    40   am
    10    38    37    1
    11     3     4    2
    12     9    10    1
    13     5     7    1
    14    31    30    1
    15    31    33   am
    16    50    51    1
    17    34    37    1
    18    34    33    1
    19    34    35    1
    20    21    18    1
    21    36    35    2
    22    30    29    1
    23    25    24    2
    24    35    41   am
    25    51    52    1
    26    51    54    1
    27    10    11    2
    28    10    12   am
    29    52    53    2
    30    43    44    2
    31    43    42    1
    32    41    42    1
    33    12    13    1
    34    24    29   am
    35    24    23    1
    36    18    17    1
    37    18    19    1
    38    17    14   am
    39    20    19    2
    40    42    45    1
    41    19    22   am
    42    56    54    1
    43    54    55    1
    44    22    28    1
    45    22    23    1
    46    48    47   ar
    47    28    27    1
    48    45    46    1
    49    23    26    1
    50    14    13    1
    51    14    15    2
    52    13    16    1
    53    59    58    1
    54    59    60    2
    55    26    27    1
    56    58    57    1
    57    58    61    1
    58    47    46    1
    59    47    49   ar
    60   108   107    1
    61    63    61    1
    62    61    62    1
    63    62    64    1
    64   107   105   ar
    65   107   106   ar
    66   105   103   ar
    67    70    71    1
    68    70    69    1
    69    72    71    1
    70    72    73    2
    71    75    73    1
    72   106   104   ar
    73    73    74    1
    74   103   102   ar
    75    69    66    1
    76    91    89    1
    77    90    89    1
    78   104   102   ar
    79   102   101    1
    80    89    86    1
    81    66    67    1
    82    66    65    1
    83    83    82   ar
    84    68    67    2
    85   101    98    1
    86    86    85    1
    87    86    87    1
    88    96    93    1
    89    82    84   ar
    90    82    81    1
    91    85    78   am
    92    88    87    2
    93    98    97    1
    94    98    99    1
    95    95    94    2
    96    80    81    1
    97    80    77    1
    98    94    97   am
    99    94    93    1
   100    78    79    2
   101    78    77    1
   102    93    92    1
   103   100    99    2
   104    77    76    1
