@<TRIPOS>MOLECULE
tmp/4ff6B01.pdb
 117 110 0 0 0
SMALL
GASTEIGER

@<TRIPOS>ATOM
      1  N        -19.7090  -19.6190    7.1740 N.3   108  PRO108     -0.2102
      2  CA       -20.3640  -20.6500    6.3790 C.3   108  PRO108      0.1504
      3  C        -20.2130  -22.0000    7.0830 C.2   108  PRO108      0.2576
      4  O        -19.6070  -22.0720    8.1500 O.2   108  PRO108     -0.2718
      5  CB       -19.5550  -20.6370    5.0860 C.3   108  PRO108      0.0282
      6  CG       -18.1820  -20.3340    5.5360 C.3   108  PRO108      0.0208
      7  CD       -18.3370  -19.3730    6.7010 C.3   108  PRO108      0.0893
      8  N        -20.7350  -23.0610    6.4840 N.am  109  GLY109     -0.1957
      9  CA       -20.7480  -24.3630    7.1240 C.3   109  GLY109      0.1869
     10  C        -19.4030  -25.0490    7.2830 C.2   109  GLY109      0.2309
     11  O        -19.2750  -25.9660    8.0870 O.2   109  GLY109     -0.2863
     12  N        -22.8320  -16.6080    2.6920 N.3   124  HIS124     -0.1226
     13  CA       -23.8340  -16.2990    3.6870 C.3   124  HIS124      0.1752
     14  C        -23.6990  -17.3650    4.7400 C.2   124  HIS124      0.2597
     15  O        -23.0450  -18.3820    4.5030 O.2   124  HIS124     -0.2718
     16  CB       -25.2260  -16.3700    3.0770 C.3   124  HIS124      0.0759
     17  CG       -25.5300  -17.6890    2.4370 C.ar  124  HIS124      0.0818
     18  ND1      -25.4000  -17.9110    1.0770 N.ar  124  HIS124     -0.2268
     19  CD2      -25.9510  -18.8640    2.9670 C.ar  124  HIS124      0.1154
     20  CE1      -25.7210  -19.1620    0.8040 C.ar  124  HIS124      0.1986
     21  NE2      -26.0560  -19.7650    1.9320 N.ar  124  HIS124     -0.2212
     22  N        -24.3100  -17.1440    5.9000 N.am  125  GLY125     -0.1942
     23  CA       -24.3150  -18.1650    6.9250 C.3   125  GLY125      0.2014
     24  C        -25.6140  -18.1830    7.6820 C.2   125  GLY125      0.2638
     25  O        -26.5940  -17.5470    7.2950 O.2   125  GLY125     -0.2714
     26  N        -25.5910  -18.8920    8.7970 N.am  126  LYS126     -0.1977
     27  CA       -26.7590  -19.1060    9.6340 C.3   126  LYS126      0.1596
     28  C        -27.3600  -17.8000   10.1690 C.2   126  LYS126      0.2287
     29  O        -28.5010  -17.7700   10.6200 O.2   126  LYS126     -0.2864
     30  CB       -26.3660  -20.0480   10.7730 C.3   126  LYS126      0.0298
     31  CG       -27.5270  -20.5410   11.5780 C.3   126  LYS126      0.0038
     32  CD       -27.1430  -21.6980   12.4850 C.3   126  LYS126      0.0206
     33  CE       -28.3550  -22.1100   13.3010 C.3   126  LYS126      0.1093
     34  NZ       -28.1570  -23.4140   13.9870 N.3   126  LYS126     -0.1314
     35  N        -31.2630  -21.7380   11.4400 N.3   220  SER220     -0.1217
     36  CA       -31.3700  -22.6300   10.2950 C.3   220  SER220      0.1889
     37  C        -32.0660  -23.9360   10.7140 C.2   220  SER220      0.2288
     38  O        -32.2970  -24.1680   11.9030 O.2   220  SER220     -0.2866
     39  CB       -30.0040  -22.9010    9.6590 C.3   220  SER220      0.2089
     40  OG       -29.1510  -23.6470   10.5030 O.3   220  SER220     -0.2183
     41  N        -23.0650  -25.7400   14.9290 N.3   282  TYR282     -0.1241
     42  CA       -22.9550  -25.7470   13.4690 C.3   282  TYR282      0.1605
     43  C        -23.0460  -27.1420   12.8230 C.2   282  TYR282      0.2264
     44  O        -22.9850  -27.2680   11.6000 O.2   282  TYR282     -0.2867
     45  CB       -21.7050  -24.9840   12.9980 C.3   282  TYR282      0.0534
     46  CG       -22.0220  -23.5970   12.4840 C.ar  282  TYR282     -0.0201
     47  CD1      -22.3500  -23.3950   11.1510 C.ar  282  TYR282     -0.0009
     48  CD2      -22.0190  -22.4930   13.3310 C.ar  282  TYR282     -0.0009
     49  CE1      -22.6590  -22.1300   10.6640 C.ar  282  TYR282      0.0417
     50  CE2      -22.3280  -21.2140   12.8550 C.ar  282  TYR282      0.0417
     51  CZ       -22.6490  -21.0390   11.5160 C.ar  282  TYR282      0.1957
     52  OH       -22.9650  -19.7840   11.0100 O.3   282  TYR282     -0.2866
     53  N        -25.0450  -31.2010   -5.2990 N.3   287  GLN287     -0.1245
     54  CA       -25.4820  -30.2000   -4.3400 C.3   287  GLN287      0.1566
     55  C        -26.2450  -29.1380   -5.1100 C.2   287  GLN287      0.2260
     56  O        -25.7310  -28.5550   -6.0650 O.2   287  GLN287     -0.2867
     57  CB       -24.2910  -29.5810   -3.6100 C.3   287  GLN287      0.0367
     58  CG       -24.7240  -28.6790   -2.4490 C.3   287  GLN287      0.0905
     59  CD       -24.9590  -29.4880   -1.1910 C.2   287  GLN287      0.2608
     60  OE1      -23.9960  -29.9830   -0.5820 O.2   287  GLN287     -0.2717
     61  NE2      -26.2280  -29.7680   -0.8990 N.am  287  GLN287     -0.0878
     62  N        -28.7260  -25.7050   -4.6390 N.3   289  GLN289     -0.1245
     63  CA       -29.2280  -24.6900   -3.7230 C.3   289  GLN289      0.1566
     64  C        -29.9050  -23.5730   -4.4980 C.2   289  GLN289      0.2260
     65  O        -29.4110  -23.1220   -5.5420 O.2   289  GLN289     -0.2867
     66  CB       -28.1140  -24.1350   -2.8380 C.3   289  GLN289      0.0367
     67  CG       -28.5770  -23.0470   -1.8890 C.3   289  GLN289      0.0905
     68  CD       -27.4590  -22.5440   -0.9630 C.2   289  GLN289      0.2608
     69  OE1      -26.2840  -22.8550   -1.1580 O.2   289  GLN289     -0.2717
     70  NE2      -27.8320  -21.7650    0.0410 N.am  289  GLN289     -0.0878
     71  N        -30.7190  -28.3440    4.3060 N.3   318  VAL318     -0.1245
     72  CA       -30.7180  -27.1670    5.1720 C.3   318  VAL318      0.1561
     73  C        -31.6470  -26.0610    4.6690 C.2   318  VAL318      0.2260
     74  O        -31.5230  -25.6100    3.5450 O.2   318  VAL318     -0.2867
     75  CB       -29.2950  -26.6280    5.4190 C.3   318  VAL318      0.0252
     76  CG1      -29.3350  -25.4730    6.4110 C.3   318  VAL318      0.0019
     77  CG2      -28.3850  -27.7440    5.9430 C.3   318  VAL318      0.0019
     78  N        -33.4400  -22.1690    5.4720 N.3   320  LYS320     -0.1245
     79  CA       -33.2500  -20.9000    6.1620 C.3   320  LYS320      0.1561
     80  C        -34.0020  -19.7920    5.4290 C.2   320  LYS320      0.2260
     81  O        -34.1200  -19.8300    4.2080 O.2   320  LYS320     -0.2867
     82  CB       -31.7480  -20.5800    6.2430 C.3   320  LYS320      0.0271
     83  CG       -31.4300  -19.1150    6.2520 C.3   320  LYS320      0.0035
     84  CD       -30.1850  -18.8190    7.0250 C.3   320  LYS320      0.0206
     85  CE       -30.3560  -17.4890    7.7520 C.3   320  LYS320      0.1093
     86  NZ       -31.4210  -17.5620    8.7860 N.3   320  LYS320     -0.1314
     87  N        -34.6210  -20.1110    1.4870 N.3   338  ASN338     -0.1225
     88  CA       -33.3830  -20.7160    0.9850 C.3   338  ASN338      0.1785
     89  C        -33.2670  -22.1790    1.3820 C.2   338  ASN338      0.2597
     90  O        -33.5310  -22.5420    2.5290 O.2   338  ASN338     -0.2718
     91  CB       -32.1550  -19.9230    1.4450 C.3   338  ASN338      0.1169
     92  CG       -30.8510  -20.7210    1.3240 C.2   338  ASN338      0.2627
     93  OD1      -30.3240  -20.9290    0.2270 O.2   338  ASN338     -0.2716
     94  ND2      -30.3220  -21.1590    2.4620 N.am  338  ASN338     -0.0877
     95  N        -32.8750  -23.0210    0.4310 N.am  339  ILE339     -0.1966
     96  CA       -32.7780  -24.4570    0.6780 C.3   339  ILE339      0.1727
     97  C        -31.5530  -25.0790   -0.0350 C.2   339  ILE339      0.2616
     98  O        -31.2050  -24.7020   -1.1580 O.2   339  ILE339     -0.2715
     99  CB       -34.0990  -25.1340    0.2460 C.3   339  ILE339      0.0290
    100  CG1      -34.0930  -26.6500    0.4420 C.3   339  ILE339      0.0022
    101  CG2      -34.2830  -24.9010   -1.1590 C.3   339  ILE339      0.0023
    102  CD1      -33.3290  -27.1460    1.6640 C.3   339  ILE339      0.0001
    103  N        -30.8760  -25.9930    0.6580 N.am  340  CYS340     -0.1968
    104  CA       -29.8180  -26.8150    0.0820 C.3   340  CYS340      0.1712
    105  C        -30.2510  -28.2720    0.0760 C.2   340  CYS340      0.2296
    106  O        -30.7100  -28.7850    1.0990 O.2   340  CYS340     -0.2864
    107  CB       -28.5750  -26.7400    0.9490 C.3   340  CYS340      0.0983
    108  SG       -27.0510  -26.1840    0.1610 S.3   340  CYS340     -0.0798
    109  N        -22.2970  -23.3730   -5.7470 N.3   371  LYS371     -0.1245
    110  CA       -22.7690  -24.7620   -5.7540 C.3   371  LYS371      0.1561
    111  C        -22.9840  -25.3190   -7.1600 C.2   371  LYS371      0.2260
    112  O        -23.1430  -26.5230   -7.3360 O.2   371  LYS371     -0.2867
    113  CB       -24.0460  -24.9410   -4.9110 C.3   371  LYS371      0.0271
    114  CG       -23.8920  -24.6330   -3.4080 C.3   371  LYS371      0.0035
    115  CD       -23.7300  -25.8890   -2.5430 C.3   371  LYS371      0.0206
    116  CE       -22.9920  -25.5890   -1.2290 C.3   371  LYS371      0.1093
    117  NZ       -23.8150  -24.9460   -0.1460 N.3   371  LYS371     -0.1314
@<TRIPOS>BOND
     1   112   111    2
     2   111   110    1
     3    56    55    2
     4   110   109    1
     5   110   113    1
     6    65    64    2
     7    53    54    1
     8    55    54    1
     9   113   114    1
    10    62    63    1
    11    64    63    1
    12    54    57    1
    13    63    66    1
    14    57    58    1
    15   114   115    1
    16    66    67    1
    17   115   116    1
    18    58    59    1
    19    67    68    1
    20   116   117    1
    21    59    61   am
    22    59    60    2
    23   101    99    1
    24    69    68    2
    25    98    97    2
    26    68    70   am
    27    97   103   am
    28    97    96    1
    29   105   104    1
    30   105   106    2
    31   104   103    1
    32   104   107    1
    33   108   107    1
    34    93    92    2
    35    99   100    1
    36    99    96    1
    37    95    96    1
    38    95    89   am
    39   100   102    1
    40    20    18   ar
    41    20    21   ar
    42    88    89    1
    43    88    91    1
    44    88    87    1
    45    18    17   ar
    46    92    91    1
    47    92    94   am
    48    89    90    2
    49    21    19   ar
    50    17    19   ar
    51    17    16    1
    52    12    13    1
    53    16    13    1
    54    74    73    2
    55    13    14    1
    56    81    80    2
    57    71    72    1
    58    15    14    2
    59    73    72    1
    60    14    22   am
    61     5     6    1
    62     5     2    1
    63    72    75    1
    64    75    77    1
    65    75    76    1
    66    80    79    1
    67    78    79    1
    68     6     7    1
    69    22    23    1
    70    79    82    1
    71    82    83    1
    72    83    84    1
    73     2     3    1
    74     2     1    1
    75     8     3   am
    76     8     9    1
    77     7     1    1
    78    23    24    1
    79    84    85    1
    80     3     4    2
    81     9    10    1
    82    10    11    2
    83    25    24    2
    84    24    26   am
    85    85    86    1
    86    26    27    1
    87    27    28    1
    88    27    30    1
    89    39    36    1
    90    39    40    1
    91    28    29    2
    92    36    37    1
    93    36    35    1
    94    49    47   ar
    95    49    51   ar
    96    37    38    2
    97    30    31    1
    98    52    51    1
    99    47    46   ar
   100    51    50   ar
   101    31    32    1
   102    44    43    2
   103    46    45    1
   104    46    48   ar
   105    32    33    1
   106    43    42    1
   107    50    48   ar
   108    45    42    1
   109    33    34    1
   110    42    41    1
