@<TRIPOS>MOLECULE
tmp/4ff7A00.pdb
 91 85 0 0 0
SMALL
GASTEIGER

@<TRIPOS>ATOM
      1  N          2.2300    0.8700  -28.5730 N.3     9  ASN9       -0.1240
      2  CA         2.7290   -0.1350  -27.6400 C.3     9  ASN9        0.1653
      3  C          2.3860   -1.5400  -28.1320 C.2     9  ASN9        0.2266
      4  O          1.2360   -1.9860  -28.0100 O.2     9  ASN9       -0.2867
      5  CB         2.1350    0.1160  -26.2550 C.3     9  ASN9        0.1155
      6  CG         2.6660   -0.8340  -25.2140 C.2     9  ASN9        0.2627
      7  OD1        3.5570   -1.6570  -25.4800 O.2     9  ASN9       -0.2716
      8  ND2        2.1170   -0.7360  -24.0110 N.am    9  ASN9       -0.0877
      9  N          3.2440   -4.2200  -26.9710 N.3    11  LYS11      -0.1245
     10  CA         3.2520   -5.1390  -25.8360 C.3    11  LYS11       0.1561
     11  C          4.0180   -6.3870  -26.2150 C.2    11  LYS11       0.2260
     12  O          4.9830   -6.3060  -26.9930 O.2    11  LYS11      -0.2867
     13  CB         1.8200   -5.4300  -25.3570 C.3    11  LYS11       0.0271
     14  CG         1.1030   -4.1510  -24.9900 C.3    11  LYS11       0.0035
     15  CD        -0.2580   -4.3810  -24.3220 C.3    11  LYS11       0.0206
     16  CE        -0.8600   -3.0390  -23.9700 C.3    11  LYS11       0.1093
     17  NZ        -2.1660   -3.1700  -23.2000 N.3    11  LYS11      -0.1314
     18  N          3.4310    1.4970  -17.1070 N.3    94  HIS94      -0.1241
     19  CA         2.2600    0.8880  -17.7270 C.3    94  HIS94       0.1621
     20  C          1.4970    0.0870  -16.6740 C.2    94  HIS94       0.2264
     21  O          2.1080   -0.5120  -15.7820 O.2    94  HIS94      -0.2867
     22  CB         2.6280   -0.0180  -18.9090 C.3    94  HIS94       0.0745
     23  CG         1.4550   -0.3380  -19.7740 C.ar   94  HIS94       0.0817
     24  ND1        0.5280   -1.3080  -19.4410 N.ar   94  HIS94      -0.2268
     25  CD2        1.0120    0.2370  -20.9140 C.ar   94  HIS94       0.1154
     26  CE1       -0.4120   -1.3410  -20.3700 C.ar   94  HIS94       0.1986
     27  NE2       -0.1490   -0.4120  -21.2720 N.ar   94  HIS94      -0.2212
     28  N         -4.4560    6.1750  -19.1170 N.3   164  GLU164     -0.1245
     29  CA        -5.1290    4.9600  -19.5830 C.3   164  GLU164      0.1567
     30  C         -6.0290    4.3510  -18.5090 C.2   164  GLU164      0.2260
     31  O         -5.5370    3.7810  -17.5460 O.2   164  GLU164     -0.2867
     32  CB        -4.0960    3.9220  -20.0610 C.3   164  GLU164      0.0388
     33  CG        -3.0950    4.4830  -21.0810 C.3   164  GLU164      0.1160
     34  CD        -2.0350    3.4860  -21.5190 C.2   164  GLU164      0.3649
     35  OE1       -0.9900    3.3560  -20.8200 O.co2 164  GLU164     -0.2457
     36  OE2       -2.2310    2.8510  -22.5820 O.co2 164  GLU164     -0.2457
     37  N         -8.3840   -1.2740  -21.0240 N.3   169  ILE169     -0.1231
     38  CA        -7.3150   -2.0400  -21.6740 C.3   169  ILE169      0.1692
     39  C         -7.7510   -3.4640  -22.0760 C.2   169  ILE169      0.2592
     40  O         -8.0670   -4.2950  -21.2130 O.2   169  ILE169     -0.2718
     41  CB        -6.0560   -2.1140  -20.7690 C.3   169  ILE169      0.0266
     42  CG1       -5.5780   -0.6960  -20.4290 C.3   169  ILE169      0.0019
     43  CG2       -4.9450   -2.9200  -21.4520 C.3   169  ILE169      0.0020
     44  CD1       -4.3780   -0.6540  -19.4920 C.3   169  ILE169      0.0001
     45  N         -7.7800   -3.7320  -23.3850 N.am  170  GLY170     -0.1957
     46  CA        -7.9500   -5.0850  -23.9130 C.3   170  GLY170      0.1869
     47  C         -9.3840   -5.5770  -23.9080 C.2   170  GLY170      0.2309
     48  O         -9.6730   -6.7250  -24.2930 O.2   170  GLY170     -0.2863
     49  N         -6.2820    3.0510  -24.1790 N.3   209  GLY209     -0.1210
     50  CA        -7.2480    2.0630  -23.7210 C.3   209  GLY209      0.1956
     51  C         -8.2880    1.8290  -24.7980 C.2   209  GLY209      0.2613
     52  O         -9.2310    2.6140  -24.9170 O.2   209  GLY209     -0.2717
     53  N         -8.1130    0.7680  -25.5880 N.am  210  SER210     -0.1938
     54  CA        -9.0000    0.4650  -26.7160 C.3   210  SER210      0.2055
     55  C         -9.1170    1.5880  -27.7610 C.2   210  SER210      0.2642
     56  O        -10.1250    1.6880  -28.4630 O.2   210  SER210     -0.2714
     57  CB       -10.3940    0.0290  -26.2390 C.3   210  SER210      0.2130
     58  OG       -10.3040   -1.1290  -25.4120 O.3   210  SER210     -0.2179
     59  N         -8.0860    2.4190  -27.8800 N.am  211  ALA211     -0.1977
     60  CA        -8.0440    3.3850  -28.9830 C.3   211  ALA211      0.1597
     61  C         -7.7930    2.6710  -30.3080 C.2   211  ALA211      0.2287
     62  O         -6.9080    1.8180  -30.4180 O.2   211  ALA211     -0.2864
     63  CB        -6.9750    4.4650  -28.7320 C.3   211  ALA211      0.0319
     64  N         -1.9090    6.5820  -26.7450 N.3   229  LEU229     -0.1231
     65  CA        -1.0030    5.4370  -26.6060 C.3   229  LEU229      0.1693
     66  C         -1.7770    4.2070  -27.0620 C.2   229  LEU229      0.2592
     67  O         -2.6510    3.7090  -26.3490 O.2   229  LEU229     -0.2718
     68  CB        -0.4750    5.2740  -25.1770 C.3   229  LEU229      0.0284
     69  CG         0.6060    4.1850  -24.9970 C.3   229  LEU229      0.0019
     70  CD1        1.8150    4.3740  -25.9220 C.3   229  LEU229      0.0001
     71  CD2        1.0590    4.1280  -23.5360 C.3   229  LEU229      0.0001
     72  N         -1.4730    3.7450  -28.2710 N.am  230  VAL230     -0.1966
     73  CA        -2.2570    2.7060  -28.9260 C.3   230  VAL230      0.1727
     74  C         -1.7250    1.3470  -28.5250 C.2   230  VAL230      0.2617
     75  O         -0.5260    1.1530  -28.4210 O.2   230  VAL230     -0.2715
     76  CB        -2.2230    2.8770  -30.4580 C.3   230  VAL230      0.0290
     77  CG1       -3.0550    1.8040  -31.1630 C.3   230  VAL230      0.0023
     78  CG2       -2.6980    4.2920  -30.8240 C.3   230  VAL230      0.0023
     79  N         -2.6230    0.4180  -28.2430 N.am  231  GLY231     -0.1940
     80  CA        -2.2030   -0.9240  -27.8870 C.3   231  GLY231      0.2014
     81  C         -2.3590   -1.8340  -29.0890 C.2   231  GLY231      0.2639
     82  O         -1.6300   -1.6970  -30.0800 O.2   231  GLY231     -0.2714
     83  N         -3.3190   -2.7500  -29.0310 N.am  232  GLY232     -0.1939
     84  CA        -3.4550   -3.7570  -30.0740 C.3   232  GLY232      0.2014
     85  C         -3.5360   -3.2270  -31.5010 C.2   232  GLY232      0.2638
     86  O         -3.0530   -3.8630  -32.4340 O.2   232  GLY232     -0.2714
     87  N         -4.1240   -2.0530  -31.6750 N.am  233  ALA233     -0.1977
     88  CA        -4.3300   -1.5200  -33.0250 C.3   233  ALA233      0.1597
     89  C         -3.0280   -1.0500  -33.6500 C.2   233  ALA233      0.2287
     90  O         -2.9630   -0.8080  -34.8630 O.2   233  ALA233     -0.2864
     91  CB        -5.3630   -0.4010  -33.0150 C.3   233  ALA233      0.0319
@<TRIPOS>BOND
     1    90    89    2
     2    89    88    1
     3    88    91    1
     4    88    87    1
     5    86    85    2
     6    87    85   am
     7    85    84    1
     8    77    76    1
     9    78    76    1
    10    76    73    1
    11    62    61    2
    12    61    60    1
    13    82    81    2
    14    84    83    1
    15    81    83   am
    16    81    80    1
    17    60    63    1
    18    60    59    1
    19    73    74    1
    20    73    72    1
    21     1     2    1
    22    74    75    2
    23    74    79   am
    24    56    55    2
    25    72    66   am
    26    79    80    1
    27     3     4    2
    28     3     2    1
    29    59    55   am
    30    55    54    1
    31     2     5    1
    32    66    65    1
    33    66    67    2
    34    12    11    2
    35     9    10    1
    36    64    65    1
    37    54    57    1
    38    54    53    1
    39    65    68    1
    40     5     6    1
    41    57    58    1
    42    11    10    1
    43    70    69    1
    44    10    13    1
    45    53    51   am
    46     7     6    2
    47    13    14    1
    48     6     8   am
    49    68    69    1
    50    69    71    1
    51    14    15    1
    52    52    51    2
    53    51    50    1
    54    15    16    1
    55    48    47    2
    56    49    50    1
    57    16    17    1
    58    46    47    1
    59    46    45    1
    60    45    39   am
    61    36    34   ar
    62    39    38    1
    63    39    40    2
    64    38    37    1
    65    38    41    1
    66    34    33    1
    67    34    35   ar
    68    43    41    1
    69    27    25   ar
    70    27    26   ar
    71    33    32    1
    72    25    23   ar
    73    41    42    1
    74    42    44    1
    75    26    24   ar
    76    32    29    1
    77    23    24   ar
    78    23    22    1
    79    29    28    1
    80    29    30    1
    81    22    19    1
    82    30    31    2
    83    19    18    1
    84    19    20    1
    85    20    21    2
