@<TRIPOS>MOLECULE
tmp/4ff8A00.pdb
 123 120 0 0 0
SMALL
GASTEIGER

@<TRIPOS>ATOM
      1  N         39.0240   26.2610   16.4810 N.3     9  ALA9       -0.1245
      2  CA        38.9610   25.3250   15.3550 C.3     9  ALA9        0.1562
      3  C         39.4060   26.0250   14.0850 C.2     9  ALA9        0.2260
      4  O         38.9780   27.1400   13.8220 O.2     9  ALA9       -0.2867
      5  CB        37.5470   24.7990   15.1840 C.3     9  ALA9        0.0290
      6  N         36.0220   21.4090    7.7730 N.3    14  LEU14      -0.1231
      7  CA        36.6230   21.4350    9.1310 C.3    14  LEU14       0.1678
      8  C         37.5950   20.2620    9.3700 C.2    14  LEU14       0.2434
      9  O         37.4460   19.2050    8.7560 O.2    14  LEU14      -0.2733
     10  CB        35.5220   21.3690   10.2060 C.3    14  LEU14       0.0284
     11  CG        34.5190   22.5240   10.3510 C.3    14  LEU14       0.0019
     12  CD1       33.3530   22.1290   11.2450 C.3    14  LEU14       0.0001
     13  CD2       35.1920   23.7750   10.8940 C.3    14  LEU14       0.0001
     14  N         38.5680   20.4230   10.2990 N.am   15  PRO15      -0.2718
     15  CA        39.4650   19.2950   10.5550 C.3    15  PRO15       0.1535
     16  C         38.7140   18.1380   11.1610 C.2    15  PRO15       0.2599
     17  O         37.6300   18.3240   11.7100 O.2    15  PRO15      -0.2715
     18  CB        40.4860   19.8500   11.5560 C.3    15  PRO15       0.0310
     19  CG        40.3120   21.3300   11.5440 C.3    15  PRO15       0.0237
     20  CD        38.8840   21.5740   11.1600 C.3    15  PRO15       0.0939
     21  N         39.2810   16.9480   11.0440 N.am   16  PHE16      -0.1960
     22  CA        38.6950   15.7630   11.6430 C.3    16  PHE16       0.1771
     23  C         39.2660   15.6590   13.0470 C.2    16  PHE16       0.2619
     24  O         40.4820   15.7400   13.2030 O.2    16  PHE16      -0.2715
     25  CB        39.0450   14.5170   10.8350 C.3    16  PHE16       0.0574
     26  CG        38.5950   13.2430   11.4790 C.ar   16  PHE16      -0.0200
     27  CD1       37.2860   12.8190   11.3540 C.ar   16  PHE16      -0.0042
     28  CD2       39.4820   12.4750   12.2210 C.ar   16  PHE16      -0.0042
     29  CE1       36.8640   11.6460   11.9480 C.ar   16  PHE16      -0.0003
     30  CE2       39.0690   11.2980   12.8170 C.ar   16  PHE16      -0.0003
     31  CZ        37.7600   10.8810   12.6760 C.ar   16  PHE16      -0.0000
     32  N         38.3920   15.4880   14.0490 N.am   17  MET17      -0.1963
     33  CA        38.7690   15.5400   15.4750 C.3    17  MET17       0.1736
     34  C         38.5580   14.1580   16.1100 C.2    17  MET17       0.2616
     35  O         37.4250   13.7610   16.3790 O.2    17  MET17      -0.2715
     36  CB        37.9100   16.5700   16.2040 C.3    17  MET17       0.0427
     37  CG        37.8830   17.9640   15.5900 C.3    17  MET17       0.0599
     38  SD        39.3850   18.9270   15.8530 S.3    17  MET17      -0.1393
     39  CE        39.3790   19.2510   17.6120 C.3    17  MET17       0.0692
     40  N         39.6430   13.4310   16.3690 N.am   18  LYS18      -0.1963
     41  CA        39.5480   12.0010   16.7050 C.3    18  LYS18       0.1728
     42  C         38.6470   11.6950   17.9150 C.2    18  LYS18       0.2616
     43  O         38.0150   10.6390   17.9900 O.2    18  LYS18      -0.2715
     44  CB        40.9380   11.4210   16.9530 C.3    18  LYS18       0.0311
     45  CG        41.0440    9.9180   16.7570 C.3    18  LYS18       0.0038
     46  CD        42.3500    9.3840   17.3520 C.3    18  LYS18       0.0206
     47  CE        43.0140    8.3530   16.4490 C.3    18  LYS18       0.1093
     48  NZ        42.0950    7.2700   15.9900 N.3    18  LYS18      -0.1314
     49  N         38.5860   12.6270   18.8530 N.am   19  HIS19      -0.1959
     50  CA        37.9570   12.3730   20.1250 C.3    19  HIS19       0.1787
     51  C         36.6510   13.1230   20.3050 C.2    19  HIS19       0.2621
     52  O         36.1910   13.2670   21.4340 O.2    19  HIS19      -0.2715
     53  CB        38.9230   12.7860   21.2280 C.3    19  HIS19       0.0785
     54  CG        40.2370   12.0800   21.1770 C.ar   19  HIS19       0.0821
     55  ND1       40.3490   10.7110   21.2820 N.ar   19  HIS19      -0.2267
     56  CD2       41.5010   12.5540   21.0680 C.ar   19  HIS19       0.1154
     57  CE1       41.6250   10.3690   21.2180 C.ar   19  HIS19       0.1986
     58  NE2       42.3470   11.4700   21.0970 N.ar   19  HIS19      -0.2212
     59  N         36.0760   13.6350   19.2150 N.am   20  GLY20      -0.1940
     60  CA        34.7300   14.1750   19.2470 C.3    20  GLY20       0.2014
     61  C         34.5510   15.5450   19.8610 C.2    20  GLY20       0.2638
     62  O         35.5110   16.2430   20.1080 O.2    20  GLY20      -0.2714
     63  N         33.2940   15.9500   20.0580 N.am   21  ASP21      -0.1971
     64  CA        32.9960   17.1300   20.8580 C.3    21  ASP21       0.1709
     65  C         33.1770   16.8480   22.3540 C.2    21  ASP21       0.2293
     66  O         33.1940   15.6900   22.7870 O.2    21  ASP21      -0.2864
     67  CB        31.6120   17.6800   20.5240 C.3    21  ASP21       0.1436
     68  CG        30.4870   16.9050   21.1670 C.2    21  ASP21       0.3671
     69  OD1       30.5250   16.6870   22.3990 O.co2  21  ASP21      -0.2456
     70  OD2       29.5350   16.5540   20.4360 O.co2  21  ASP21      -0.2456
     71  N         29.8240   15.1370   24.2310 N.3    24  ALA24      -0.1231
     72  CA        29.7100   13.6800   23.9800 C.3    24  ALA24       0.1694
     73  C         30.8350   12.9570   24.6550 C.2    24  ALA24       0.2592
     74  O         30.6250   11.9270   25.2910 O.2    24  ALA24      -0.2718
     75  CB        29.6960   13.3600   22.4900 C.3    24  ALA24       0.0304
     76  N         32.0190   13.5470   24.5880 N.am   25  PHE25      -0.1976
     77  CA        33.1590   12.9970   25.2840 C.3    25  PHE25       0.1639
     78  C         32.8650   12.8840   26.7660 C.2    25  PHE25       0.2290
     79  O         32.7550   11.7730   27.2660 O.2    25  PHE25      -0.2864
     80  CB        34.4330   13.8140   25.0570 C.3    25  PHE25       0.0560
     81  CG        35.6300   13.2510   25.7850 C.ar   25  PHE25      -0.0200
     82  CD1       35.9240   13.6470   27.0680 C.ar   25  PHE25      -0.0042
     83  CD2       36.4100   12.2680   25.1990 C.ar   25  PHE25      -0.0042
     84  CE1       36.9980   13.1080   27.7470 C.ar   25  PHE25      -0.0003
     85  CE2       37.4790   11.7190   25.8670 C.ar   25  PHE25      -0.0003
     86  CZ        37.7670   12.1270   27.1520 C.ar   25  PHE25      -0.0000
     87  N         30.5790   10.2050   27.4240 N.3    28  ALA28      -0.1245
     88  CA        31.1360    8.8510   27.2820 C.3    28  ALA28       0.1562
     89  C         31.7710    8.3870   28.5900 C.2    28  ALA28       0.2260
     90  O         31.5790    7.2470   29.0080 O.2    28  ALA28      -0.2867
     91  CB        32.1580    8.8120   26.1620 C.3    28  ALA28       0.0290
     92  N         29.0710   21.0500   23.8240 N.3    63  ARG63      -0.1231
     93  CA        28.7920   20.4270   22.5340 C.3    63  ARG63       0.1694
     94  C         29.6130   21.0790   21.4250 C.2    63  ARG63       0.2592
     95  O         30.0800   20.3960   20.5070 O.2    63  ARG63      -0.2718
     96  CB        27.2890   20.4360   22.2030 C.3    63  ARG63       0.0321
     97  CG        26.6430   21.8140   22.0480 C.3    63  ARG63       0.0489
     98  CD        25.1580   21.7820   21.5760 C.3    63  ARG63       0.2205
     99  NE        24.5400   23.1190   21.6270 N.pl3  63  ARG63      -0.0865
    100  CZ        24.2230   23.7540   22.7670 C.cat  63  ARG63       0.5346
    101  NH1       24.4350   23.1760   23.9570 N.pl3  63  ARG63       0.1354
    102  NH2       23.7160   24.9950   22.7500 N.pl3  63  ARG63       0.1354
    103  N         29.8340   22.3870   21.5150 N.am   64  ASN64      -0.1974
    104  CA        30.5110   23.1080   20.4370 C.3    64  ASN64       0.1688
    105  C         31.9840   23.3930   20.7150 C.2    64  ASN64       0.2292
    106  O         32.5450   24.3600   20.2020 O.2    64  ASN64      -0.2864
    107  CB        29.7680   24.4160   20.1550 C.3    64  ASN64       0.1181
    108  CG        28.4010   24.1880   19.5370 C.2    64  ASN64       0.2629
    109  OD1       28.1900   23.2130   18.8300 O.2    64  ASN64      -0.2716
    110  ND2       27.4790   25.1070   19.7810 N.am   64  ASN64      -0.0877
    111  N         35.7150   21.2130   20.7420 N.3    66  MET66      -0.1245
    112  CA        36.1830   19.9670   20.1360 C.3    66  MET66       0.1570
    113  C         37.5200   19.5260   20.7390 C.2    66  MET66       0.2261
    114  O         38.3720   20.3510   20.9830 O.2    66  MET66      -0.2867
    115  CB        36.2700   20.0960   18.6130 C.3    66  MET66       0.0387
    116  CG        34.9470   20.3210   17.8910 C.3    66  MET66       0.0595
    117  SD        33.7530   18.9520   17.9680 S.3    66  MET66      -0.1393
    118  CE        34.1610   18.0540   16.4680 C.3    66  MET66       0.0692
    119  N         34.7060   25.7870   18.5720 N.3    76  ALA76      -0.1245
    120  CA        34.1460   25.7050   17.2100 C.3    76  ALA76       0.1562
    121  C         32.8450   26.4710   17.0830 C.2    76  ALA76       0.2260
    122  O         31.8730   25.9470   16.5150 O.2    76  ALA76      -0.2867
    123  CB        33.9040   24.2560   16.8530 C.3    76  ALA76       0.0290
@<TRIPOS>BOND
     1     6     7    1
     2     9     8    2
     3     7     8    1
     4     7    10    1
     5     8    14   am
     6    10    11    1
     7    14    15    1
     8    14    20    1
     9    11    13    1
    10    11    12    1
    11    15    16    1
    12    15    18    1
    13    25    26    1
    14    25    22    1
    15    21    16   am
    16    21    22    1
    17    20    19    1
    18    16    17    2
    19    27    26   ar
    20    27    29   ar
    21    26    28   ar
    22    19    18    1
    23    22    23    1
    24    29    31   ar
    25    28    30   ar
    26    31    30   ar
    27    23    24    2
    28    23    32   am
    29     4     3    2
    30    32    33    1
    31     3     2    1
    32     5     2    1
    33     2     1    1
    34    33    34    1
    35    33    36    1
    36    37    38    1
    37    37    36    1
    38    38    39    1
    39    48    47    1
    40    34    40   am
    41    34    35    2
    42    40    41    1
    43    47    46    1
    44   118   117    1
    45   122   121    2
    46    41    44    1
    47    41    42    1
    48    45    44    1
    49    45    46    1
    50   123   120    1
    51   121   120    1
    52   120   119    1
    53   116   117    1
    54   116   115    1
    55    42    43    2
    56    42    49   am
    57   115   112    1
    58   109   108    2
    59    49    50    1
    60    59    60    1
    61    59    51   am
    62    60    61    1
    63   108   110   am
    64   108   107    1
    65    61    63   am
    66    61    62    2
    67    63    64    1
    68    50    51    1
    69    50    53    1
    70   112   113    1
    71   112   111    1
    72   107   104    1
    73   106   105    2
    74    51    52    2
    75    70    68   ar
    76   104   105    1
    77   104   103    1
    78    95    94    2
    79    67    64    1
    80    67    68    1
    81   113   114    2
    82    64    65    1
    83    56    58   ar
    84    56    54   ar
    85    58    57   ar
    86    68    69   ar
    87    54    53    1
    88    54    55   ar
    89    57    55   ar
    90    94   103   am
    91    94    93    1
    92    98    99    1
    93    98    97    1
    94    99   100    2
    95    97    96    1
    96    96    93    1
    97    65    66    2
    98    75    72    1
    99    93    92    1
   100   102   100    1
   101   100   101    1
   102    72    71    1
   103    72    73    1
   104    76    73   am
   105    76    77    1
   106    73    74    2
   107    80    77    1
   108    80    81    1
   109    83    81   ar
   110    83    85   ar
   111    77    78    1
   112    81    82   ar
   113    85    86   ar
   114    91    88    1
   115    78    79    2
   116    82    84   ar
   117    86    84   ar
   118    88    87    1
   119    88    89    1
   120    89    90    2
