@<TRIPOS>MOLECULE
tmp/4ffgA00.pdb
 120 114 0 0 0
SMALL
GASTEIGER

@<TRIPOS>ATOM
      1  N         -6.2630   18.2620   15.7940 N.3   128  ASP128     -0.1239
      2  CA        -5.6620   18.9740   16.9170 C.3   128  ASP128      0.1674
      3  C         -4.1510   19.0340   16.7170 C.2   128  ASP128      0.2266
      4  O         -3.5010   20.0040   17.0980 O.2   128  ASP128     -0.2867
      5  CB        -5.9510   18.2690   18.2490 C.3   128  ASP128      0.1410
      6  CG        -7.4280   18.2090   18.5790 C.2   128  ASP128      0.3668
      7  OD1       -8.1540   19.1850   18.3010 O.co2 128  ASP128     -0.2456
      8  OD2       -7.8610   17.1840   19.1400 O.co2 128  ASP128     -0.2456
      9  N         -2.0870   17.0230   24.1820 N.3   140  ASN140     -0.1240
     10  CA        -3.4390   16.5730   23.8900 C.3   140  ASN140      0.1653
     11  C         -3.5150   15.9250   22.5180 C.2   140  ASN140      0.2266
     12  O         -4.2130   14.9310   22.3270 O.2   140  ASN140     -0.2867
     13  CB        -4.4030   17.7540   23.9620 C.3   140  ASN140      0.1155
     14  CG        -5.7990   17.3910   23.5350 C.2   140  ASN140      0.2627
     15  OD1       -6.1260   17.4180   22.3520 O.2   140  ASN140     -0.2716
     16  ND2       -6.6320   17.0340   24.4990 N.am  140  ASN140     -0.0877
     17  N         -8.0710    9.1800   24.7430 N.3   164  ARG164     -0.1231
     18  CA        -7.3910   10.4680   24.7830 C.3   164  ARG164      0.1694
     19  C         -6.8600   10.6880   26.1920 C.2   164  ARG164      0.2592
     20  O         -6.9590    9.7930   27.0370 O.2   164  ARG164     -0.2718
     21  CB        -8.3470   11.5800   24.3600 C.3   164  ARG164      0.0321
     22  CG        -9.0090   11.2870   23.0210 C.3   164  ARG164      0.0489
     23  CD        -9.2270   12.5370   22.1850 C.3   164  ARG164      0.2205
     24  NE        -7.9690   13.1770   21.8050 N.pl3 164  ARG164     -0.0865
     25  CZ        -7.8760   14.1650   20.9210 C.cat 164  ARG164      0.5346
     26  NH1       -8.9660   14.6240   20.3220 N.pl3 164  ARG164      0.1354
     27  NH2       -6.6970   14.6980   20.6400 N.pl3 164  ARG164      0.1354
     28  N         -6.2880   11.8560   26.4520 N.am  165  LEU165     -0.1966
     29  CA        -5.7340   12.1270   27.7730 C.3   165  LEU165      0.1728
     30  C         -6.8110   12.4090   28.8230 C.2   165  LEU165      0.2616
     31  O         -7.3910   13.4870   28.8600 O.2   165  LEU165     -0.2715
     32  CB        -4.7470   13.2960   27.7020 C.3   165  LEU165      0.0311
     33  CG        -4.0840   13.7280   29.0140 C.3   165  LEU165      0.0022
     34  CD1       -3.2030   12.6170   29.5550 C.3   165  LEU165      0.0001
     35  CD2       -3.2540   14.9740   28.7680 C.3   165  LEU165      0.0001
     36  N         -7.0720   11.4190   29.6700 N.am  166  ARG166     -0.1963
     37  CA        -8.0630   11.5340   30.7350 C.3   166  ARG166      0.1729
     38  C         -9.4970   11.7500   30.2590 C.2   166  ARG166      0.2616
     39  O        -10.3170   12.3210   30.9750 O.2   166  ARG166     -0.2715
     40  CB        -7.6640   12.6530   31.6980 C.3   166  ARG166      0.0348
     41  CG        -6.2890   12.4600   32.3040 C.3   166  ARG166      0.0492
     42  CD        -6.2040   11.1830   33.1300 C.3   166  ARG166      0.2205
     43  NE        -4.8520   10.9840   33.6440 N.pl3 166  ARG166     -0.0865
     44  CZ        -3.8500   10.4670   32.9420 C.cat 166  ARG166      0.5346
     45  NH1       -2.6530   10.3390   33.4910 N.pl3 166  ARG166      0.1354
     46  NH2       -4.0480   10.0520   31.7010 N.pl3 166  ARG166      0.1354
     47  N         -9.7950   11.3010   29.0450 N.am  167  TYR167     -0.1974
     48  CA       -11.1420   11.4090   28.4980 C.3   167  TYR167      0.1639
     49  C        -11.2520   10.5680   27.2350 C.2   167  TYR167      0.2290
     50  O        -10.2420   10.1650   26.6600 O.2   167  TYR167     -0.2864
     51  CB       -11.5100   12.8750   28.2260 C.3   167  TYR167      0.0560
     52  CG       -10.8600   13.5110   27.0180 C.ar  167  TYR167     -0.0198
     53  CD1      -11.4190   13.3720   25.7530 C.ar  167  TYR167     -0.0009
     54  CD2       -9.7080   14.2880   27.1460 C.ar  167  TYR167     -0.0009
     55  CE1      -10.8590   13.9940   24.6460 C.ar  167  TYR167      0.0417
     56  CE2       -9.1340   14.9150   26.0410 C.ar  167  TYR167      0.0417
     57  CZ        -9.7180   14.7640   24.7940 C.ar  167  TYR167      0.1957
     58  OH        -9.1770   15.3890   23.6940 O.3   167  TYR167     -0.2866
     59  N        -13.1560   10.0080   23.3070 N.3   169  ALA169     -0.1245
     60  CA       -13.8270   10.6800   22.2020 C.3   169  ALA169      0.1562
     61  C        -14.6410    9.6720   21.4060 C.2   169  ALA169      0.2260
     62  O        -14.2440    8.5160   21.2730 O.2   169  ALA169     -0.2867
     63  CB       -12.8000   11.3580   21.3020 C.3   169  ALA169      0.0290
     64  N        -17.1410    8.8340   17.7660 N.3   171  TYR171     -0.1241
     65  CA       -17.4370    9.1320   16.3670 C.3   171  TYR171      0.1605
     66  C        -18.4660    8.1310   15.8420 C.2   171  TYR171      0.2264
     67  O        -18.4650    6.9740   16.2560 O.2   171  TYR171     -0.2867
     68  CB       -16.1560    9.0160   15.5310 C.3   171  TYR171      0.0534
     69  CG       -15.0790   10.0190   15.8900 C.ar  171  TYR171     -0.0201
     70  CD1      -14.9640   11.2270   15.2030 C.ar  171  TYR171     -0.0009
     71  CD2      -14.1930    9.7720   16.9380 C.ar  171  TYR171     -0.0009
     72  CE1      -13.9930   12.1670   15.5500 C.ar  171  TYR171      0.0417
     73  CE2      -13.2190   10.7060   17.3000 C.ar  171  TYR171      0.0417
     74  CZ       -13.1240   11.9030   16.6020 C.ar  171  TYR171      0.1957
     75  OH       -12.1690   12.8290   16.9600 O.3   171  TYR171     -0.2866
     76  N        -17.8430   13.5110   14.5050 N.3   181  LEU181     -0.1231
     77  CA       -17.4840   13.7240   15.9020 C.3   181  LEU181      0.1693
     78  C        -18.6980   13.8320   16.8100 C.2   181  LEU181      0.2591
     79  O        -19.6990   14.4390   16.4440 O.2   181  LEU181     -0.2718
     80  CB       -16.6560   14.9990   16.0360 C.3   181  LEU181      0.0284
     81  CG       -16.2300   15.3770   17.4550 C.3   181  LEU181      0.0019
     82  CD1      -15.2270   14.3680   17.9760 C.3   181  LEU181      0.0001
     83  CD2      -15.6180   16.7630   17.4530 C.3   181  LEU181      0.0001
     84  N        -18.5970   13.2440   18.0000 N.am  182  ARG182     -0.1980
     85  CA       -19.6800   13.2810   18.9760 C.3   182  ARG182      0.1597
     86  C        -19.2230   13.9030   20.2890 C.2   182  ARG182      0.2287
     87  O        -18.2210   14.6100   20.3270 O.2   182  ARG182     -0.2864
     88  CB       -20.2190   11.8750   19.2150 C.3   182  ARG182      0.0334
     89  CG       -20.8670   11.2880   17.9860 C.3   182  ARG182      0.0492
     90  CD       -21.9590   12.2160   17.4890 C.3   182  ARG182      0.2205
     91  NE       -22.5530   11.7680   16.2360 N.pl3 182  ARG182     -0.0865
     92  CZ       -23.4850   12.4470   15.5750 C.cat 182  ARG182      0.5346
     93  NH1      -23.9220   13.6040   16.0570 N.pl3 182  ARG182      0.1354
     94  NH2      -23.9790   11.9730   14.4370 N.pl3 182  ARG182      0.1354
     95  N        -17.6370   13.9450   24.0390 N.3   184  ASN184     -0.1240
     96  CA       -16.6430   13.2240   24.8140 C.3   184  ASN184      0.1653
     97  C        -17.2090   12.6220   26.0950 C.2   184  ASN184      0.2266
     98  O        -18.2920   12.9850   26.5520 O.2   184  ASN184     -0.2867
     99  CB       -15.4880   14.1490   25.2040 C.3   184  ASN184      0.1155
    100  CG       -14.8460   14.8250   24.0160 C.2   184  ASN184      0.2627
    101  OD1      -14.8410   14.2940   22.9110 O.2   184  ASN184     -0.2716
    102  ND2      -14.2780   16.0010   24.2470 N.am  184  ASN184     -0.0877
    103  N        -16.3020   12.2190   29.9740 N.3   186  ASP186     -0.1239
    104  CA       -15.4140   12.7020   31.0160 C.3   186  ASP186      0.1674
    105  C        -15.7520   12.0510   32.3440 C.2   186  ASP186      0.2266
    106  O        -16.9150   11.8140   32.6500 O.2   186  ASP186     -0.2867
    107  CB       -15.5240   14.2220   31.1570 C.3   186  ASP186      0.1410
    108  CG       -14.8850   14.9640   30.0030 C.2   186  ASP186      0.3668
    109  OD1      -13.6850   14.7450   29.7450 O.co2 186  ASP186     -0.2456
    110  OD2      -15.5810   15.7740   29.3590 O.co2 186  ASP186     -0.2456
    111  N         -9.3040   11.7530   37.7120 N.3   190  HIS190     -0.1241
    112  CA        -8.1450   11.6080   36.8320 C.3   190  HIS190      0.1621
    113  C         -6.9240   10.9240   37.4390 C.2   190  HIS190      0.2264
    114  O         -5.9650   10.6290   36.7300 O.2   190  HIS190     -0.2867
    115  CB        -7.7490   12.9630   36.2480 C.3   190  HIS190      0.0745
    116  CG        -8.7480   13.5100   35.2760 C.ar  190  HIS190      0.0817
    117  ND1       -8.5550   14.6880   34.5890 N.ar  190  HIS190     -0.2268
    118  CD2       -9.9580   13.0430   34.8850 C.ar  190  HIS190      0.1154
    119  CE1       -9.6020   14.9250   33.8190 C.ar  190  HIS190      0.1986
    120  NE2      -10.4670   13.9410   33.9800 N.ar  190  HIS190     -0.2212
@<TRIPOS>BOND
     1    94    92    1
     2    76    77    1
     3    70    72   ar
     4    70    69   ar
     5    68    69    1
     6    68    65    1
     7    72    74   ar
     8    92    93    1
     9    92    91    2
    10     1     2    1
    11    66    67    2
    12    66    65    1
    13    69    71   ar
    14    77    80    1
    15    77    78    1
    16    80    81    1
    17    91    90    1
    18    65    64    1
    19    79    78    2
    20    74    75    1
    21    74    73   ar
    22     3     2    1
    23     3     4    2
    24    78    84   am
    25     2     5    1
    26    71    73   ar
    27    83    81    1
    28    81    82    1
    29    90    89    1
    30    89    88    1
    31    84    85    1
    32     5     6    1
    33     7     6   ar
    34     6     8   ar
    35    85    88    1
    36    85    86    1
    37    86    87    2
    38    26    25    1
    39    27    25    1
    40    25    24    2
    41    62    61    2
    42    63    60    1
    43    61    60    1
    44    24    23    1
    45    23    22    1
    46    60    59    1
    47    12    11    2
    48    15    14    2
    49    11    10    1
    50   101   100    2
    51    22    21    1
    52    14    13    1
    53    14    16   am
    54    58    57    1
    55    10    13    1
    56    10     9    1
    57   100   102   am
    58   100    99    1
    59    95    96    1
    60    21    18    1
    61    55    57   ar
    62    55    53   ar
    63    17    18    1
    64    18    19    1
    65    57    56   ar
    66    96    99    1
    67    96    97    1
    68    53    52   ar
    69    56    54   ar
    70    97    98    2
    71    19    28   am
    72    19    20    2
    73    28    29    1
    74    50    49    2
    75    52    54   ar
    76    52    51    1
    77    49    48    1
    78    32    29    1
    79    32    33    1
    80    29    30    1
    81    51    48    1
    82    48    47    1
    83    35    33    1
    84    30    31    2
    85    30    36   am
    86    33    34    1
    87    47    38   am
    88   110   108   ar
    89    36    37    1
    90   109   108   ar
    91   103   104    1
    92   108   107    1
    93    38    37    1
    94    38    39    2
    95    37    40    1
    96   104   107    1
    97   104   105    1
    98    40    41    1
    99    46    44    1
   100    41    42    1
   101   105   106    2
   102    44    45    1
   103    44    43    2
   104    42    43    1
   105   119   120   ar
   106   119   117   ar
   107   120   118   ar
   108   117   116   ar
   109   118   116   ar
   110   116   115    1
   111   115   112    1
   112   114   113    2
   113   112   113    1
   114   112   111    1
