@<TRIPOS>MOLECULE
tmp/4ffiD00.pdb
 184 184 0 0 0
SMALL
GASTEIGER

@<TRIPOS>ATOM
      1  N        -23.2780   54.5340  -62.9850 N.3    11  TRP11      -0.1241
      2  CA       -23.9510   55.5670  -62.2310 C.3    11  TRP11       0.1605
      3  C        -25.4060   55.8350  -62.6260 C.2    11  TRP11       0.2264
      4  O        -25.6910   56.1910  -63.7710 O.2    11  TRP11      -0.2867
      5  CB       -23.1060   56.8330  -62.3660 C.3    11  TRP11       0.0550
      6  CG       -23.7450   58.1030  -61.9490 C.ar   11  TRP11       0.0003
      7  CD1      -24.3890   58.9930  -62.7510 C.ar   11  TRP11       0.0946
      8  CD2      -23.7100   58.6880  -60.6450 C.ar   11  TRP11       0.0152
      9  NE1      -24.7490   60.1100  -62.0340 N.ar   11  TRP11      -0.2442
     10  CE2      -24.3430   59.9470  -60.7350 C.ar   11  TRP11       0.0810
     11  CE3      -23.2000   58.2730  -59.4090 C.ar   11  TRP11       0.0012
     12  CZ2      -24.4790   60.7960  -59.6410 C.ar   11  TRP11       0.0191
     13  CZ3      -23.3340   59.1140  -58.3210 C.ar   11  TRP11       0.0001
     14  CH2      -23.9690   60.3660  -58.4440 C.ar   11  TRP11       0.0015
     15  N        -28.9690   57.9980  -62.1620 N.3    13  CYS13      -0.1221
     16  CA       -29.3280   59.3560  -61.7980 C.3    13  CYS13       0.1808
     17  C        -30.8010   59.6280  -62.1190 C.2    13  CYS13       0.2601
     18  O        -31.5670   58.6920  -62.3360 O.2    13  CYS13      -0.2717
     19  CB       -28.4110   60.3450  -62.5250 C.3    13  CYS13       0.0970
     20  SG       -28.3260   61.9340  -61.7120 S.3    13  CYS13      -0.0800
     21  N        -31.1890   60.9010  -62.1480 N.am   14  ASN14      -0.1974
     22  CA       -32.5760   61.3090  -62.4130 C.3    14  ASN14       0.1688
     23  C        -33.3990   60.4000  -63.3180 C.2    14  ASN14       0.2292
     24  O        -33.0120   60.1160  -64.4530 O.2    14  ASN14      -0.2864
     25  CB       -32.6250   62.7140  -63.0320 C.3    14  ASN14       0.1181
     26  CG       -32.0360   63.7730  -62.1330 C.2    14  ASN14       0.2629
     27  OD1      -31.4000   63.4630  -61.1300 O.2    14  ASN14      -0.2716
     28  ND2      -32.2310   65.0380  -62.4960 N.am   14  ASN14      -0.0877
     29  N        -31.1640   59.0030  -66.3280 N.3    30  LEU30      -0.1231
     30  CA       -29.8280   59.4780  -66.5990 C.3    30  LEU30       0.1693
     31  C        -28.8580   58.3920  -66.1770 C.2    30  LEU30       0.2592
     32  O        -29.0430   57.7650  -65.1390 O.2    30  LEU30      -0.2718
     33  CB       -29.5560   60.7640  -65.8190 C.3    30  LEU30       0.0284
     34  CG       -30.5000   61.9430  -66.0850 C.3    30  LEU30       0.0019
     35  CD1      -30.0040   63.1490  -65.3150 C.3    30  LEU30       0.0001
     36  CD2      -30.5580   62.2640  -67.5740 C.3    30  LEU30       0.0001
     37  N        -27.8330   58.1680  -66.9910 N.am   31  HIS31      -0.1962
     38  CA       -26.8280   57.1570  -66.7020 C.3    31  HIS31       0.1787
     39  C        -25.4440   57.5850  -67.1860 C.2    31  HIS31       0.2620
     40  O        -25.3120   58.2560  -68.2060 O.2    31  HIS31      -0.2715
     41  CB       -27.2250   55.8270  -67.3590 C.3    31  HIS31       0.0785
     42  CG       -26.2200   54.7320  -67.1690 C.ar   31  HIS31       0.0821
     43  ND1      -25.0400   54.6700  -67.8790 N.ar   31  HIS31      -0.2267
     44  CD2      -26.2100   53.6690  -66.3300 C.ar   31  HIS31       0.1154
     45  CE1      -24.3470   53.6170  -67.4860 C.ar   31  HIS31       0.1986
     46  NE2      -25.0340   52.9930  -66.5470 N.ar   31  HIS31      -0.2212
     47  N        -24.4180   57.2040  -66.4370 N.am   32  SER32      -0.1950
     48  CA       -23.0420   57.5170  -66.7980 C.3    32  SER32       0.1924
     49  C        -22.1710   56.3280  -66.4590 C.2    32  SER32       0.2314
     50  O        -22.5290   55.5020  -65.6200 O.2    32  SER32      -0.2863
     51  CB       -22.5190   58.7240  -66.0170 C.3    32  SER32       0.2116
     52  OG       -23.3000   59.8750  -66.2560 O.3    32  SER32      -0.2180
     53  N        -21.2040   60.5800  -61.2010 N.3    36  ASN36      -0.1225
     54  CA       -21.4250   62.0090  -61.3830 C.3    36  ASN36       0.1785
     55  C        -20.6740   62.5310  -62.6140 C.2    36  ASN36       0.2598
     56  O        -20.2800   63.6920  -62.6650 O.2    36  ASN36      -0.2718
     57  CB       -20.9990   62.7830  -60.1280 C.3    36  ASN36       0.1169
     58  CG       -21.4000   64.2490  -60.1820 C.2    36  ASN36       0.2627
     59  OD1      -22.4300   64.5970  -60.7500 O.2    36  ASN36      -0.2716
     60  ND2      -20.5930   65.1110  -59.5750 N.am   36  ASN36      -0.0877
     61  N        -20.4780   61.6590  -63.5980 N.am   37  GLY37      -0.1943
     62  CA       -19.7940   62.0540  -64.8130 C.3    37  GLY37       0.1998
     63  C        -20.7730   62.3100  -65.9440 C.2    37  GLY37       0.2481
     64  O        -21.9750   62.1140  -65.7790 O.2    37  GLY37      -0.2729
     65  N        -20.2960   62.7550  -67.1110 N.am   38  PRO38      -0.2715
     66  CA       -21.1750   63.0270  -68.2540 C.3    38  PRO38       0.1536
     67  C        -21.8780   61.7510  -68.7060 C.2    38  PRO38       0.2599
     68  O        -21.2970   60.6710  -68.6500 O.2    38  PRO38      -0.2715
     69  CB       -20.2090   63.5420  -69.3210 C.3    38  PRO38       0.0310
     70  CG       -19.0780   64.1140  -68.5220 C.3    38  PRO38       0.0237
     71  CD       -18.9000   63.0790  -67.4400 C.3    38  PRO38       0.0939
     72  N        -23.1240   61.8770  -69.1520 N.am   39  GLY39      -0.1941
     73  CA       -23.8530   60.7090  -69.6040 C.3    39  GLY39       0.2014
     74  C        -25.0620   61.0360  -70.4610 C.2    39  GLY39       0.2639
     75  O        -25.1260   62.0890  -71.0980 O.2    39  GLY39      -0.2714
     76  N        -26.0280   60.1240  -70.4760 N.am   40  GLY40      -0.1954
     77  CA       -27.2290   60.3380  -71.2530 C.3    40  GLY40       0.1869
     78  C        -28.4190   59.5730  -70.7130 C.2    40  GLY40       0.2309
     79  O        -28.4690   59.2260  -69.5330 O.2    40  GLY40      -0.2863
     80  N        -23.4040   66.2630  -73.1830 N.3    66  PRO66      -0.2102
     81  CA       -24.1340   65.2640  -72.4010 C.3    66  PRO66       0.1504
     82  C        -25.6400   65.5270  -72.4590 C.2    66  PRO66       0.2576
     83  O        -26.0760   66.6200  -72.8260 O.2    66  PRO66      -0.2718
     84  CB       -23.5650   65.4500  -71.0030 C.3    66  PRO66       0.0282
     85  CG       -23.3770   66.9240  -70.9380 C.3    66  PRO66       0.0208
     86  CD       -22.7520   67.2420  -72.2960 C.3    66  PRO66       0.0893
     87  N        -26.4260   64.5200  -72.1020 N.am   67  VAL67      -0.1966
     88  CA       -27.8740   64.6470  -72.1220 C.3    67  VAL67       0.1727
     89  C        -28.4470   64.7190  -70.7120 C.2    67  VAL67       0.2616
     90  O        -28.2910   63.7950  -69.9190 O.2    67  VAL67      -0.2715
     91  CB       -28.5240   63.4520  -72.8380 C.3    67  VAL67       0.0290
     92  CG1      -29.9810   63.7560  -73.1260 C.3    67  VAL67       0.0023
     93  CG2      -27.7660   63.1350  -74.1240 C.3    67  VAL67       0.0023
     94  N        -29.1150   65.8200  -70.3980 N.am   68  TRP68      -0.1960
     95  CA       -29.7040   65.9530  -69.0870 C.3    68  TRP68       0.1771
     96  C        -31.1930   65.5920  -69.1110 C.2    68  TRP68       0.2620
     97  O        -31.6750   64.9960  -70.0740 O.2    68  TRP68      -0.2715
     98  CB       -29.4500   67.3610  -68.5360 C.3    68  TRP68       0.0590
     99  CG       -27.9770   67.6470  -68.4010 C.ar   68  TRP68       0.0006
    100  CD1      -26.9710   66.7230  -68.3390 C.ar   68  TRP68       0.0946
    101  CD2      -27.3460   68.9300  -68.2870 C.ar   68  TRP68       0.0152
    102  NE1      -25.7620   67.3470  -68.1950 N.ar   68  TRP68      -0.2442
    103  CE2      -25.9580   68.7010  -68.1600 C.ar   68  TRP68       0.0810
    104  CE3      -27.8170   70.2500  -68.2770 C.ar   68  TRP68       0.0012
    105  CZ2      -25.0300   69.7450  -68.0260 C.ar   68  TRP68       0.0191
    106  CZ3      -26.8890   71.2950  -68.1410 C.ar   68  TRP68       0.0001
    107  CH2      -25.5140   71.0310  -68.0180 C.ar   68  TRP68       0.0015
    108  N        -31.9070   65.9430  -68.0490 N.am   69  SER69      -0.1950
    109  CA       -33.3180   65.6020  -67.9210 C.3    69  SER69       0.1924
    110  C        -34.3110   66.2740  -68.8660 C.2    69  SER69       0.2314
    111  O        -34.0550   67.3400  -69.4360 O.2    69  SER69      -0.2863
    112  CB       -33.7680   65.8350  -66.4760 C.3    69  SER69       0.2116
    113  OG       -33.1380   64.9250  -65.5880 O.3    69  SER69      -0.2180
    114  N        -22.4230   75.6610  -70.1010 N.3    99  ARG99      -0.1245
    115  CA       -23.5170   75.5890  -69.1610 C.3    99  ARG99       0.1563
    116  C        -24.5540   76.6870  -69.3650 C.2    99  ARG99       0.2260
    117  O        -25.7450   76.4250  -69.2890 O.2    99  ARG99      -0.2867
    118  CB       -22.9750   75.6270  -67.7300 C.3    99  ARG99       0.0307
    119  CG       -24.0170   75.3100  -66.6790 C.3    99  ARG99       0.0489
    120  CD       -23.4680   75.4250  -65.2700 C.3    99  ARG99       0.2205
    121  NE       -24.5250   75.1690  -64.3000 N.pl3  99  ARG99      -0.0865
    122  CZ       -25.0900   73.9790  -64.1070 C.cat  99  ARG99       0.5346
    123  NH1      -24.6900   72.9250  -64.8120 N.pl3  99  ARG99       0.1354
    124  NH2      -26.0760   73.8480  -63.2290 N.pl3  99  ARG99       0.1354
    125  N        -33.5400   74.1530  -67.4230 N.3   145  ARG145     -0.1231
    126  CA       -33.5800   72.7360  -67.7710 C.3   145  ARG145      0.1694
    127  C        -34.7840   71.9200  -67.2730 C.2   145  ARG145      0.2592
    128  O        -35.6560   72.4180  -66.5610 O.2   145  ARG145     -0.2718
    129  CB       -32.3090   72.0840  -67.2330 C.3   145  ARG145      0.0321
    130  CG       -32.1180   72.3290  -65.7330 C.3   145  ARG145      0.0489
    131  CD       -30.9140   71.5720  -65.1760 C.3   145  ARG145      0.2205
    132  NE       -30.6410   71.9010  -63.7790 N.pl3 145  ARG145     -0.0865
    133  CZ       -30.0430   73.0180  -63.3680 C.cat 145  ARG145      0.5346
    134  NH1      -29.6460   73.9260  -64.2510 N.pl3 145  ARG145      0.1354
    135  NH2      -29.8410   73.2330  -62.0710 N.pl3 145  ARG145      0.1354
    136  N        -34.7850   70.6450  -67.6590 N.am  146  ASP146     -0.1974
    137  CA       -35.8020   69.6650  -67.2750 C.3   146  ASP146      0.1709
    138  C        -37.2290   69.9800  -67.7420 C.2   146  ASP146      0.2293
    139  O        -38.1200   70.2010  -66.9270 O.2   146  ASP146     -0.2864
    140  CB       -35.7920   69.4790  -65.7470 C.3   146  ASP146      0.1436
    141  CG       -34.3760   69.4430  -65.1580 C.2   146  ASP146      0.3671
    142  OD1      -33.4850   68.7820  -65.7370 O.co2 146  ASP146     -0.2456
    143  OD2      -34.1590   70.0770  -64.0990 O.co2 146  ASP146     -0.2456
    144  N        -36.0210   72.2010  -60.0310 N.3   196  GLU196     -0.1231
    145  CA       -35.4010   71.1640  -60.8360 C.3   196  GLU196      0.1699
    146  C        -36.4510   70.0900  -61.0780 C.2   196  GLU196      0.2592
    147  O        -37.3450   69.8920  -60.2630 O.2   196  GLU196     -0.2718
    148  CB       -34.1920   70.5580  -60.1140 C.3   196  GLU196      0.0402
    149  CG       -33.0210   71.5060  -59.9570 C.3   196  GLU196      0.1161
    150  CD       -31.7350   70.9540  -60.5500 C.2   196  GLU196      0.3649
    151  OE1      -31.7620   70.4710  -61.7160 O.co2 196  GLU196     -0.2457
    152  OE2      -30.6970   71.0160  -59.8570 O.co2 196  GLU196     -0.2457
    153  N        -36.3390   69.4040  -62.2060 N.am  197  CYS197     -0.1970
    154  CA       -37.2690   68.3480  -62.5620 C.3   197  CYS197      0.1712
    155  C        -38.7160   68.7120  -62.2330 C.2   197  CYS197      0.2296
    156  O        -39.3840   68.0470  -61.4380 O.2   197  CYS197     -0.2864
    157  CB       -36.8640   67.0600  -61.8510 C.3   197  CYS197      0.0983
    158  SG       -35.1530   66.5860  -62.1950 S.3   197  CYS197     -0.0798
    159  N        -35.2610   62.1130  -54.7250 N.3   258  TYR258     -0.1241
    160  CA       -34.9720   63.2590  -55.5660 C.3   258  TYR258      0.1605
    161  C        -35.2930   63.0740  -57.0430 C.2   258  TYR258      0.2264
    162  O        -35.2290   61.9630  -57.5830 O.2   258  TYR258     -0.2867
    163  CB       -33.4940   63.6430  -55.4060 C.3   258  TYR258      0.0534
    164  CG       -33.1940   65.0450  -55.8700 C.ar  258  TYR258     -0.0201
    165  CD1      -32.5940   65.2850  -57.1040 C.ar  258  TYR258     -0.0009
    166  CD2      -33.5830   66.1370  -55.1010 C.ar  258  TYR258     -0.0009
    167  CE1      -32.3910   66.5940  -57.5650 C.ar  258  TYR258      0.0417
    168  CE2      -33.3910   67.4340  -55.5450 C.ar  258  TYR258      0.0417
    169  CZ       -32.7980   67.6620  -56.7740 C.ar  258  TYR258      0.1957
    170  OH       -32.6290   68.9610  -57.1960 O.3   258  TYR258     -0.2866
    171  N        -28.0990   65.2910  -53.3580 N.3   282  TRP282     -0.1241
    172  CA       -26.9120   65.9960  -53.7960 C.3   282  TRP282      0.1605
    173  C        -25.9790   66.4790  -52.6970 C.2   282  TRP282      0.2264
    174  O        -24.8410   66.8520  -52.9720 O.2   282  TRP282     -0.2867
    175  CB       -27.3120   67.1340  -54.7400 C.3   282  TRP282      0.0550
    176  CG       -27.5250   66.6120  -56.1210 C.ar  282  TRP282      0.0003
    177  CD1      -28.6970   66.5680  -56.8210 C.ar  282  TRP282      0.0946
    178  CD2      -26.5440   65.9640  -56.9370 C.ar  282  TRP282      0.0152
    179  NE1      -28.5050   65.9260  -58.0240 N.ar  282  TRP282     -0.2442
    180  CE2      -27.1920   65.5450  -58.1180 C.ar  282  TRP282      0.0810
    181  CE3      -25.1740   65.6920  -56.7800 C.ar  282  TRP282      0.0012
    182  CZ2      -26.5200   64.8690  -59.1390 C.ar  282  TRP282      0.0191
    183  CZ3      -24.5030   65.0160  -57.7970 C.ar  282  TRP282      0.0001
    184  CH2      -25.1800   64.6140  -58.9610 C.ar  282  TRP282      0.0015
@<TRIPOS>BOND
     1    93    91    1
     2    80    81    1
     3    80    86    1
     4    92    91    1
     5    91    88    1
     6    83    82    2
     7    82    81    1
     8    82    87   am
     9    81    84    1
    10    86    85    1
    11    88    87    1
    12    88    89    1
    13    77    78    1
    14    77    76    1
    15    75    74    2
    16    84    85    1
    17    78    79    2
    18    89    94   am
    19    89    90    2
    20    76    74   am
    21    74    73    1
    22    94    95    1
    23   114   115    1
    24    97    96    2
    25    73    72    1
    26   111   110    2
    27   116   117    2
    28   116   115    1
    29    69    70    1
    30    69    66    1
    31   115   118    1
    32    72    67   am
    33    96    95    1
    34    96   108   am
    35    95    98    1
    36   110   109    1
    37    67    68    2
    38    67    66    1
    39    98    99    1
    40    70    71    1
    41    99   100   ar
    42    99   101   ar
    43   100   102   ar
    44   101   104   ar
    45   101   103   ar
    46   104   106   ar
    47    66    65    1
    48    40    39    2
    49   102   103   ar
    50   103   105   ar
    51   106   107   ar
    52   108   109    1
    53   105   107   ar
    54   109   112    1
    55    43    45   ar
    56    43    42   ar
    57   126   125    1
    58   126   127    1
    59   126   129    1
    60   138   137    1
    61   138   139    2
    62   118   119    1
    63   136   137    1
    64   136   127   am
    65    36    34    1
    66    45    46   ar
    67    71    65    1
    68    41    42    1
    69    41    38    1
    70   137   140    1
    71   127   128    2
    72   129   130    1
    73    39    38    1
    74    39    47   am
    75    42    44   ar
    76    65    63   am
    77    37    38    1
    78    37    31   am
    79    48    49    1
    80    48    47    1
    81    48    51    1
    82   119   120    1
    83    30    29    1
    84    30    31    1
    85    30    33    1
    86    46    44   ar
    87   112   113    1
    88    49    50    2
    89    52    51    1
    90    31    32    2
    91    34    33    1
    92    34    35    1
    93    63    64    2
    94    63    62    1
    95   140   141    1
    96   142   141   ar
    97   130   131    1
    98   120   121    1
    99   131   132    1
   100   141   143   ar
   101    62    61    1
   102   123   122    1
   103    24    23    2
   104   121   122    2
   105   134   133    1
   106   122   124    1
   107   132   133    2
   108     4     3    2
   109    61    55   am
   110   133   135    1
   111    23    22    1
   112    25    22    1
   113    25    26    1
   114     1     2    1
   115     7     9   ar
   116     7     6   ar
   117    56    55    2
   118     3     2    1
   119    55    54    1
   120   154   155    1
   121   154   153    1
   122   154   157    1
   123    19    16    1
   124    19    20    1
   125    28    26   am
   126    22    21    1
   127     5     2    1
   128     5     6    1
   129    18    17    2
   130   155   156    2
   131   153   146   am
   132   158   157    1
   133    15    16    1
   134    21    17   am
   135    26    27    2
   136    17    16    1
   137     9    10   ar
   138     6     8   ar
   139   151   150   ar
   140    54    53    1
   141    54    57    1
   142   146   145    1
   143   146   147    2
   144   145   148    1
   145   145   144    1
   146    59    58    2
   147    10     8   ar
   148    10    12   ar
   149     8    11   ar
   150   150   149    1
   151   150   152   ar
   152    58    57    1
   153    58    60   am
   154   148   149    1
   155    12    14   ar
   156    11    13   ar
   157   182   184   ar
   158   182   180   ar
   159   184   183   ar
   160    14    13   ar
   161   180   179   ar
   162   180   178   ar
   163   179   177   ar
   164   183   181   ar
   165   162   161    2
   166   167   165   ar
   167   167   169   ar
   168   170   169    1
   169   165   164   ar
   170   161   160    1
   171   178   181   ar
   172   178   176   ar
   173   177   176   ar
   174   169   168   ar
   175   176   175    1
   176   164   163    1
   177   164   166   ar
   178   160   163    1
   179   160   159    1
   180   168   166   ar
   181   175   172    1
   182   172   171    1
   183   172   173    1
   184   174   173    2
