@<TRIPOS>MOLECULE
tmp/4ffiD02.pdb
 113 107 0 0 0
SMALL
GASTEIGER

@<TRIPOS>ATOM
      1  N        -40.0630   49.3290  -22.6910 N.3   344  GLY344     -0.1225
      2  CA       -38.6210   49.4150  -22.7170 C.3   344  GLY344      0.1811
      3  C        -38.0340   48.9090  -24.0170 C.2   344  GLY344      0.2280
      4  O        -37.9310   49.6520  -24.9860 O.2   344  GLY344     -0.2866
      5  N        -41.8950   58.3350  -26.2200 N.3   368  ASN368     -0.1240
      6  CA       -41.2200   57.8560  -27.4120 C.3   368  ASN368      0.1653
      7  C        -41.5450   56.3860  -27.6090 C.2   368  ASN368      0.2266
      8  O        -41.5010   55.5990  -26.6620 O.2   368  ASN368     -0.2867
      9  CB       -39.7070   58.0460  -27.2720 C.3   368  ASN368      0.1155
     10  CG       -38.9720   57.9130  -28.5980 C.2   368  ASN368      0.2627
     11  OD1      -37.7480   58.0340  -28.6560 O.2   368  ASN368     -0.2716
     12  ND2      -39.7160   57.6680  -29.6670 N.am  368  ASN368     -0.0877
     13  N        -36.9830   49.3720  -34.4630 N.3   372  SER372     -0.1217
     14  CA       -35.6420   49.4350  -35.0270 C.3   372  SER372      0.1889
     15  C        -35.4790   48.3400  -36.0630 C.2   372  SER372      0.2288
     16  O        -35.8230   47.1960  -35.8110 O.2   372  SER372     -0.2866
     17  CB       -34.5930   49.2550  -33.9270 C.3   372  SER372      0.2089
     18  OG       -34.6450   50.3120  -32.9830 O.3   372  SER372     -0.2183
     19  N        -28.6390   50.1180  -35.9420 N.3   382  HIS382     -0.1241
     20  CA       -30.0280   49.9990  -36.3620 C.3   382  HIS382      0.1621
     21  C        -30.5430   51.3340  -36.8470 C.2   382  HIS382      0.2264
     22  O        -29.9000   52.3590  -36.6530 O.2   382  HIS382     -0.2867
     23  CB       -30.9080   49.5380  -35.1970 C.3   382  HIS382      0.0745
     24  CG       -30.6060   50.2300  -33.9040 C.ar  382  HIS382      0.0817
     25  ND1      -29.7010   49.7340  -32.9890 N.ar  382  HIS382     -0.2268
     26  CD2      -31.0490   51.4030  -33.3950 C.ar  382  HIS382      0.1154
     27  CE1      -29.6010   50.5720  -31.9730 C.ar  382  HIS382      0.1986
     28  NE2      -30.4080   51.5940  -32.1950 N.ar  382  HIS382     -0.2212
     29  N        -33.9410   53.7040  -36.5540 N.3   384  ASN384     -0.1240
     30  CA       -35.1510   53.8820  -35.7600 C.3   384  ASN384      0.1653
     31  C        -36.2880   54.6450  -36.4170 C.2   384  ASN384      0.2266
     32  O        -36.1110   55.7700  -36.8950 O.2   384  ASN384     -0.2867
     33  CB       -34.8030   54.5810  -34.4430 C.3   384  ASN384      0.1155
     34  CG       -33.7980   53.8070  -33.6170 C.2   384  ASN384      0.2627
     35  OD1      -33.1360   54.3660  -32.7480 O.2   384  ASN384     -0.2716
     36  ND2      -33.6880   52.5140  -33.8760 N.am  384  ASN384     -0.0877
     37  N        -42.2060   60.8230  -31.8700 N.3   388  TYR388     -0.1241
     38  CA       -41.6920   61.6550  -30.7930 C.3   388  TYR388      0.1605
     39  C        -42.1260   63.0960  -31.0120 C.2   388  TYR388      0.2264
     40  O        -41.8790   63.6750  -32.0710 O.2   388  TYR388     -0.2867
     41  CB       -40.1720   61.5730  -30.7500 C.3   388  TYR388      0.0534
     42  CG       -39.5570   62.4610  -29.7030 C.ar  388  TYR388     -0.0201
     43  CD1      -39.0790   63.7260  -30.0300 C.ar  388  TYR388     -0.0009
     44  CD2      -39.4520   62.0380  -28.3820 C.ar  388  TYR388     -0.0009
     45  CE1      -38.5040   64.5480  -29.0690 C.ar  388  TYR388      0.0417
     46  CE2      -38.8790   62.8550  -27.4080 C.ar  388  TYR388      0.0417
     47  CZ       -38.4050   64.1060  -27.7600 C.ar  388  TYR388      0.1957
     48  OH       -37.8160   64.9060  -26.8100 O.3   388  TYR388     -0.2866
     49  N        -40.4450   60.1150  -37.0010 N.3   393  TYR393     -0.1241
     50  CA       -39.0830   60.1040  -37.4960 C.3   393  TYR393      0.1605
     51  C        -38.4780   58.7960  -37.9630 C.2   393  TYR393      0.2264
     52  O        -38.9650   57.7110  -37.6590 O.2   393  TYR393     -0.2867
     53  CB       -38.1780   60.6770  -36.4090 C.3   393  TYR393      0.0534
     54  CG       -38.1480   59.8030  -35.1730 C.ar  393  TYR393     -0.0201
     55  CD1      -37.2940   58.7050  -35.0920 C.ar  393  TYR393     -0.0009
     56  CD2      -39.0030   60.0520  -34.0990 C.ar  393  TYR393     -0.0009
     57  CE1      -37.2900   57.8770  -33.9700 C.ar  393  TYR393      0.0417
     58  CE2      -39.0080   59.2280  -32.9700 C.ar  393  TYR393      0.0417
     59  CZ       -38.1490   58.1480  -32.9130 C.ar  393  TYR393      0.1957
     60  OH       -38.1340   57.3490  -31.7980 O.3   393  TYR393     -0.2866
     61  N        -34.5190   57.6400  -37.9970 N.3   395  ASP395     -0.1239
     62  CA       -33.1510   57.9800  -37.6490 C.3   395  ASP395      0.1674
     63  C        -32.1860   56.8730  -38.0750 C.2   395  ASP395      0.2266
     64  O        -32.1120   55.8180  -37.4420 O.2   395  ASP395     -0.2867
     65  CB       -33.0680   58.2420  -36.1410 C.3   395  ASP395      0.1410
     66  CG       -31.6720   58.5810  -35.6810 C.2   395  ASP395      0.3668
     67  OD1      -30.8610   59.0430  -36.5100 O.co2 395  ASP395     -0.2456
     68  OD2      -31.3950   58.3920  -34.4780 O.co2 395  ASP395     -0.2456
     69  N        -27.7630   55.6180  -36.2550 N.3   398  PRO398     -0.2116
     70  CA       -27.0990   54.4420  -35.6850 C.3   398  PRO398      0.1372
     71  C        -26.6940   53.4090  -36.7270 C.2   398  PRO398      0.2244
     72  O        -26.0170   52.4420  -36.4090 O.2   398  PRO398     -0.2868
     73  CB       -28.1320   53.9010  -34.6960 C.3   398  PRO398      0.0268
     74  CG       -28.9350   55.1290  -34.3230 C.3   398  PRO398      0.0207
     75  CD       -29.0980   55.8020  -35.6610 C.3   398  PRO398      0.0892
     76  N        -31.3030   62.0660  -38.9290 N.3   411  ARG411     -0.1245
     77  CA       -32.6810   61.9970  -38.4610 C.3   411  ARG411      0.1563
     78  C        -33.6670   62.7600  -39.3400 C.2   411  ARG411      0.2260
     79  O        -33.7390   63.9850  -39.2870 O.2   411  ARG411     -0.2867
     80  CB       -32.7640   62.5230  -37.0250 C.3   411  ARG411      0.0307
     81  CG       -34.1270   62.3850  -36.3640 C.3   411  ARG411      0.0489
     82  CD       -34.1620   63.1750  -35.0620 C.3   411  ARG411      0.2205
     83  NE       -35.3720   62.9440  -34.2760 N.pl3 411  ARG411     -0.0865
     84  CZ       -36.5330   63.5650  -34.4610 C.cat 411  ARG411      0.5346
     85  NH1      -36.6660   64.4700  -35.4150 N.pl3 411  ARG411      0.1354
     86  NH2      -37.5620   63.2920  -33.6700 N.pl3 411  ARG411      0.1354
     87  N        -39.2920   49.2870  -29.2110 N.3   461  TYR461     -0.1227
     88  CA       -38.8530   50.0400  -28.0510 C.3   461  TYR461      0.1736
     89  C        -39.8580   51.1030  -27.6460 C.2   461  TYR461      0.2596
     90  O        -40.6520   51.5710  -28.4610 O.2   461  TYR461     -0.2718
     91  CB       -37.4810   50.6710  -28.3300 C.3   461  TYR461      0.0548
     92  CG       -37.4720   51.7220  -29.4240 C.ar  461  TYR461     -0.0200
     93  CD1      -37.7590   53.0540  -29.1380 C.ar  461  TYR461     -0.0009
     94  CD2      -37.1970   51.3780  -30.7490 C.ar  461  TYR461     -0.0009
     95  CE1      -37.7750   54.0160  -30.1320 C.ar  461  TYR461      0.0417
     96  CE2      -37.2110   52.3360  -31.7550 C.ar  461  TYR461      0.0417
     97  CZ       -37.5030   53.6540  -31.4380 C.ar  461  TYR461      0.1957
     98  OH       -37.5520   54.6080  -32.4240 O.3   461  TYR461     -0.2866
     99  N        -39.8390   51.4540  -26.3670 N.am  462  THR462     -0.1939
    100  CA       -40.7240   52.4800  -25.8380 C.3   462  THR462      0.2028
    101  C        -39.9540   53.2180  -24.7750 C.2   462  THR462      0.2642
    102  O        -39.0280   52.6750  -24.1740 O.2   462  THR462     -0.2714
    103  CB       -41.9690   51.9150  -25.1500 C.3   462  THR462      0.1808
    104  OG1      -41.5930   51.3560  -23.8820 O.3   462  THR462     -0.2208
    105  CG2      -42.6420   50.8640  -26.0240 C.3   462  THR462      0.0379
    106  N        -40.3580   54.4520  -24.5260 N.am  463  ASP463     -0.1971
    107  CA       -39.6900   55.2560  -23.5340 C.3   463  ASP463      0.1709
    108  C        -40.7080   56.0540  -22.7410 C.2   463  ASP463      0.2293
    109  O        -41.4810   56.8210  -23.3100 O.2   463  ASP463     -0.2864
    110  CB       -38.7230   56.2040  -24.2180 C.3   463  ASP463      0.1436
    111  CG       -37.6100   56.6290  -23.3160 C.2   463  ASP463      0.3671
    112  OD1      -37.8520   56.7670  -22.1010 O.co2 463  ASP463     -0.2456
    113  OD2      -36.4920   56.8290  -23.8210 O.co2 463  ASP463     -0.2456
@<TRIPOS>BOND
     1    78    79    2
     2    78    77    1
     3    76    77    1
     4    77    80    1
     5    63    62    1
     6    63    64    2
     7    61    62    1
     8    51    52    2
     9    51    50    1
    10    62    65    1
    11    50    49    1
    12    50    53    1
    13    80    81    1
    14    32    31    2
    15    21    22    2
    16    21    20    1
    17    71    72    2
    18    71    70    1
    19    29    30    1
    20    67    66   ar
    21    31    30    1
    22    53    54    1
    23    81    82    1
    24    20    19    1
    25    20    23    1
    26    69    70    1
    27    69    75    1
    28    65    66    1
    29    15    16    2
    30    15    14    1
    31    30    33    1
    32    70    73    1
    33    66    68   ar
    34    75    74    1
    35    85    84    1
    36    23    24    1
    37    54    55   ar
    38    54    56   ar
    39    55    57   ar
    40    82    83    1
    41    14    13    1
    42    14    17    1
    43    73    74    1
    44    84    83    2
    45    84    86    1
    46    33    34    1
    47    56    58   ar
    48    57    59   ar
    49    17    18    1
    50    24    26   ar
    51    24    25   ar
    52    36    34   am
    53    34    35    2
    54    26    28   ar
    55    25    27   ar
    56    58    59   ar
    57    59    60    1
    58    98    97    1
    59    28    27   ar
    60    40    39    2
    61    37    38    1
    62    96    97   ar
    63    96    94   ar
    64    97    95   ar
    65    39    38    1
    66    38    41    1
    67    41    42    1
    68    94    92   ar
    69    95    93   ar
    70    43    42   ar
    71    43    45   ar
    72    42    44   ar
    73    12    10   am
    74    92    93   ar
    75    92    91    1
    76    87    88    1
    77    45    47   ar
    78    11    10    2
    79    10     9    1
    80    90    89    2
    81    44    46   ar
    82    91    88    1
    83    88    89    1
    84    47    46   ar
    85    47    48    1
    86    89    99   am
    87     7     6    1
    88     7     8    2
    89     6     9    1
    90     6     5    1
    91    99   100    1
    92   105   103    1
    93   100   103    1
    94   100   101    1
    95   103   104    1
    96     4     3    2
    97   101   106   am
    98   101   102    2
    99   106   107    1
   100   110   107    1
   101   110   111    1
   102     3     2    1
   103   113   111   ar
   104   107   108    1
   105   111   112   ar
   106   109   108    2
   107     2     1    1
