@<TRIPOS>MOLECULE
tmp/4ffiB01.pdb
 133 124 0 0 0
SMALL
GASTEIGER

@<TRIPOS>ATOM
      1  N        -42.2280   26.1940   61.9230 N.3   344  GLY344     -0.1210
      2  CA       -43.6070   25.7910   61.7510 C.3   344  GLY344      0.1956
      3  C        -43.9240   25.8940   60.2740 C.2   344  GLY344      0.2612
      4  O        -43.7490   24.9320   59.5190 O.2   344  GLY344     -0.2717
      5  N        -44.3870   27.0640   59.8510 N.am  345  SER345     -0.1952
      6  CA       -44.6950   27.2720   58.4480 C.3   345  SER345      0.1924
      7  C        -44.8610   28.7450   58.1590 C.2   345  SER345      0.2314
      8  O        -45.1930   29.5260   59.0430 O.2   345  SER345     -0.2863
      9  CB       -45.9630   26.5180   58.0530 C.3   345  SER345      0.2116
     10  OG       -47.0920   27.0810   58.6830 O.3   345  SER345     -0.2180
     11  N        -37.7330   17.5050   60.3120 N.3   368  ASN368     -0.1240
     12  CA       -38.3060   17.6030   58.9810 C.3   368  ASN368      0.1653
     13  C        -38.2940   19.0650   58.5880 C.2   368  ASN368      0.2266
     14  O        -38.6610   19.9430   59.3710 O.2   368  ASN368     -0.2867
     15  CB       -39.7420   17.0650   58.9550 C.3   368  ASN368      0.1155
     16  CG       -40.2700   16.8500   57.5300 C.2   368  ASN368      0.2627
     17  OD1      -41.4220   16.4610   57.3330 O.2   368  ASN368     -0.2716
     18  ND2      -39.4250   17.0940   56.5400 N.am  368  ASN368     -0.0877
     19  N        -43.0520   23.9160   50.1300 N.3   372  SER372     -0.1217
     20  CA       -44.2200   23.4480   49.3850 C.3   372  SER372      0.1889
     21  C        -44.4580   24.3340   48.1780 C.2   372  SER372      0.2288
     22  O        -44.4580   25.5540   48.2990 O.2   372  SER372     -0.2866
     23  CB       -45.4820   23.4650   50.2640 C.3   372  SER372      0.2089
     24  OG       -45.4010   22.5320   51.3230 O.3   372  SER372     -0.2183
     25  N        -48.9670   25.5930   45.8980 N.3   375  ARG375     -0.1245
     26  CA       -49.8260   25.7770   47.0550 C.3   375  ARG375      0.1563
     27  C        -51.0990   26.5630   46.7670 C.2   375  ARG375      0.2260
     28  O        -51.0440   27.7520   46.4550 O.2   375  ARG375     -0.2867
     29  CB       -49.0560   26.4820   48.1700 C.3   375  ARG375      0.0307
     30  CG       -49.8360   26.5930   49.4630 C.3   375  ARG375      0.0489
     31  CD       -49.0150   27.2270   50.5790 C.3   375  ARG375      0.2205
     32  NE       -49.7860   27.3210   51.8130 N.pl3 375  ARG375     -0.0865
     33  CZ       -50.8740   28.0710   51.9630 C.cat 375  ARG375      0.5346
     34  NH1      -51.3200   28.8070   50.9560 N.pl3 375  ARG375      0.1354
     35  NH2      -51.5330   28.0640   53.1110 N.pl3 375  ARG375      0.1354
     36  N        -55.3260   26.1980   51.1600 N.3   379  GLY379     -0.1225
     37  CA       -54.4920   25.3320   51.9770 C.3   379  GLY379      0.1811
     38  C        -54.6340   23.8270   51.8140 C.2   379  GLY379      0.2280
     39  O        -54.0270   23.0660   52.5650 O.2   379  GLY379     -0.2866
     40  N        -50.8450   21.0550   47.4970 N.3   382  HIS382     -0.1241
     41  CA       -49.4320   21.4120   47.4790 C.3   382  HIS382      0.1621
     42  C        -48.5440   20.1800   47.3620 C.2   382  HIS382      0.2264
     43  O        -48.9420   19.0760   47.7270 O.2   382  HIS382     -0.2867
     44  CB       -49.0720   22.1750   48.7530 C.3   382  HIS382      0.0745
     45  CG       -49.4470   21.4590   50.0110 C.ar  382  HIS382      0.0817
     46  ND1      -48.6200   20.5430   50.6230 N.ar  382  HIS382     -0.2268
     47  CD2      -50.5800   21.4990   50.7540 C.ar  382  HIS382      0.1154
     48  CE1      -49.2250   20.0480   51.6880 C.ar  382  HIS382      0.1986
     49  NE2      -50.4160   20.6110   51.7890 N.ar  382  HIS382     -0.2212
     50  N        -44.8360   18.7570   48.4770 N.3   384  ASN384     -0.1240
     51  CA       -43.7570   19.0460   49.4150 C.3   384  ASN384      0.1653
     52  C        -42.3970   18.4840   49.0500 C.2   384  ASN384      0.2266
     53  O        -42.2580   17.2910   48.7960 O.2   384  ASN384     -0.2867
     54  CB       -44.1190   18.5380   50.8050 C.3   384  ASN384      0.1155
     55  CG       -45.4720   19.0180   51.2650 C.2   384  ASN384      0.2627
     56  OD1      -45.8810   20.1350   50.9660 O.2   384  ASN384     -0.2716
     57  ND2      -46.1720   18.1780   52.0110 N.am  384  ASN384     -0.0877
     58  N        -36.0380   14.4300   55.3290 N.3   388  TYR388     -0.1241
     59  CA       -36.4530   13.7480   56.5410 C.3   388  TYR388      0.1605
     60  C        -35.6510   12.4660   56.6940 C.2   388  TYR388      0.2264
     61  O        -35.6080   11.6380   55.7870 O.2   388  TYR388     -0.2867
     62  CB       -37.9520   13.4370   56.4930 C.3   388  TYR388      0.0534
     63  CG       -38.4040   12.5410   57.6160 C.ar  388  TYR388     -0.0201
     64  CD1      -38.3970   11.1580   57.4700 C.ar  388  TYR388     -0.0009
     65  CD2      -38.7740   13.0730   58.8470 C.ar  388  TYR388     -0.0009
     66  CE1      -38.7430   10.3270   58.5220 C.ar  388  TYR388      0.0417
     67  CE2      -39.1200   12.2530   59.9090 C.ar  388  TYR388      0.0417
     68  CZ       -39.1010   10.8790   59.7390 C.ar  388  TYR388      0.1957
     69  OH       -39.4320   10.0580   60.7870 O.3   388  TYR388     -0.2866
     70  N        -37.0750   13.9110   50.0010 N.3   393  TYR393     -0.1241
     71  CA       -38.2990   13.5070   49.3360 C.3   393  TYR393      0.1605
     72  C        -39.0520   14.5750   48.5510 C.2   393  TYR393      0.2264
     73  O        -38.8420   15.7730   48.7170 O.2   393  TYR393     -0.2867
     74  CB       -39.2370   12.9130   50.3860 C.3   393  TYR393      0.0534
     75  CG       -39.6800   13.9350   51.4100 C.ar  393  TYR393     -0.0201
     76  CD1      -40.7000   14.8400   51.1160 C.ar  393  TYR393     -0.0009
     77  CD2      -39.0220   14.0590   52.6360 C.ar  393  TYR393     -0.0009
     78  CE1      -41.0460   15.8410   52.0020 C.ar  393  TYR393      0.0417
     79  CE2      -39.3590   15.0630   53.5330 C.ar  393  TYR393      0.0417
     80  CZ       -40.3720   15.9550   53.2050 C.ar  393  TYR393      0.1957
     81  OH       -40.6910   16.9880   54.0540 O.3   393  TYR393     -0.2866
     82  N        -43.0740   14.8560   47.7330 N.3   395  ASP395     -0.1239
     83  CA       -44.3810   14.2630   47.9820 C.3   395  ASP395      0.1674
     84  C        -45.4850   15.0310   47.2660 C.2   395  ASP395      0.2266
     85  O        -45.8610   16.1200   47.6810 O.2   395  ASP395     -0.2867
     86  CB       -44.6300   14.2320   49.5000 C.3   395  ASP395      0.1410
     87  CG       -45.9920   13.6750   49.8650 C.2   395  ASP395      0.3668
     88  OD1      -46.6190   13.0110   49.0150 O.co2 395  ASP395     -0.2456
     89  OD2      -46.4280   13.8950   51.0140 O.co2 395  ASP395     -0.2456
     90  N        -45.0570    9.6390   47.3150 N.3   411  ARG411     -0.1245
     91  CA       -43.8080   10.0770   47.9330 C.3   411  ARG411      0.1563
     92  C        -42.5610    9.4480   47.3370 C.2   411  ARG411      0.2260
     93  O        -42.2630    8.2820   47.5720 O.2   411  ARG411     -0.2867
     94  CB       -43.8530    9.7980   49.4370 C.3   411  ARG411      0.0307
     95  CG       -42.6330   10.2810   50.2230 C.3   411  ARG411      0.0489
     96  CD       -42.7570    9.8890   51.6850 C.3   411  ARG411      0.2205
     97  NE       -41.7350   10.4820   52.5400 N.pl3 411  ARG411     -0.0865
     98  CZ       -40.4710   10.0760   52.6080 C.cat 411  ARG411      0.5346
     99  NH1      -40.0450    9.0610   51.8700 N.pl3 411  ARG411      0.1354
    100  NH2      -39.6330   10.6880   53.4280 N.pl3 411  ARG411      0.1354
    101  N        -44.6910   27.8770   50.2610 N.3   459  SER459     -0.1217
    102  CA       -44.5480   28.0650   51.6970 C.3   459  SER459      0.1889
    103  C        -43.3310   27.2830   52.1690 C.2   459  SER459      0.2288
    104  O        -42.7830   26.4730   51.4240 O.2   459  SER459     -0.2866
    105  CB       -45.8080   27.6040   52.4460 C.3   459  SER459      0.2089
    106  OG       -46.0760   26.2180   52.2750 O.3   459  SER459     -0.2183
    107  N        -41.6700   25.0700   55.6320 N.3   461  TYR461     -0.1227
    108  CA       -42.0500   24.4150   56.8740 C.3   461  TYR461      0.1736
    109  C        -40.9180   23.6720   57.5570 C.2   461  TYR461      0.2596
    110  O        -39.9150   23.3120   56.9400 O.2   461  TYR461     -0.2718
    111  CB       -43.2190   23.4580   56.6280 C.3   461  TYR461      0.0548
    112  CG       -42.8920   22.3150   55.7020 C.ar  461  TYR461     -0.0200
    113  CD1      -42.2510   21.1700   56.1730 C.ar  461  TYR461     -0.0009
    114  CD2      -43.1860   22.3950   54.3420 C.ar  461  TYR461     -0.0009
    115  CE1      -41.9110   20.1350   55.3140 C.ar  461  TYR461      0.0417
    116  CE2      -42.8480   21.3700   53.4750 C.ar  461  TYR461      0.0417
    117  CZ       -42.2130   20.2450   53.9650 C.ar  461  TYR461      0.1957
    118  OH       -41.8830   19.2340   53.1080 O.3   461  TYR461     -0.2866
    119  N        -41.1020   23.4590   58.8550 N.am  462  THR462     -0.1939
    120  CA       -40.1370   22.7600   59.6830 C.3   462  THR462      0.2028
    121  C        -40.9360   22.0450   60.7520 C.2   462  THR462      0.2642
    122  O        -42.0610   22.4260   61.0490 O.2   462  THR462     -0.2714
    123  CB       -39.2030   23.7240   60.4000 C.3   462  THR462      0.1808
    124  OG1      -39.9150   24.3460   61.4740 O.3   462  THR462     -0.2208
    125  CG2      -38.6990   24.7970   59.4480 C.3   462  THR462      0.0379
    126  N        -40.3420   21.0190   61.3420 N.am  463  ASP463     -0.1971
    127  CA       -40.9950   20.2550   62.3860 C.3   463  ASP463      0.1709
    128  C        -39.9240   19.8700   63.4000 C.2   463  ASP463      0.2293
    129  O        -38.8810   19.3230   63.0330 O.2   463  ASP463     -0.2864
    130  CB       -41.6310   19.0080   61.7780 C.3   463  ASP463      0.1436
    131  CG       -42.6560   18.3680   62.6880 C.2   463  ASP463      0.3671
    132  OD1      -42.2860   17.8610   63.7670 O.co2 463  ASP463     -0.2456
    133  OD2      -43.8450   18.3730   62.3170 O.co2 463  ASP463     -0.2456
@<TRIPOS>BOND
     1    25    26    1
     2    28    27    2
     3    27    26    1
     4    26    29    1
     5    84    85    2
     6    84    83    1
     7    90    91    1
     8    92    93    2
     9    92    91    1
    10    42    41    1
    11    42    43    2
    12    41    40    1
    13    41    44    1
    14    82    83    1
    15    91    94    1
    16    83    86    1
    17    29    30    1
    18    21    22    2
    19    21    20    1
    20    50    51    1
    21    72    73    2
    22    72    71    1
    23    44    45    1
    24    53    52    2
    25    88    87   ar
    26    52    51    1
    27    71    70    1
    28    71    74    1
    29    20    19    1
    30    20    23    1
    31    51    54    1
    32    94    95    1
    33    30    31    1
    34    86    87    1
    35    87    89   ar
    36    45    46   ar
    37    45    47   ar
    38    95    96    1
    39   101   102    1
    40    23    24    1
    41    74    75    1
    42    31    32    1
    43    46    48   ar
    44    47    49   ar
    45    54    55    1
    46    34    33    1
    47    56    55    2
    48    76    75   ar
    49    76    78   ar
    50    36    37    1
    51    55    57   am
    52    75    77   ar
    53   104   103    2
    54    96    97    1
    55    48    49   ar
    56   102   103    1
    57   102   105    1
    58    32    33    2
    59    38    37    1
    60    38    39    2
    61    99    98    1
    62    33    35    1
    63    78    80   ar
    64   106   105    1
    65    97    98    2
    66    98   100    1
    67    77    79   ar
    68   118   117    1
    69    80    79   ar
    70    80    81    1
    71   116   117   ar
    72   116   114   ar
    73   117   115   ar
    74   114   112   ar
    75   115   113   ar
    76    58    59    1
    77   107   108    1
    78   112   113   ar
    79   112   111    1
    80    61    60    2
    81    62    59    1
    82    62    63    1
    83    18    16   am
    84    59    60    1
    85   111   108    1
    86   108   109    1
    87   110   109    2
    88    17    16    2
    89    64    63   ar
    90    64    66   ar
    91    16    15    1
    92   109   119   am
    93    63    65   ar
    94     9     6    1
    95     9    10    1
    96     7     6    1
    97     7     8    2
    98     6     5    1
    99    66    68   ar
   100    13    12    1
   101    13    14    2
   102    65    67   ar
   103   119   120    1
   104    15    12    1
   105    12    11    1
   106   125   123    1
   107     4     3    2
   108   120   123    1
   109   120   121    1
   110    68    67   ar
   111    68    69    1
   112     5     3   am
   113     3     2    1
   114   123   124    1
   115   121   122    2
   116   121   126   am
   117   126   127    1
   118     2     1    1
   119   130   127    1
   120   130   131    1
   121   133   131   ar
   122   127   128    1
   123   131   132   ar
   124   129   128    2
