@<TRIPOS>MOLECULE
tmp/4fflA00.pdb
 110 104 0 0 0
SMALL
GASTEIGER

@<TRIPOS>ATOM
      1  N          5.4020    5.9780   19.9940 N.3    10  LYS10      -0.1231
      2  CA         6.3080    7.1190   19.9000 C.3    10  LYS10       0.1693
      3  C          7.7620    6.6650   20.0610 C.2    10  LYS10       0.2592
      4  O          8.1790    5.7290   19.3830 O.2    10  LYS10      -0.2718
      5  CB         5.9070    8.2370   20.8710 C.3    10  LYS10       0.0285
      6  CG         4.7310    9.0660   20.3770 C.3    10  LYS10       0.0035
      7  CD         4.4540   10.2830   21.2480 C.3    10  LYS10       0.0206
      8  CE         5.1320   11.5340   20.7110 C.3    10  LYS10       0.1093
      9  NZ         4.5460   12.7590   21.3200 N.3    10  LYS10      -0.1314
     10  N          8.5280    7.3010   20.9460 N.am   11  LEU11      -0.1966
     11  CA         9.9680    7.0430   21.0060 C.3    11  LEU11       0.1728
     12  C         10.3390    5.7010   21.6440 C.2    11  LEU11       0.2616
     13  O         11.1980    4.9870   21.1250 O.2    11  LEU11      -0.2715
     14  CB        10.7100    8.2080   21.6730 C.3    11  LEU11       0.0311
     15  CG        10.5150    9.5750   21.0020 C.3    11  LEU11       0.0022
     16  CD1       11.3280   10.6370   21.7210 C.3    11  LEU11       0.0001
     17  CD2       10.8710    9.5340   19.5230 C.3    11  LEU11       0.0001
     18  N          9.6990    5.3580   22.7600 N.am   12  GLN12      -0.1977
     19  CA         9.8840    4.0320   23.3510 C.3    12  GLN12       0.1601
     20  C          9.4120    2.9640   22.3740 C.2    12  GLN12       0.2287
     21  O         10.0490    1.9160   22.2210 O.2    12  GLN12      -0.2864
     22  CB         9.0880    3.8820   24.6430 C.3    12  GLN12       0.0394
     23  CG         9.5220    4.7590   25.8020 C.3    12  GLN12       0.0908
     24  CD         8.6020    4.5690   26.9870 C.2    12  GLN12       0.2608
     25  OE1        7.7320    5.3990   27.2470 O.2    12  GLN12      -0.2717
     26  NE2        8.7590    3.4500   27.6850 N.am   12  GLN12      -0.0878
     27  N          4.7410    0.6090   26.1280 N.3    70  VAL70      -0.1231
     28  CA         5.8170    1.5350   25.7710 C.3    70  VAL70       0.1692
     29  C          5.2540    2.9510   25.7100 C.2    70  VAL70       0.2592
     30  O          5.2670    3.6220   24.6710 O.2    70  VAL70      -0.2718
     31  CB         6.5710    1.1360   24.4760 C.3    70  VAL70       0.0266
     32  CG1        7.7930    0.2910   24.8130 C.3    70  VAL70       0.0020
     33  CG2        5.6530    0.4110   23.4990 C.3    70  VAL70       0.0020
     34  N          4.7270    3.3780   26.8510 N.am   71  ASN71      -0.1960
     35  CA         4.2710    4.7460   27.0400 C.3    71  ASN71       0.1819
     36  C          4.3820    5.1300   28.5070 C.2    71  ASN71       0.2621
     37  O          4.5320    4.2610   29.3710 O.2    71  ASN71      -0.2715
     38  CB         2.8370    4.9290   26.5200 C.3    71  ASN71       0.1195
     39  CG         1.7970    4.2530   27.3950 C.2    71  ASN71       0.2630
     40  OD1        1.3850    4.7940   28.4230 O.2    71  ASN71      -0.2716
     41  ND2        1.3520    3.0710   26.9800 N.am   71  ASN71      -0.0877
     42  N          4.3220    6.4290   28.7790 N.am   72  GLU72      -0.1977
     43  CA         4.4010    6.9340   30.1460 C.3    72  GLU72       0.1602
     44  C          3.1290    7.6910   30.5420 C.2    72  GLU72       0.2287
     45  O          3.1670    8.6290   31.3430 O.2    72  GLU72      -0.2864
     46  CB         5.6490    7.8000   30.3180 C.3    72  GLU72       0.0415
     47  CG         6.9480    7.0350   30.1260 C.3    72  GLU72       0.1163
     48  CD         8.1520    7.9510   30.1050 C.2    72  GLU72       0.3649
     49  OE1        8.2840    8.7420   29.1460 O.co2  72  GLU72      -0.2457
     50  OE2        8.9680    7.8720   31.0440 O.co2  72  GLU72      -0.2457
     51  N          9.8570   13.1470   31.6750 N.3   136  SER136     -0.1202
     52  CA        10.9540   12.4320   31.0290 C.3   136  SER136      0.2020
     53  C         11.4940   13.3090   29.9030 C.2   136  SER136      0.2619
     54  O         10.9730   14.4040   29.6760 O.2   136  SER136     -0.2717
     55  CB        10.4940   11.0690   30.4950 C.3   136  SER136      0.2103
     56  OG         9.5060   11.2030   29.4880 O.3   136  SER136     -0.2182
     57  N         12.5350   12.8370   29.2160 N.am  137  SER137     -0.1951
     58  CA        13.1220   13.5370   28.0580 C.3   137  SER137      0.1924
     59  C         13.6350   14.9410   28.3840 C.2   137  SER137      0.2314
     60  O         13.7610   15.7840   27.4890 O.2   137  SER137     -0.2863
     61  CB        12.1290   13.6030   26.8870 C.3   137  SER137      0.2116
     62  OG        11.5460   12.3430   26.6250 O.3   137  SER137     -0.2180
     63  N         11.0270    1.2610   32.6330 N.3   237  ARG237     -0.1245
     64  CA        10.2570    1.0890   31.4050 C.3   237  ARG237      0.1563
     65  C         11.2550    0.9160   30.2790 C.2   237  ARG237      0.2260
     66  O         12.4510    1.1520   30.4730 O.2   237  ARG237     -0.2867
     67  CB         9.3030    2.2740   31.1380 C.3   237  ARG237      0.0307
     68  CG         9.7960    3.6650   31.5260 C.3   237  ARG237      0.0489
     69  CD        10.8630    4.2350   30.6010 C.3   237  ARG237      0.2205
     70  NE        10.8530    5.6990   30.6530 N.pl3 237  ARG237     -0.0865
     71  CZ        11.8910    6.4930   30.3950 C.cat 237  ARG237      0.5346
     72  NH1       13.0830    5.9920   30.0900 N.pl3 237  ARG237      0.1354
     73  NH2       11.7330    7.8070   30.4720 N.pl3 237  ARG237      0.1354
     74  N         13.6190    1.7200   27.4960 N.3   239  PRO239     -0.2102
     75  CA        14.2150    3.0040   27.1340 C.3   239  PRO239      0.1504
     76  C         14.3430    3.2150   25.6320 C.2   239  PRO239      0.2576
     77  O         14.2880    2.2610   24.8600 O.2   239  PRO239     -0.2718
     78  CB        15.6050    2.9440   27.7760 C.3   239  PRO239      0.0282
     79  CG        15.9230    1.4970   27.8840 C.3   239  PRO239      0.0208
     80  CD        14.6320    0.7250   27.9020 C.3   239  PRO239      0.0893
     81  N         14.4950    4.4750   25.2410 N.am  240  SER240     -0.1938
     82  CA        14.8210    4.8390   23.8690 C.3   240  SER240      0.2055
     83  C         16.3160    5.1400   23.7580 C.2   240  SER240      0.2642
     84  O         16.9840    5.3850   24.7680 O.2   240  SER240     -0.2714
     85  CB        14.0140    6.0670   23.4550 C.3   240  SER240      0.2130
     86  OG        14.3030    7.1630   24.3110 O.3   240  SER240     -0.2179
     87  N         16.8260    5.1040   22.5240 N.am  241  GLN241     -0.1976
     88  CA        18.2120    5.4850   22.1800 C.3   241  GLN241      0.1601
     89  C         19.2890    4.4900   22.6260 C.2   241  GLN241      0.2287
     90  O         19.9880    3.9040   21.7930 O.2   241  GLN241     -0.2864
     91  CB        18.5640    6.8970   22.6820 C.3   241  GLN241      0.0394
     92  CG        17.6010    7.9850   22.2320 C.3   241  GLN241      0.0908
     93  CD        17.9530    9.3540   22.7840 C.2   241  GLN241      0.2608
     94  OE1       18.1100   10.3120   22.0290 O.2   241  GLN241     -0.2717
     95  NE2       18.0760    9.4540   24.1050 N.am  241  GLN241     -0.0878
     96  N         15.2970   14.3960   21.8960 N.3   292  GLU292     -0.1245
     97  CA        14.0370   13.6680   21.7870 C.3   292  GLU292      0.1567
     98  C         12.7900   14.5420   21.7680 C.2   292  GLU292      0.2260
     99  O         11.7810   14.1640   21.1650 O.2   292  GLU292     -0.2867
    100  CB        13.9300   12.6560   22.9220 C.3   292  GLU292      0.0388
    101  CG        14.9580   11.5500   22.8210 C.3   292  GLU292      0.1160
    102  CD        14.5660   10.3330   23.6230 C.2   292  GLU292      0.3649
    103  OE1       14.4030   10.4530   24.8540 O.co2 292  GLU292     -0.2457
    104  OE2       14.4240    9.2590   23.0130 O.co2 292  GLU292     -0.2457
    105  N          9.7970   14.0090   19.0960 N.3   296  SER296     -0.1217
    106  CA         8.4410   13.7940   19.6130 C.3   296  SER296      0.1889
    107  C          7.3700   14.6290   18.9000 C.2   296  SER296      0.2288
    108  O          6.1740   14.3530   19.0390 O.2   296  SER296     -0.2866
    109  CB         8.3950   14.0520   21.1240 C.3   296  SER296      0.2089
    110  OG         8.4920   15.4340   21.4140 O.3   296  SER296     -0.2183
@<TRIPOS>BOND
     1   107   108    2
     2   107   106    1
     3   105   106    1
     4     4     3    2
     5    17    15    1
     6   106   109    1
     7     2     1    1
     8     2     3    1
     9     2     5    1
    10     3    10   am
    11     6     5    1
    12     6     7    1
    13     8     7    1
    14     8     9    1
    15    10    11    1
    16    15    14    1
    17    15    16    1
    18    11    12    1
    19    11    14    1
    20   109   110    1
    21    13    12    2
    22    99    98    2
    23    12    18   am
    24    98    97    1
    25    97    96    1
    26    97   100    1
    27    90    89    2
    28    94    93    2
    29    88    87    1
    30    88    89    1
    31    88    91    1
    32    21    20    2
    33    92    91    1
    34    92    93    1
    35    20    19    1
    36    87    83   am
    37    18    19    1
    38    93    95   am
    39   101   100    1
    40   101   102    1
    41   104   102   ar
    42    19    22    1
    43    85    82    1
    44    85    86    1
    45    33    31    1
    46   102   103   ar
    47    83    82    1
    48    83    84    2
    49    82    81    1
    50    31    32    1
    51    31    28    1
    52    22    23    1
    53    30    29    2
    54    77    76    2
    55    81    76   am
    56    76    75    1
    57    29    28    1
    58    29    34   am
    59    28    27    1
    60    23    24    1
    61    38    35    1
    62    38    39    1
    63    62    61    1
    64    34    35    1
    65    61    58    1
    66    41    39   am
    67    24    25    2
    68    24    26   am
    69    35    36    1
    70    75    74    1
    71    75    78    1
    72    39    40    2
    73    60    59    2
    74    74    80    1
    75    78    79    1
    76    79    80    1
    77    58    59    1
    78    58    57    1
    79    36    42   am
    80    36    37    2
    81    42    43    1
    82    49    48   ar
    83    57    53   am
    84    56    55    1
    85    54    53    2
    86    53    52    1
    87    72    71    1
    88    48    47    1
    89    48    50   ar
    90    47    46    1
    91    43    46    1
    92    43    44    1
    93    65    66    2
    94    65    64    1
    95    71    73    1
    96    71    70    2
    97    55    52    1
    98    44    45    2
    99    69    70    1
   100    69    68    1
   101    52    51    1
   102    67    64    1
   103    67    68    1
   104    64    63    1
