@<TRIPOS>MOLECULE
tmp/4ffnA01.pdb
 216 202 0 0 0
SMALL
GASTEIGER

@<TRIPOS>ATOM
      1  N         10.2790   10.9720   40.9790 N.3   104  LYS104     -0.1245
      2  CA        11.6980   11.2450   41.2550 C.3   104  LYS104      0.1561
      3  C         12.0910   11.3570   42.7470 C.2   104  LYS104      0.2260
      4  O         13.1620   10.8810   43.1340 O.2   104  LYS104     -0.2867
      5  CB        12.2110   12.4340   40.4270 C.3   104  LYS104      0.0271
      6  CG        12.6320   12.0350   39.0160 C.3   104  LYS104      0.0035
      7  CD        12.8720   13.2340   38.1080 C.3   104  LYS104      0.0206
      8  CE        13.6020   12.8370   36.8260 C.3   104  LYS104      0.1093
      9  NZ        12.7460   12.0670   35.8770 N.3   104  LYS104     -0.1314
     10  N         22.1280   13.3140   44.0920 N.3   119  PRO119     -0.2116
     11  CA        22.3340   14.7440   44.3330 C.3   119  PRO119      0.1372
     12  C         21.6440   15.2000   45.6110 C.2   119  PRO119      0.2244
     13  O         20.5440   14.7480   45.9150 O.2   119  PRO119     -0.2868
     14  CB        21.6580   15.4080   43.1340 C.3   119  PRO119      0.0268
     15  CG        21.5870   14.3560   42.0900 C.3   119  PRO119      0.0207
     16  CD        21.4080   13.0710   42.8330 C.3   119  PRO119      0.0892
     17  N         19.9030   22.4450   40.1650 N.3   129  PHE129     -0.1241
     18  CA        19.2250   21.8080   39.0800 C.3   129  PHE129      0.1605
     19  C         17.8040   21.6220   39.5380 C.2   129  PHE129      0.2264
     20  O         17.5630   21.1210   40.6340 O.2   129  PHE129     -0.2867
     21  CB        19.8600   20.4920   38.6250 C.3   129  PHE129      0.0534
     22  CG        19.4390   20.1250   37.2470 C.ar  129  PHE129     -0.0203
     23  CD1       19.9590   20.8260   36.1660 C.ar  129  PHE129     -0.0042
     24  CD2       18.4230   19.1980   37.0260 C.ar  129  PHE129     -0.0042
     25  CE1       19.5250   20.5670   34.8840 C.ar  129  PHE129     -0.0003
     26  CE2       17.9870   18.9290   35.7400 C.ar  129  PHE129     -0.0003
     27  CZ        18.5410   19.6140   34.6690 C.ar  129  PHE129     -0.0000
     28  N         13.7730   20.4000   38.2500 N.3   131  LYS131     -0.1245
     29  CA        13.0540   19.5840   37.2920 C.3   131  LYS131      0.1561
     30  C         11.7890   19.0520   37.9440 C.2   131  LYS131      0.2260
     31  O         11.7650   18.8420   39.1540 O.2   131  LYS131     -0.2867
     32  CB        13.9320   18.4170   36.8190 C.3   131  LYS131      0.0271
     33  CG        14.4520   17.5220   37.9320 C.3   131  LYS131      0.0035
     34  CD        15.6380   16.6840   37.4670 C.3   131  LYS131      0.0206
     35  CE        15.9920   15.6260   38.5030 C.3   131  LYS131      0.1093
     36  NZ        17.2140   14.8520   38.1520 N.3   131  LYS131     -0.1314
     37  N          8.3980   13.3540   35.1830 N.3   135  GLU135     -0.1231
     38  CA         8.4720   13.5200   33.7440 C.3   135  GLU135      0.1699
     39  C          9.5980   12.6550   33.1930 C.2   135  GLU135      0.2593
     40  O         10.2400   11.9070   33.9340 O.2   135  GLU135     -0.2718
     41  CB         8.6970   14.9900   33.4000 C.3   135  GLU135      0.0402
     42  CG         7.5060   15.8770   33.7050 C.3   135  GLU135      0.1161
     43  CD         6.4200   15.7480   32.6610 C.2   135  GLU135      0.3649
     44  OE1        6.4460   16.5320   31.6910 O.co2 135  GLU135     -0.2457
     45  OE2        5.5550   14.8540   32.7960 O.co2 135  GLU135     -0.2457
     46  N          9.8090   12.7430   31.8830 N.am  136  SER136     -0.1938
     47  CA        10.9550   12.1200   31.2270 C.3   136  SER136      0.2055
     48  C         11.4140   12.9790   30.0520 C.2   136  SER136      0.2644
     49  O         10.9160   14.0990   29.8620 O.2   136  SER136     -0.2714
     50  CB        10.6470   10.6790   30.8060 C.3   136  SER136      0.2130
     51  OG         9.4590   10.6080   30.0410 O.3   136  SER136     -0.2179
     52  N         12.3870   12.4830   29.2910 N.am  137  SER137     -0.1935
     53  CA        12.9060   13.2350   28.1510 C.3   137  SER137      0.2055
     54  C         13.4480   14.6060   28.5970 C.2   137  SER137      0.2644
     55  O         13.6880   15.4830   27.7550 O.2   137  SER137     -0.2714
     56  CB        11.7950   13.4270   27.1040 C.3   137  SER137      0.2130
     57  OG        12.3030   13.4040   25.7810 O.3   137  SER137     -0.2179
     58  N         13.6300   14.7800   29.9140 N.am  138  SER138     -0.1935
     59  CA        14.0560   16.0560   30.5280 C.3   138  SER138      0.2055
     60  C         13.0850   17.2040   30.2890 C.2   138  SER138      0.2642
     61  O         13.4870   18.3690   30.2380 O.2   138  SER138     -0.2714
     62  CB        15.4400   16.4670   30.0410 C.3   138  SER138      0.2130
     63  OG        16.1010   15.3500   29.4810 O.3   138  SER138     -0.2179
     64  N         11.8130   16.8780   30.1310 N.am  139  VAL139     -0.1977
     65  CA        10.7940   17.9030   30.0700 C.3   139  VAL139      0.1596
     66  C         10.7990   18.6870   31.3870 C.2   139  VAL139      0.2287
     67  O         10.6840   18.1020   32.4670 O.2   139  VAL139     -0.2864
     68  CB         9.4290   17.2670   29.7930 C.3   139  VAL139      0.0276
     69  CG1        8.3390   18.3240   29.7840 C.3   139  VAL139      0.0022
     70  CG2        9.4900   16.5190   28.4690 C.3   139  VAL139      0.0022
     71  N         13.3510   20.0210   32.8550 N.3   141  ALA141     -0.1245
     72  CA        14.7000   20.0790   33.4380 C.3   141  ALA141      0.1562
     73  C         15.3240   21.4410   33.1590 C.2   141  ALA141      0.2260
     74  O         15.3240   21.8960   32.0170 O.2   141  ALA141     -0.2867
     75  CB        15.5790   18.9690   32.8800 C.3   141  ALA141      0.0290
     76  N         17.7460   20.3910   43.2000 N.3   154  GLU154     -0.1231
     77  CA        18.9390   19.6190   43.5540 C.3   154  GLU154      0.1699
     78  C         20.1910   20.4050   43.3680 C.2   154  GLU154      0.2592
     79  O         20.2090   21.3900   42.6370 O.2   154  GLU154     -0.2718
     80  CB        19.0860   18.4240   42.6410 C.3   154  GLU154      0.0402
     81  CG        18.1480   17.3070   42.9900 C.3   154  GLU154      0.1161
     82  CD        18.3260   16.0970   42.1010 C.2   154  GLU154      0.3649
     83  OE1       18.7330   16.2550   40.9330 O.co2 154  GLU154     -0.2457
     84  OE2       18.0510   14.9810   42.5770 O.co2 154  GLU154     -0.2457
     85  N         21.2610   19.9340   43.9900 N.am  155  GLU155     -0.1966
     86  CA        22.5720   20.4240   43.6370 C.3   155  GLU155      0.1733
     87  C         22.8130   20.0870   42.1790 C.2   155  GLU155      0.2616
     88  O         22.4020   19.0250   41.6910 O.2   155  GLU155     -0.2715
     89  CB        23.6640   19.8240   44.5240 C.3   155  GLU155      0.0429
     90  CG        23.5680   18.3220   44.7290 C.3   155  GLU155      0.1163
     91  CD        24.7970   17.7590   45.4190 C.2   155  GLU155      0.3649
     92  OE1       25.7270   18.5460   45.7050 O.co2 155  GLU155     -0.2457
     93  OE2       24.8450   16.5350   45.6680 O.co2 155  GLU155     -0.2457
     94  N         23.4450   21.0230   41.4840 N.am  156  TYR156     -0.1960
     95  CA        23.8370   20.8190   40.1110 C.3   156  TYR156      0.1771
     96  C         25.0930   19.9850   40.1100 C.2   156  TYR156      0.2619
     97  O         26.1000   20.3930   40.6880 O.2   156  TYR156     -0.2715
     98  CB        24.1330   22.1530   39.4540 C.3   156  TYR156      0.0574
     99  CG        24.3160   22.0230   37.9740 C.ar  156  TYR156     -0.0198
    100  CD1       23.2710   21.5730   37.1760 C.ar  156  TYR156     -0.0009
    101  CD2       25.5270   22.3480   37.3630 C.ar  156  TYR156     -0.0009
    102  CE1       23.4140   21.4510   35.8040 C.ar  156  TYR156      0.0417
    103  CE2       25.6870   22.2340   35.9840 C.ar  156  TYR156      0.0417
    104  CZ        24.6250   21.7780   35.2070 C.ar  156  TYR156      0.1957
    105  OH        24.7500   21.6570   33.8290 O.3   156  TYR156     -0.2866
    106  N         25.0310   18.8160   39.4800 N.am  157  VAL157     -0.1977
    107  CA        26.1650   17.8930   39.4720 C.3   157  VAL157      0.1596
    108  C         26.7320   17.8370   38.0680 C.2   157  VAL157      0.2287
    109  O         26.0960   17.3200   37.1420 O.2   157  VAL157     -0.2864
    110  CB        25.7890   16.4660   39.9390 C.3   157  VAL157      0.0276
    111  CG1       27.0390   15.6160   40.1450 C.3   157  VAL157      0.0022
    112  CG2       24.9530   16.5090   41.2110 C.3   157  VAL157      0.0022
    113  N         26.7510   12.2330   31.9480 N.3   161  VAL161     -0.1245
    114  CA        25.5380   11.4460   32.1690 C.3   161  VAL161      0.1561
    115  C         25.7100   10.0440   31.5930 C.2   161  VAL161      0.2260
    116  O         26.1150    9.8760   30.4510 O.2   161  VAL161     -0.2867
    117  CB        24.3110   12.1060   31.5300 C.3   161  VAL161      0.0252
    118  CG1       23.0430   11.4060   31.9960 C.3   161  VAL161      0.0019
    119  CG2       24.2720   13.5770   31.8980 C.3   161  VAL161      0.0019
    120  N         25.3430    9.4340   27.5060 N.3   181  VAL181     -0.1245
    121  CA        24.1730   10.1880   27.1260 C.3   181  VAL181      0.1561
    122  C         24.5930   11.6080   26.8240 C.2   181  VAL181      0.2260
    123  O         24.8930   12.3670   27.7460 O.2   181  VAL181     -0.2867
    124  CB        23.2190   10.2380   28.3200 C.3   181  VAL181      0.0252
    125  CG1       22.0410   11.1610   28.0400 C.3   181  VAL181      0.0019
    126  CG2       22.7660    8.8340   28.6760 C.3   181  VAL181      0.0019
    127  N         23.8660   15.3220   25.8340 N.3   183  ILE183     -0.1245
    128  CA        22.7090   16.1710   26.1310 C.3   183  ILE183      0.1561
    129  C         22.8220   17.4910   25.3940 C.2   183  ILE183      0.2260
    130  O         23.9200   17.9760   25.1430 O.2   183  ILE183     -0.2867
    131  CB        22.5800   16.4570   27.6530 C.3   183  ILE183      0.0252
    132  CG1       23.8390   17.1710   28.1710 C.3   183  ILE183      0.0019
    133  CG2       22.3020   15.1700   28.4320 C.3   183  ILE183      0.0019
    134  CD1       23.9140   17.3370   29.6750 C.3   183  ILE183      0.0001
    135  N         18.8380   19.9570   27.8840 N.3   187  TYR187     -0.1241
    136  CA        19.0950   18.7590   28.6920 C.3   187  TYR187      0.1605
    137  C         18.4320   17.5280   28.1190 C.2   187  TYR187      0.2264
    138  O         18.2330   16.5370   28.8160 O.2   187  TYR187     -0.2867
    139  CB        18.7250   18.9740   30.1610 C.3   187  TYR187      0.0534
    140  CG        19.6660   19.9520   30.7750 C.ar  187  TYR187     -0.0201
    141  CD1       20.8880   19.5320   31.2900 C.ar  187  TYR187     -0.0009
    142  CD2       19.3720   21.3140   30.7860 C.ar  187  TYR187     -0.0009
    143  CE1       21.7810   20.4390   31.8280 C.ar  187  TYR187      0.0417
    144  CE2       20.2590   22.2270   31.3250 C.ar  187  TYR187      0.0417
    145  CZ        21.4610   21.7840   31.8430 C.ar  187  TYR187      0.1957
    146  OH        22.3460   22.6890   32.3780 O.3   187  TYR187     -0.2866
    147  N         16.2100    1.3000   33.5770 N.3   219  ASP219     -0.1239
    148  CA        17.4890    1.9270   33.4090 C.3   219  ASP219      0.1674
    149  C         17.8110    2.8350   34.5740 C.2   219  ASP219      0.2266
    150  O         16.9210    3.3660   35.2650 O.2   219  ASP219     -0.2867
    151  CB        17.6000    2.6480   32.0800 C.3   219  ASP219      0.1410
    152  CG        16.7670    3.9040   32.0240 C.2   219  ASP219      0.3668
    153  OD1       16.9850    4.6940   31.0830 O.co2 219  ASP219     -0.2456
    154  OD2       15.8970    4.1090   32.9000 O.co2 219  ASP219     -0.2456
    155  N         20.1960    6.1150   35.3780 N.3   221  GLU221     -0.1245
    156  CA        21.0550    7.2080   34.9180 C.3   221  GLU221      0.1567
    157  C         21.8510    7.7400   36.1020 C.2   221  GLU221      0.2260
    158  O         21.3200    7.8700   37.2140 O.2   221  GLU221     -0.2867
    159  CB        20.2860    8.3730   34.2750 C.3   221  GLU221      0.0388
    160  CG        19.1600    8.0280   33.3060 C.3   221  GLU221      0.1160
    161  CD        18.6310    9.2380   32.5030 C.2   221  GLU221      0.3649
    162  OE1       17.6450    9.9860   32.9130 O.co2 221  GLU221     -0.2457
    163  OE2       19.1790    9.4190   31.3900 O.co2 221  GLU221     -0.2457
    164  N         25.3160   10.6370   37.0740 N.3   223  ILE223     -0.1245
    165  CA        26.2870   11.6360   36.6600 C.3   223  ILE223      0.1561
    166  C         27.5790   11.2900   37.3720 C.2   223  ILE223      0.2260
    167  O         27.5980   11.0500   38.5860 O.2   223  ILE223     -0.2867
    168  CB        25.8620   13.0880   36.9810 C.3   223  ILE223      0.0252
    169  CG1       24.6090   13.4800   36.1770 C.3   223  ILE223      0.0019
    170  CG2       27.0230   14.0570   36.7060 C.3   223  ILE223      0.0019
    171  CD1       23.8840   14.7290   36.6580 C.3   223  ILE223      0.0001
    172  N         20.8100    9.8040   39.4550 N.3   232  ILE232     -0.1231
    173  CA        19.8680   10.9180   39.4050 C.3   232  ILE232      0.1692
    174  C         18.4520   10.4310   39.1650 C.2   232  ILE232      0.2591
    175  O         17.4970   11.0650   39.5950 O.2   232  ILE232     -0.2718
    176  CB        20.2650   11.9960   38.3660 C.3   232  ILE232      0.0266
    177  CG1       20.2890   11.4070   36.9460 C.3   232  ILE232      0.0019
    178  CG2       21.5910   12.6450   38.7650 C.3   232  ILE232      0.0020
    179  CD1       20.5990   12.3910   35.8260 C.3   232  ILE232      0.0001
    180  N         18.3150    9.3040   38.4800 N.am  233  GLU233     -0.1979
    181  CA        16.9970    8.6990   38.3080 C.3   233  GLU233      0.1602
    182  C         17.0670    7.2440   37.8420 C.2   233  GLU233      0.2287
    183  O         18.1090    6.7350   37.4330 O.2   233  GLU233     -0.2864
    184  CB        16.0810    9.5340   37.3730 C.3   233  GLU233      0.0415
    185  CG        16.4060    9.3910   35.8900 C.3   233  GLU233      0.1163
    186  CD        15.2570    9.6090   34.8800 C.2   233  GLU233      0.3649
    187  OE1       14.0670    9.6810   35.2490 O.co2 233  GLU233     -0.2457
    188  OE2       15.6830    9.6530   33.7130 O.co2 233  GLU233     -0.2457
    189  N         14.3980    4.5470   35.5140 N.3   235  ASP235     -0.1239
    190  CA        13.1550    4.5420   34.7850 C.3   235  ASP235      0.1674
    191  C         12.8440    3.0430   34.5340 C.2   235  ASP235      0.2266
    192  O         13.5890    2.3630   33.8400 O.2   235  ASP235     -0.2867
    193  CB        13.2490    5.5080   33.5410 C.3   235  ASP235      0.1410
    194  CG        12.9230    7.0310   33.9030 C.2   235  ASP235      0.3668
    195  OD1       11.9890    7.1830   34.7190 O.co2 235  ASP235     -0.2456
    196  OD2       13.5390    8.0760   33.4110 O.co2 235  ASP235     -0.2456
    197  N         10.9650    0.9160   32.6470 N.3   237  ARG237     -0.1245
    198  CA        10.1200    0.8170   31.4680 C.3   237  ARG237      0.1563
    199  C         11.0760    0.7120   30.3250 C.2   237  ARG237      0.2260
    200  O         12.2530    1.0230   30.4790 O.2   237  ARG237     -0.2867
    201  CB         9.2170    2.0530   31.3020 C.3   237  ARG237      0.0307
    202  CG         9.8500    3.3990   31.6290 C.3   237  ARG237      0.0489
    203  CD        10.8640    3.8220   30.5820 C.3   237  ARG237      0.2205
    204  NE        10.9040    5.2730   30.4500 N.pl3 237  ARG237     -0.0865
    205  CZ        12.0030    5.9820   30.1990 C.cat 237  ARG237      0.5346
    206  NH1       13.1820    5.3760   30.0620 N.pl3 237  ARG237      0.1354
    207  NH2       11.9230    7.3050   30.0930 N.pl3 237  ARG237      0.1354
    208  N         15.1030   14.0000   21.7420 N.3   292  GLU292     -0.1245
    209  CA        13.8280   13.3140   21.7290 C.3   292  GLU292      0.1567
    210  C         12.6000   14.2140   21.7470 C.2   292  GLU292      0.2260
    211  O         11.6220   13.9290   21.0650 O.2   292  GLU292     -0.2867
    212  CB        13.7730   12.3830   22.9280 C.3   292  GLU292      0.0388
    213  CG        14.8580   11.3280   22.8990 C.3   292  GLU292      0.1160
    214  CD        14.3720   10.0040   23.4350 C.2   292  GLU292      0.3649
    215  OE1       14.1140    9.9230   24.6540 O.co2 292  GLU292     -0.2457
    216  OE2       14.2380    9.0480   22.6370 O.co2 292  GLU292     -0.2457
@<TRIPOS>BOND
     1   211   210    2
     2   209   208    1
     3   209   210    1
     4   209   212    1
     5   216   214   ar
     6   213   212    1
     7   213   214    1
     8   214   215   ar
     9   130   129    2
    10   129   128    1
    11    57    56    1
    12   127   128    1
    13   128   131    1
    14   122   121    1
    15   122   123    2
    16    56    53    1
    17   121   120    1
    18   121   124    1
    19   131   132    1
    20   131   133    1
    21    55    54    2
    22   135   136    1
    23   125   124    1
    24   137   136    1
    25   137   138    2
    26    53    54    1
    27    53    52    1
    28   132   134    1
    29   124   126    1
    30    70    68    1
    31    54    58   am
    32   136   139    1
    33    52    48   am
    34    63    62    1
    35    69    68    1
    36    68    65    1
    37    49    48    2
    38    58    59    1
    39    62    59    1
    40    51    50    1
    41    48    47    1
    42   206   205    1
    43    65    64    1
    44    65    66    1
    45   207   205    1
    46    64    60   am
    47   139   140    1
    48   205   204    2
    49    61    60    2
    50    60    59    1
    51   199   200    2
    52   199   198    1
    53   204   203    1
    54   116   115    2
    55   203   202    1
    56   140   142   ar
    57   140   141   ar
    58   142   144   ar
    59    50    47    1
    60   153   152   ar
    61    47    46    1
    62   141   143   ar
    63   201   198    1
    64   201   202    1
    65   144   145   ar
    66    66    67    2
    67   163   161   ar
    68   198   197    1
    69   117   119    1
    70   117   118    1
    71   117   114    1
    72   115   114    1
    73    44    43   ar
    74   143   145   ar
    75   145   146    1
    76    46    39   am
    77   113   114    1
    78    74    73    2
    79   152   151    1
    80   152   154   ar
    81   151   148    1
    82   161   162   ar
    83   161   160    1
    84    43    45   ar
    85    43    42    1
    86    71    72    1
    87    75    72    1
    88    73    72    1
    89    39    38    1
    90    39    40    2
    91   160   159    1
    92    41    42    1
    93    41    38    1
    94   148   147    1
    95   148   149    1
    96   196   194   ar
    97   193   194    1
    98   193   190    1
    99   188   186   ar
   100    38    37    1
   101   105   104    1
   102   192   191    2
   103   194   195   ar
   104   159   156    1
   105   191   190    1
   106   149   150    2
   107    27    25   ar
   108    27    26   ar
   109   190   189    1
   110   186   187   ar
   111   186   185    1
   112    25    23   ar
   113   156   155    1
   114   156   157    1
   115   104   102   ar
   116   104   103   ar
   117    26    24   ar
   118   102   100   ar
   119   179   177    1
   120     9     8    1
   121   185   184    1
   122   103   101   ar
   123   157   158    2
   124    23    22   ar
   125   169   171    1
   126   169   168    1
   127   165   168    1
   128   165   164    1
   129   165   166    1
   130   170   168    1
   131    32    29    1
   132    32    33    1
   133     8     7    1
   134   177   176    1
   135    24    22   ar
   136   109   108    2
   137   100    99   ar
   138    22    21    1
   139    29    30    1
   140    29    28    1
   141   101    99   ar
   142   166   167    2
   143   184   181    1
   144   183   182    2
   145    34    33    1
   146    34    35    1
   147   182   181    1
   148    30    31    2
   149    99    98    1
   150   108   107    1
   151     7     6    1
   152    36    35    1
   153   181   180    1
   154   176   178    1
   155   176   173    1
   156   180   174   am
   157    21    18    1
   158     6     5    1
   159    18    19    1
   160    18    17    1
   161   174   173    1
   162   174   175    2
   163   173   172    1
   164    98    95    1
   165   107   106    1
   166   107   110    1
   167   106    96   am
   168    19    20    2
   169   110   111    1
   170   110   112    1
   171    96    95    1
   172    96    97    2
   173    95    94    1
   174     5     2    1
   175    83    82   ar
   176     1     2    1
   177     2     3    1
   178    94    87   am
   179    88    87    2
   180    15    16    1
   181    15    14    1
   182    82    84   ar
   183    82    81    1
   184    87    86    1
   185    79    78    2
   186    80    81    1
   187    80    77    1
   188     3     4    2
   189    16    10    1
   190    14    11    1
   191    76    77    1
   192    78    77    1
   193    78    85   am
   194    86    85    1
   195    86    89    1
   196    10    11    1
   197    11    12    1
   198    89    90    1
   199    90    91    1
   200    91    93   ar
   201    91    92   ar
   202    12    13    2
