@<TRIPOS>MOLECULE
tmp/4ffnA00.pdb
 132 120 0 0 0
SMALL
GASTEIGER

@<TRIPOS>ATOM
      1  N          9.6630    5.0930   22.7340 N.3    12  GLN12      -0.1245
      2  CA         9.7530    3.8010   23.3880 C.3    12  GLN12       0.1566
      3  C          9.3340    2.7360   22.3890 C.2    12  GLN12       0.2260
      4  O         10.0640    1.7850   22.1640 O.2    12  GLN12      -0.2867
      5  CB         8.8380    3.7330   24.5960 C.3    12  GLN12       0.0367
      6  CG         9.3940    4.2890   25.8860 C.3    12  GLN12       0.0905
      7  CD         8.4030    4.0690   27.0030 C.2    12  GLN12       0.2608
      8  OE1        7.4710    4.8500   27.1650 O.2    12  GLN12      -0.2717
      9  NE2        8.5630    2.9720   27.7440 N.am   12  GLN12      -0.0878
     10  N          9.8090   12.7430   31.8830 N.3   136  SER136     -0.1202
     11  CA        10.9550   12.1200   31.2270 C.3   136  SER136      0.2020
     12  C         11.4140   12.9790   30.0520 C.2   136  SER136      0.2619
     13  O         10.9160   14.0990   29.8620 O.2   136  SER136     -0.2717
     14  CB        10.6470   10.6790   30.8060 C.3   136  SER136      0.2103
     15  OG         9.4590   10.6080   30.0410 O.3   136  SER136     -0.2182
     16  N         12.3870   12.4830   29.2910 N.am  137  SER137     -0.1951
     17  CA        12.9060   13.2350   28.1510 C.3   137  SER137      0.1924
     18  C         13.4480   14.6060   28.5970 C.2   137  SER137      0.2314
     19  O         13.6880   15.4830   27.7550 O.2   137  SER137     -0.2863
     20  CB        11.7950   13.4270   27.1040 C.3   137  SER137      0.2116
     21  OG        12.3030   13.4040   25.7810 O.3   137  SER137     -0.2180
     22  N         24.3810    5.7410   31.4710 N.3   163  SER163     -0.1217
     23  CA        23.1940    4.9270   31.5750 C.3   163  SER163      0.1889
     24  C         23.5540    3.4630   31.5520 C.2   163  SER163      0.2288
     25  O         24.4840    3.0530   30.8460 O.2   163  SER163     -0.2866
     26  CB        22.2320    5.2630   30.4360 C.3   163  SER163      0.2089
     27  OG        21.1980    4.2950   30.3040 O.3   163  SER163     -0.2183
     28  N         21.1210   -0.2590   31.5480 N.3   165  GLU165     -0.1245
     29  CA        19.8620   -1.0070   31.6670 C.3   165  GLU165      0.1567
     30  C         20.0920   -2.2880   32.4610 C.2   165  GLU165      0.2260
     31  O         21.1530   -2.9080   32.3510 O.2   165  GLU165     -0.2867
     32  CB        19.2730   -1.3680   30.2990 C.3   165  GLU165      0.0388
     33  CG        18.5430   -0.2400   29.5850 C.3   165  GLU165      0.1160
     34  CD        19.5010    0.7520   28.9500 C.2   165  GLU165      0.3649
     35  OE1       20.2390    0.3620   28.0140 O.co2 165  GLU165     -0.2457
     36  OE2       19.5150    1.9210   29.3970 O.co2 165  GLU165     -0.2457
     37  N         25.3430    9.4340   27.5060 N.3   181  VAL181     -0.1245
     38  CA        24.1730   10.1880   27.1260 C.3   181  VAL181      0.1561
     39  C         24.5930   11.6080   26.8240 C.2   181  VAL181      0.2260
     40  O         24.8930   12.3670   27.7460 O.2   181  VAL181     -0.2867
     41  CB        23.2190   10.2380   28.3200 C.3   181  VAL181      0.0252
     42  CG1       22.0410   11.1610   28.0400 C.3   181  VAL181      0.0019
     43  CG2       22.7660    8.8340   28.6760 C.3   181  VAL181      0.0019
     44  N         18.4850   14.4440   25.1160 N.3   189  CYS189     -0.1235
     45  CA        19.5240   13.5930   24.5790 C.3   189  CYS189      0.1677
     46  C         19.4370   13.5180   23.0690 C.2   189  CYS189      0.2270
     47  O         18.4310   13.0620   22.5120 O.2   189  CYS189     -0.2867
     48  CB        19.4860   12.2050   25.2040 C.3   189  CYS189      0.0956
     49  SG        20.6830   11.0590   24.4810 S.3   189  CYS189     -0.0801
     50  N         16.2100    1.3000   33.5770 N.3   219  ASP219     -0.1239
     51  CA        17.4890    1.9270   33.4090 C.3   219  ASP219      0.1674
     52  C         17.8110    2.8350   34.5740 C.2   219  ASP219      0.2266
     53  O         16.9210    3.3660   35.2650 O.2   219  ASP219     -0.2867
     54  CB        17.6000    2.6480   32.0800 C.3   219  ASP219      0.1410
     55  CG        16.7670    3.9040   32.0240 C.2   219  ASP219      0.3668
     56  OD1       16.9850    4.6940   31.0830 O.co2 219  ASP219     -0.2456
     57  OD2       15.8970    4.1090   32.9000 O.co2 219  ASP219     -0.2456
     58  N         20.1960    6.1150   35.3780 N.3   221  GLU221     -0.1245
     59  CA        21.0550    7.2080   34.9180 C.3   221  GLU221      0.1567
     60  C         21.8510    7.7400   36.1020 C.2   221  GLU221      0.2260
     61  O         21.3200    7.8700   37.2140 O.2   221  GLU221     -0.2867
     62  CB        20.2860    8.3730   34.2750 C.3   221  GLU221      0.0388
     63  CG        19.1600    8.0280   33.3060 C.3   221  GLU221      0.1160
     64  CD        18.6310    9.2380   32.5030 C.2   221  GLU221      0.3649
     65  OE1       17.6450    9.9860   32.9130 O.co2 221  GLU221     -0.2457
     66  OE2       19.1790    9.4190   31.3900 O.co2 221  GLU221     -0.2457
     67  N         18.3150    9.3040   38.4800 N.3   233  GLU233     -0.1245
     68  CA        16.9970    8.6990   38.3080 C.3   233  GLU233      0.1567
     69  C         17.0670    7.2440   37.8420 C.2   233  GLU233      0.2260
     70  O         18.1090    6.7350   37.4330 O.2   233  GLU233     -0.2867
     71  CB        16.0810    9.5340   37.3730 C.3   233  GLU233      0.0388
     72  CG        16.4060    9.3910   35.8900 C.3   233  GLU233      0.1160
     73  CD        15.2570    9.6090   34.8800 C.2   233  GLU233      0.3649
     74  OE1       14.0670    9.6810   35.2490 O.co2 233  GLU233     -0.2457
     75  OE2       15.6830    9.6530   33.7130 O.co2 233  GLU233     -0.2457
     76  N         14.3980    4.5470   35.5140 N.3   235  ASP235     -0.1239
     77  CA        13.1550    4.5420   34.7850 C.3   235  ASP235      0.1674
     78  C         12.8440    3.0430   34.5340 C.2   235  ASP235      0.2266
     79  O         13.5890    2.3630   33.8400 O.2   235  ASP235     -0.2867
     80  CB        13.2490    5.5080   33.5410 C.3   235  ASP235      0.1410
     81  CG        12.9230    7.0310   33.9030 C.2   235  ASP235      0.3668
     82  OD1       11.9890    7.1830   34.7190 O.co2 235  ASP235     -0.2456
     83  OD2       13.5390    8.0760   33.4110 O.co2 235  ASP235     -0.2456
     84  N         10.9650    0.9160   32.6470 N.3   237  ARG237     -0.1245
     85  CA        10.1200    0.8170   31.4680 C.3   237  ARG237      0.1563
     86  C         11.0760    0.7120   30.3250 C.2   237  ARG237      0.2260
     87  O         12.2530    1.0230   30.4790 O.2   237  ARG237     -0.2867
     88  CB         9.2170    2.0530   31.3020 C.3   237  ARG237      0.0307
     89  CG         9.8500    3.3990   31.6290 C.3   237  ARG237      0.0489
     90  CD        10.8640    3.8220   30.5820 C.3   237  ARG237      0.2205
     91  NE        10.9040    5.2730   30.4500 N.pl3 237  ARG237     -0.0865
     92  CZ        12.0030    5.9820   30.1990 C.cat 237  ARG237      0.5346
     93  NH1       13.1820    5.3760   30.0620 N.pl3 237  ARG237      0.1354
     94  NH2       11.9230    7.3050   30.0930 N.pl3 237  ARG237      0.1354
     95  N         13.3520    1.6050   27.5050 N.3   239  PRO239     -0.2102
     96  CA        13.8860    2.9030   27.1360 C.3   239  PRO239      0.1504
     97  C         14.0860    3.0290   25.6390 C.2   239  PRO239      0.2576
     98  O         14.0880    2.0270   24.9270 O.2   239  PRO239     -0.2718
     99  CB        15.2380    2.9360   27.8550 C.3   239  PRO239      0.0282
    100  CG        15.6370    1.5020   28.0190 C.3   239  PRO239      0.0208
    101  CD        14.4250    0.6350   27.7930 C.3   239  PRO239      0.0893
    102  N         14.2360    4.2650   25.1820 N.am  240  SER240     -0.1938
    103  CA        14.5700    4.5610   23.8040 C.3   240  SER240      0.2055
    104  C         16.0290    4.9940   23.7450 C.2   240  SER240      0.2643
    105  O         16.6680    5.2050   24.7850 O.2   240  SER240     -0.2714
    106  CB        13.6550    5.6630   23.2650 C.3   240  SER240      0.2130
    107  OG        13.7110    6.7900   24.1140 O.3   240  SER240     -0.2179
    108  N         16.5360    5.1030   22.5160 N.am  241  GLN241     -0.1963
    109  CA        17.9280    5.4590   22.1990 C.3   241  GLN241      0.1733
    110  C         18.9870    4.4390   22.6140 C.2   241  GLN241      0.2617
    111  O         19.6430    3.8600   21.7600 O.2   241  GLN241     -0.2715
    112  CB        18.2860    6.8660   22.6910 C.3   241  GLN241      0.0408
    113  CG        17.3410    7.9300   22.1680 C.3   241  GLN241      0.0908
    114  CD        17.6620    9.2870   22.7360 C.2   241  GLN241      0.2608
    115  OE1       17.8920    9.4260   23.9310 O.2   241  GLN241     -0.2717
    116  NE2       17.7000   10.2940   21.8810 N.am  241  GLN241     -0.0878
    117  N         19.1530    4.2180   23.9100 N.am  242  THR242     -0.1951
    118  CA        20.2670    3.4130   24.4090 C.3   242  THR242      0.1897
    119  C         20.2590    1.9110   24.0430 C.2   242  THR242      0.2313
    120  O         21.3260    1.3140   23.9080 O.2   242  THR242     -0.2863
    121  CB        20.4340    3.5880   25.9340 C.3   242  THR242      0.1794
    122  OG1       19.1840    3.3340   26.5830 O.3   242  THR242     -0.2208
    123  CG2       20.8720    5.0160   26.2610 C.3   242  THR242      0.0378
    124  N         15.1030   14.0000   21.7420 N.3   292  GLU292     -0.1245
    125  CA        13.8280   13.3140   21.7290 C.3   292  GLU292      0.1567
    126  C         12.6000   14.2140   21.7470 C.2   292  GLU292      0.2260
    127  O         11.6220   13.9290   21.0650 O.2   292  GLU292     -0.2867
    128  CB        13.7730   12.3830   22.9280 C.3   292  GLU292      0.0388
    129  CG        14.8580   11.3280   22.8990 C.3   292  GLU292      0.1160
    130  CD        14.3720   10.0040   23.4350 C.2   292  GLU292      0.3649
    131  OE1       14.1140    9.9230   24.6540 O.co2 292  GLU292     -0.2457
    132  OE2       14.2380    9.0480   22.6370 O.co2 292  GLU292     -0.2457
@<TRIPOS>BOND
     1   127   126    2
     2   125   124    1
     3   125   126    1
     4   125   128    1
     5   111   110    2
     6   116   114   am
     7     4     3    2
     8   113   112    1
     9   113   114    1
    10   109   108    1
    11   109   110    1
    12   109   112    1
    13     3     2    1
    14    47    46    2
    15   108   104   am
    16   110   117   am
    17   132   130   ar
    18     1     2    1
    19   114   115    2
    20   129   128    1
    21   129   130    1
    22    46    45    1
    23   106   103    1
    24   106   107    1
    25     2     5    1
    26   130   131   ar
    27   104   103    1
    28   104   105    2
    29   103   102    1
    30   120   119    2
    31   117   118    1
    32   119   118    1
    33   118   121    1
    34    49    48    1
    35    45    44    1
    36    45    48    1
    37     5     6    1
    38    98    97    2
    39   102    97   am
    40    97    96    1
    41    21    20    1
    42     6     7    1
    43   121   123    1
    44   121   122    1
    45    39    38    1
    46    39    40    2
    47     7     8    2
    48     7     9   am
    49    20    17    1
    50    38    37    1
    51    38    41    1
    52    96    95    1
    53    96    99    1
    54    95   101    1
    55    19    18    2
    56   101   100    1
    57    99   100    1
    58    35    34   ar
    59    42    41    1
    60    17    18    1
    61    17    16    1
    62    41    43    1
    63    34    36   ar
    64    34    33    1
    65    16    12   am
    66    33    32    1
    67    13    12    2
    68    15    14    1
    69    12    11    1
    70    93    92    1
    71    94    92    1
    72    92    91    2
    73    32    29    1
    74    27    26    1
    75    86    87    2
    76    86    85    1
    77    26    23    1
    78    91    90    1
    79    90    89    1
    80    14    11    1
    81    25    24    2
    82    56    55   ar
    83    11    10    1
    84    88    85    1
    85    88    89    1
    86    66    64   ar
    87    85    84    1
    88    22    23    1
    89    28    29    1
    90    24    23    1
    91    29    30    1
    92    55    54    1
    93    55    57   ar
    94    54    51    1
    95    31    30    2
    96    64    65   ar
    97    64    63    1
    98    63    62    1
    99    51    50    1
   100    51    52    1
   101    83    81   ar
   102    80    81    1
   103    80    77    1
   104    75    73   ar
   105    79    78    2
   106    81    82   ar
   107    62    59    1
   108    78    77    1
   109    52    53    2
   110    77    76    1
   111    73    74   ar
   112    73    72    1
   113    59    58    1
   114    59    60    1
   115    72    71    1
   116    60    61    2
   117    71    68    1
   118    70    69    2
   119    69    68    1
   120    68    67    1
