@<TRIPOS>MOLECULE
tmp/4ffoA01.pdb
 199 187 0 0 0
SMALL
GASTEIGER

@<TRIPOS>ATOM
      1  N         10.5300   11.0480   41.0100 N.3   104  LYS104     -0.1245
      2  CA        11.9490   11.2760   41.2890 C.3   104  LYS104      0.1561
      3  C         12.2870   11.4260   42.7800 C.2   104  LYS104      0.2260
      4  O         13.3830   11.0570   43.2060 O.2   104  LYS104     -0.2867
      5  CB        12.4710   12.4670   40.4720 C.3   104  LYS104      0.0271
      6  CG        12.5370   12.1760   38.9740 C.3   104  LYS104      0.0035
      7  CD        13.3560   13.2090   38.2180 C.3   104  LYS104      0.0206
      8  CE        13.6760   12.7450   36.8010 C.3   104  LYS104      0.1093
      9  NZ        12.4770   12.5390   35.9420 N.3   104  LYS104     -0.1314
     10  N         22.3390   13.3390   44.1930 N.3   119  PRO119     -0.2116
     11  CA        22.6290   14.7570   44.4410 C.3   119  PRO119      0.1372
     12  C         21.9500   15.3030   45.6950 C.2   119  PRO119      0.2244
     13  O         20.8050   14.9390   45.9960 O.2   119  PRO119     -0.2868
     14  CB        22.0750   15.4550   43.1970 C.3   119  PRO119      0.0268
     15  CG        22.1230   14.4120   42.1350 C.3   119  PRO119      0.0207
     16  CD        21.8040   13.1230   42.8350 C.3   119  PRO119      0.0892
     17  N         20.0970   22.7530   40.1210 N.3   129  PHE129     -0.1241
     18  CA        19.4010   22.0820   39.0290 C.3   129  PHE129      0.1605
     19  C         17.9860   21.7580   39.4740 C.2   129  PHE129      0.2264
     20  O         17.7810   21.1570   40.5350 O.2   129  PHE129     -0.2867
     21  CB        20.1310   20.8230   38.5570 C.3   129  PHE129      0.0534
     22  CG        19.7790   20.4210   37.1530 C.ar  129  PHE129     -0.0203
     23  CD1       20.4030   21.0290   36.0640 C.ar  129  PHE129     -0.0042
     24  CD2       18.8020   19.4580   36.9120 C.ar  129  PHE129     -0.0042
     25  CE1       20.0710   20.6740   34.7640 C.ar  129  PHE129     -0.0003
     26  CE2       18.4670   19.0970   35.6130 C.ar  129  PHE129     -0.0003
     27  CZ        19.1040   19.7070   34.5380 C.ar  129  PHE129     -0.0000
     28  N         13.9680   20.3270   38.3360 N.3   131  LYS131     -0.1245
     29  CA        13.2090   19.4910   37.4160 C.3   131  LYS131      0.1561
     30  C         11.8730   19.0840   38.0320 C.2   131  LYS131      0.2260
     31  O         11.7630   18.9930   39.2570 O.2   131  LYS131     -0.2867
     32  CB        14.0250   18.2540   37.0000 C.3   131  LYS131      0.0271
     33  CG        14.6500   17.4730   38.1490 C.3   131  LYS131      0.0035
     34  CD        15.8190   16.6310   37.6560 C.3   131  LYS131      0.0206
     35  CE        16.3550   15.7310   38.7550 C.3   131  LYS131      0.1093
     36  NZ        17.5130   14.9110   38.3060 N.3   131  LYS131     -0.1314
     37  N          8.3940   13.9620   35.1250 N.3   135  GLU135     -0.1231
     38  CA         8.5580   14.0480   33.6660 C.3   135  GLU135      0.1699
     39  C          9.6760   13.1310   33.1520 C.2   135  GLU135      0.2593
     40  O         10.3000   12.4030   33.9300 O.2   135  GLU135     -0.2718
     41  CB         8.8090   15.4980   33.2280 C.3   135  GLU135      0.0402
     42  CG         7.5870   16.4050   33.3000 C.3   135  GLU135      0.1161
     43  CD         6.4890   16.0020   32.3330 C.2   135  GLU135      0.3649
     44  OE1        6.7610   15.8990   31.1160 O.co2 135  GLU135     -0.2457
     45  OE2        5.3470   15.7940   32.7920 O.co2 135  GLU135     -0.2457
     46  N          9.9010   13.1610   31.8370 N.am  136  SER136     -0.1938
     47  CA        11.0320   12.4800   31.2000 C.3   136  SER136      0.2055
     48  C         11.5420   13.3180   30.0210 C.2   136  SER136      0.2644
     49  O         11.0740   14.4400   29.8120 O.2   136  SER136     -0.2714
     50  CB        10.6480   11.0620   30.7560 C.3   136  SER136      0.2130
     51  OG         9.6280   11.0800   29.7720 O.3   136  SER136     -0.2179
     52  N         12.5060   12.7800   29.2700 N.am  137  SER137     -0.1935
     53  CA        13.1050   13.4700   28.1110 C.3   137  SER137      0.2055
     54  C         13.6810   14.8570   28.4440 C.2   137  SER137      0.2644
     55  O         13.8400   15.6990   27.5550 O.2   137  SER137     -0.2714
     56  CB        12.0990   13.5760   26.9510 C.3   137  SER137      0.2130
     57  OG        11.3890   12.3630   26.7660 O.3   137  SER137     -0.2179
     58  N         13.9910   15.0790   29.7230 N.am  138  SER138     -0.1935
     59  CA        14.5020   16.3640   30.2320 C.3   138  SER138      0.2055
     60  C         13.4810   17.5060   30.1770 C.2   138  SER138      0.2642
     61  O         13.8560   18.6790   30.2630 O.2   138  SER138     -0.2714
     62  CB        15.7990   16.7740   29.5210 C.3   138  SER138      0.2130
     63  OG        16.7730   15.7460   29.6010 O.3   138  SER138     -0.2179
     64  N         12.2000   17.1650   30.0440 N.am  139  VAL139     -0.1977
     65  CA        11.1300   18.1640   30.0420 C.3   139  VAL139      0.1596
     66  C         11.1200   18.9210   31.3720 C.2   139  VAL139      0.2287
     67  O         11.0000   18.3160   32.4420 O.2   139  VAL139     -0.2864
     68  CB         9.7450   17.5290   29.7510 C.3   139  VAL139      0.0276
     69  CG1        8.6160   18.5180   30.0270 C.3   139  VAL139      0.0022
     70  CG2        9.6810   17.0310   28.3120 C.3   139  VAL139      0.0022
     71  N         13.5830   20.3450   32.8030 N.3   141  ALA141     -0.1245
     72  CA        14.8940   20.3090   33.4540 C.3   141  ALA141      0.1562
     73  C         15.7240   21.5160   33.0400 C.2   141  ALA141      0.2260
     74  O         15.9600   21.7440   31.8500 O.2   141  ALA141     -0.2867
     75  CB        15.6300   19.0140   33.1340 C.3   141  ALA141      0.0290
     76  N         18.0850   20.5440   43.2170 N.3   154  GLU154     -0.1231
     77  CA        19.2980   19.7860   43.5180 C.3   154  GLU154      0.1699
     78  C         20.5490   20.6030   43.3130 C.2   154  GLU154      0.2592
     79  O         20.5320   21.6230   42.6250 O.2   154  GLU154     -0.2718
     80  CB        19.4070   18.5660   42.6020 C.3   154  GLU154      0.0402
     81  CG        18.3280   17.5260   42.7790 C.3   154  GLU154      0.1161
     82  CD        18.6010   16.2730   41.9780 C.2   154  GLU154      0.3649
     83  OE1       19.0480   16.3650   40.8090 O.co2 154  GLU154     -0.2457
     84  OE2       18.3640   15.1890   42.5310 O.co2 154  GLU154     -0.2457
     85  N         21.6460   20.1350   43.9020 N.am  155  GLU155     -0.1966
     86  CA        22.9570   20.6380   43.5410 C.3   155  GLU155      0.1733
     87  C         23.2000   20.2730   42.0810 C.2   155  GLU155      0.2616
     88  O         22.7440   19.2250   41.6130 O.2   155  GLU155     -0.2715
     89  CB        24.0410   20.0320   44.4330 C.3   155  GLU155      0.0429
     90  CG        24.1690   18.5180   44.3370 C.3   155  GLU155      0.1163
     91  CD        25.3110   17.9660   45.1630 C.2   155  GLU155      0.3649
     92  OE1       26.2900   18.7020   45.4080 O.co2 155  GLU155     -0.2457
     93  OE2       25.2260   16.7880   45.5660 O.co2 155  GLU155     -0.2457
     94  N         23.8920   21.1510   41.3630 N.am  156  TYR156     -0.1960
     95  CA        24.2820   20.8820   39.9870 C.3   156  TYR156      0.1771
     96  C         25.5510   20.0480   39.9910 C.2   156  TYR156      0.2619
     97  O         26.5980   20.5000   40.4660 O.2   156  TYR156     -0.2715
     98  CB        24.5070   22.1950   39.2360 C.3   156  TYR156      0.0574
     99  CG        24.7710   22.0530   37.7500 C.ar  156  TYR156     -0.0198
    100  CD1       23.7630   21.6460   36.8770 C.ar  156  TYR156     -0.0009
    101  CD2       26.0200   22.3630   37.2130 C.ar  156  TYR156     -0.0009
    102  CE1       23.9970   21.5270   35.5090 C.ar  156  TYR156      0.0417
    103  CE2       26.2640   22.2520   35.8490 C.ar  156  TYR156      0.0417
    104  CZ        25.2500   21.8340   35.0010 C.ar  156  TYR156      0.1957
    105  OH        25.4900   21.7250   33.6450 O.3   156  TYR156     -0.2866
    106  N         25.4460   18.8260   39.4810 N.am  157  VAL157     -0.1977
    107  CA        26.5780   17.9030   39.4240 C.3   157  VAL157      0.1596
    108  C         27.1380   17.8650   38.0050 C.2   157  VAL157      0.2287
    109  O         26.4810   17.3770   37.0850 O.2   157  VAL157     -0.2864
    110  CB        26.1910   16.4640   39.8630 C.3   157  VAL157      0.0276
    111  CG1       27.4350   15.5890   39.9840 C.3   157  VAL157      0.0022
    112  CG2       25.4300   16.4780   41.1830 C.3   157  VAL157      0.0022
    113  N         27.1240   12.0500   31.9720 N.3   161  VAL161     -0.1245
    114  CA        25.8640   11.3700   32.2520 C.3   161  VAL161      0.1561
    115  C         25.9580    9.9620   31.6760 C.2   161  VAL161      0.2260
    116  O         26.1460    9.7820   30.4730 O.2   161  VAL161     -0.2867
    117  CB        24.6470   12.1310   31.6870 C.3   161  VAL161      0.0252
    118  CG1       23.3520   11.3990   32.0290 C.3   161  VAL161      0.0019
    119  CG2       24.6130   13.5550   32.2390 C.3   161  VAL161      0.0019
    120  N         25.5590    9.4210   27.7070 N.3   181  VAL181     -0.1245
    121  CA        24.4540   10.2540   27.2660 C.3   181  VAL181      0.1561
    122  C         24.9690   11.6690   26.9690 C.2   181  VAL181      0.2260
    123  O         25.3350   12.4120   27.8840 O.2   181  VAL181     -0.2867
    124  CB        23.3290   10.2770   28.3310 C.3   181  VAL181      0.0252
    125  CG1       22.2320   11.2630   27.9600 C.3   181  VAL181      0.0019
    126  CG2       22.7600    8.8760   28.5330 C.3   181  VAL181      0.0019
    127  N         24.5290   15.3610   26.0970 N.3   183  ILE183     -0.1245
    128  CA        23.4490   16.3260   26.3460 C.3   183  ILE183      0.1561
    129  C         23.5950   17.5920   25.5060 C.2   183  ILE183      0.2260
    130  O         24.7000   17.9580   25.1170 O.2   183  ILE183     -0.2867
    131  CB        23.3400   16.6980   27.8470 C.3   183  ILE183      0.0252
    132  CG1       24.6620   17.2940   28.3580 C.3   183  ILE183      0.0019
    133  CG2       22.9380   15.4750   28.6640 C.3   183  ILE183      0.0019
    134  CD1       24.5420   18.1150   29.6270 C.3   183  ILE183      0.0001
    135  N         19.6080   20.0950   27.9420 N.3   187  TYR187     -0.1241
    136  CA        19.8000   18.8700   28.7460 C.3   187  TYR187      0.1605
    137  C         19.0780   17.6360   28.1840 C.2   187  TYR187      0.2264
    138  O         18.9900   16.6030   28.8460 O.2   187  TYR187     -0.2867
    139  CB        19.5050   19.1090   30.2480 C.3   187  TYR187      0.0534
    140  CG        20.4740   20.1000   30.8560 C.ar  187  TYR187     -0.0201
    141  CD1       21.6940   19.6780   31.3790 C.ar  187  TYR187     -0.0009
    142  CD2       20.1950   21.4680   30.8560 C.ar  187  TYR187     -0.0009
    143  CE1       22.5990   20.5870   31.9080 C.ar  187  TYR187      0.0417
    144  CE2       21.0910   22.3850   31.3780 C.ar  187  TYR187      0.0417
    145  CZ        22.2920   21.9400   31.9010 C.ar  187  TYR187      0.1957
    146  OH        23.1800   22.8490   32.4210 O.3   187  TYR187     -0.2866
    147  N         20.4740    6.0920   35.6400 N.3   221  GLU221     -0.1245
    148  CA        21.2320    7.2400   35.1390 C.3   221  GLU221      0.1567
    149  C         22.0660    7.8080   36.2800 C.2   221  GLU221      0.2260
    150  O         21.5540    8.0300   37.3770 O.2   221  GLU221     -0.2867
    151  CB        20.3120    8.3300   34.5590 C.3   221  GLU221      0.0388
    152  CG        19.2690    7.8490   33.5540 C.3   221  GLU221      0.1160
    153  CD        18.7580    8.9440   32.6170 C.2   221  GLU221      0.3649
    154  OE1       17.9900    9.8620   33.0340 O.co2 221  GLU221     -0.2457
    155  OE2       19.1210    8.8610   31.4250 O.co2 221  GLU221     -0.2457
    156  N         25.5430   10.6310   37.1820 N.3   223  ILE223     -0.1245
    157  CA        26.5410   11.5940   36.7400 C.3   223  ILE223      0.1561
    158  C         27.8550   11.2680   37.4400 C.2   223  ILE223      0.2260
    159  O         27.8930   11.1200   38.6660 O.2   223  ILE223     -0.2867
    160  CB        26.1090   13.0550   37.0070 C.3   223  ILE223      0.0252
    161  CG1       24.8040   13.3740   36.2570 C.3   223  ILE223      0.0019
    162  CG2       27.2200   14.0240   36.6090 C.3   223  ILE223      0.0019
    163  CD1       24.2180   14.7400   36.5620 C.3   223  ILE223      0.0001
    164  N         21.1340    9.9430   39.5230 N.3   232  ILE232     -0.1231
    165  CA        20.1270   10.9970   39.3800 C.3   232  ILE232      0.1692
    166  C         18.6980   10.4610   39.2440 C.2   232  ILE232      0.2591
    167  O         17.7810   11.0060   39.8560 O.2   232  ILE232     -0.2718
    168  CB        20.4680   12.0130   38.2570 C.3   232  ILE232      0.0266
    169  CG1       20.6800   11.3060   36.9110 C.3   232  ILE232      0.0019
    170  CG2       21.6850   12.8480   38.6570 C.3   232  ILE232      0.0020
    171  CD1       20.8150   12.2350   35.7220 C.3   232  ILE232      0.0001
    172  N         18.5100    9.4010   38.4550 N.am  233  GLU233     -0.1979
    173  CA        17.1850    8.7870   38.2940 C.3   233  GLU233      0.1602
    174  C         17.2700    7.3090   37.9200 C.2   233  GLU233      0.2287
    175  O         18.3230    6.7950   37.5290 O.2   233  GLU233     -0.2864
    176  CB        16.2930    9.5580   37.2780 C.3   233  GLU233      0.0415
    177  CG        16.5920    9.2950   35.7930 C.3   233  GLU233      0.1163
    178  CD        15.4500    9.6240   34.8150 C.2   233  GLU233      0.3649
    179  OE1       14.2870    9.6940   35.2730 O.co2 233  GLU233     -0.2457
    180  OE2       15.8130    9.7610   33.6280 O.co2 233  GLU233     -0.2457
    181  N         14.5030    4.6120   35.6690 N.3   235  ASP235     -0.1239
    182  CA        13.2720    4.6230   34.8900 C.3   235  ASP235      0.1674
    183  C         12.9500    3.1490   34.5650 C.2   235  ASP235      0.2266
    184  O         13.6600    2.5060   33.7840 O.2   235  ASP235     -0.2867
    185  CB        13.4050    5.5700   33.6520 C.3   235  ASP235      0.1410
    186  CG        13.0630    7.0770   33.9780 C.2   235  ASP235      0.3668
    187  OD1       12.0680    7.2750   34.7150 O.co2 235  ASP235     -0.2456
    188  OD2       13.7400    8.0700   33.5090 O.co2 235  ASP235     -0.2456
    189  N         11.0560    1.1910   32.6900 N.3   237  ARG237     -0.1245
    190  CA        10.3060    1.0440   31.4450 C.3   237  ARG237      0.1563
    191  C         11.3360    0.9270   30.3350 C.2   237  ARG237      0.2260
    192  O         12.5260    1.1820   30.5600 O.2   237  ARG237     -0.2867
    193  CB         9.3470    2.2270   31.2040 C.3   237  ARG237      0.0307
    194  CG         9.8610    3.6160   31.5830 C.3   237  ARG237      0.0489
    195  CD        10.9220    4.1440   30.6300 C.3   237  ARG237      0.2205
    196  NE        10.9890    5.6030   30.6570 N.pl3 237  ARG237     -0.0865
    197  CZ        12.0930    6.3260   30.4780 C.cat 237  ARG237      0.5346
    198  NH1       13.2700    5.7400   30.2810 N.pl3 237  ARG237      0.1354
    199  NH2       12.0170    7.6520   30.5200 N.pl3 237  ARG237      0.1354
@<TRIPOS>BOND
     1   130   129    2
     2   129   128    1
     3   127   128    1
     4   128   131    1
     5    57    56    1
     6    56    53    1
     7   122   121    1
     8   122   123    2
     9   121   120    1
    10   121   124    1
    11    55    54    2
    12   131   132    1
    13   131   133    1
    14   135   136    1
    15   125   124    1
    16    53    54    1
    17    53    52    1
    18   137   136    1
    19   137   138    2
    20    70    68    1
    21   124   126    1
    22   132   134    1
    23    54    58   am
    24   136   139    1
    25    52    48   am
    26    62    63    1
    27    62    59    1
    28    58    59    1
    29    68    69    1
    30    68    65    1
    31    51    50    1
    32    49    48    2
    33    48    47    1
    34    65    64    1
    35    65    66    1
    36    64    60   am
    37    60    59    1
    38    60    61    2
    39   139   140    1
    40   198   197    1
    41   191   192    2
    42   191   190    1
    43   116   115    2
    44   197   199    1
    45   197   196    2
    46   195   196    1
    47   195   194    1
    48    50    47    1
    49   140   142   ar
    50   140   141   ar
    51   142   144   ar
    52    44    43   ar
    53    47    46    1
    54   193   190    1
    55   193   194    1
    56    66    67    2
    57   144   145   ar
    58   141   143   ar
    59   155   153   ar
    60   190   189    1
    61   115   114    1
    62   117   118    1
    63   117   119    1
    64   117   114    1
    65    46    39   am
    66    74    73    2
    67   145   143   ar
    68   145   146    1
    69   113   114    1
    70    43    45   ar
    71    43    42    1
    72   153   154   ar
    73   153   152    1
    74    71    72    1
    75    73    72    1
    76    75    72    1
    77    39    38    1
    78    39    40    2
    79    41    42    1
    80    41    38    1
    81   188   186   ar
    82   152   151    1
    83   180   178   ar
    84   105   104    1
    85   185   186    1
    86   185   182    1
    87    38    37    1
    88   184   183    2
    89   186   187   ar
    90    27    25   ar
    91    27    26   ar
    92   151   148    1
    93   183   182    1
    94    25    23   ar
    95   178   179   ar
    96   178   177    1
    97   182   181    1
    98   104   102   ar
    99   104   103   ar
   100   148   147    1
   101   148   149    1
   102   102   100   ar
   103    26    24   ar
   104   171   169    1
   105   177   176    1
   106   103   101   ar
   107     9     8    1
   108    23    22   ar
   109   161   163    1
   110   161   160    1
   111   149   150    2
   112   162   160    1
   113   157   160    1
   114   157   156    1
   115   157   158    1
   116     8     7    1
   117   100    99   ar
   118   169   168    1
   119    24    22   ar
   120    32    29    1
   121    32    33    1
   122   109   108    2
   123    22    21    1
   124   101    99   ar
   125   176   173    1
   126    29    30    1
   127    29    28    1
   128   158   159    2
   129   175   174    2
   130    34    33    1
   131    34    35    1
   132    99    98    1
   133   174   173    1
   134   108   107    1
   135    30    31    2
   136     7     6    1
   137   168   170    1
   138   168   165    1
   139   173   172    1
   140    36    35    1
   141   172   166   am
   142    21    18    1
   143     6     5    1
   144    18    19    1
   145    18    17    1
   146    98    95    1
   147   166   165    1
   148   166   167    2
   149   165   164    1
   150   107   106    1
   151   107   110    1
   152    19    20    2
   153   106    96   am
   154   110   111    1
   155   110   112    1
   156    95    96    1
   157    95    94    1
   158    96    97    2
   159     5     2    1
   160    83    82   ar
   161     1     2    1
   162     2     3    1
   163    94    87   am
   164    88    87    2
   165    82    84   ar
   166    82    81    1
   167    87    86    1
   168    15    16    1
   169    15    14    1
   170    80    81    1
   171    80    77    1
   172    79    78    2
   173     3     4    2
   174    16    10    1
   175    14    11    1
   176    76    77    1
   177    78    77    1
   178    78    85   am
   179    86    85    1
   180    86    89    1
   181    10    11    1
   182    90    89    1
   183    90    91    1
   184    11    12    1
   185    91    92   ar
   186    91    93   ar
   187    12    13    2
