@<TRIPOS>MOLECULE
tmp/4ffoA00.pdb
 138 126 0 0 0
SMALL
GASTEIGER

@<TRIPOS>ATOM
      1  N          9.7680    5.4180   22.6580 N.3    12  GLN12      -0.1245
      2  CA         9.8950    4.1220   23.3290 C.3    12  GLN12       0.1566
      3  C          9.4560    3.0230   22.3780 C.2    12  GLN12       0.2260
      4  O         10.1230    1.9980   22.2510 O.2    12  GLN12      -0.2867
      5  CB         9.0160    4.0460   24.5760 C.3    12  GLN12       0.0367
      6  CG         9.4840    4.8260   25.7880 C.3    12  GLN12       0.0905
      7  CD         8.5490    4.6040   26.9610 C.2    12  GLN12       0.2608
      8  OE1        7.5720    5.3370   27.1380 O.2    12  GLN12      -0.2717
      9  NE2        8.8140    3.5580   27.7410 N.am   12  GLN12      -0.0878
     10  N          9.9010   13.1610   31.8370 N.3   136  SER136     -0.1202
     11  CA        11.0320   12.4800   31.2000 C.3   136  SER136      0.2020
     12  C         11.5420   13.3180   30.0210 C.2   136  SER136      0.2619
     13  O         11.0740   14.4400   29.8120 O.2   136  SER136     -0.2717
     14  CB        10.6480   11.0620   30.7560 C.3   136  SER136      0.2103
     15  OG         9.6280   11.0800   29.7720 O.3   136  SER136     -0.2182
     16  N         12.5060   12.7800   29.2700 N.am  137  SER137     -0.1937
     17  CA        13.1050   13.4700   28.1110 C.3   137  SER137      0.2055
     18  C         13.6810   14.8570   28.4440 C.2   137  SER137      0.2643
     19  O         13.8400   15.6990   27.5550 O.2   137  SER137     -0.2714
     20  CB        12.0990   13.5760   26.9510 C.3   137  SER137      0.2130
     21  OG        11.3890   12.3630   26.7660 O.3   137  SER137     -0.2179
     22  N         13.9910   15.0790   29.7230 N.am  138  SER138     -0.1949
     23  CA        14.5020   16.3640   30.2320 C.3   138  SER138      0.1924
     24  C         13.4810   17.5060   30.1770 C.2   138  SER138      0.2314
     25  O         13.8560   18.6790   30.2630 O.2   138  SER138     -0.2863
     26  CB        15.7990   16.7740   29.5210 C.3   138  SER138      0.2116
     27  OG        16.7730   15.7460   29.6010 O.3   138  SER138     -0.2180
     28  N         24.5600    5.8330   31.5360 N.3   163  SER163     -0.1217
     29  CA        23.3640    5.0140   31.6120 C.3   163  SER163      0.1889
     30  C         23.6940    3.5220   31.6310 C.2   163  SER163      0.2288
     31  O         24.5800    3.0620   30.9100 O.2   163  SER163     -0.2866
     32  CB        22.4410    5.3380   30.4320 C.3   163  SER163      0.2089
     33  OG        21.3870    4.4000   30.3300 O.3   163  SER163     -0.2183
     34  N         21.3780   -0.2550   31.6720 N.3   165  GLU165     -0.1245
     35  CA        20.1170   -0.9860   31.7190 C.3   165  GLU165      0.1567
     36  C         20.2950   -2.2770   32.5040 C.2   165  GLU165      0.2260
     37  O         21.3540   -2.9150   32.4470 O.2   165  GLU165     -0.2867
     38  CB        19.5910   -1.3040   30.3140 C.3   165  GLU165      0.0388
     39  CG        18.8340   -0.1680   29.6440 C.3   165  GLU165      0.1160
     40  CD        19.7480    0.8560   28.9930 C.2   165  GLU165      0.3649
     41  OE1       20.7840    0.4520   28.4210 O.co2 165  GLU165     -0.2457
     42  OE2       19.4230    2.0640   29.0420 O.co2 165  GLU165     -0.2457
     43  N         25.5590    9.4210   27.7070 N.3   181  VAL181     -0.1245
     44  CA        24.4540   10.2540   27.2660 C.3   181  VAL181      0.1561
     45  C         24.9690   11.6690   26.9690 C.2   181  VAL181      0.2260
     46  O         25.3350   12.4120   27.8840 O.2   181  VAL181     -0.2867
     47  CB        23.3290   10.2770   28.3310 C.3   181  VAL181      0.0252
     48  CG1       22.2320   11.2630   27.9600 C.3   181  VAL181      0.0019
     49  CG2       22.7600    8.8760   28.5330 C.3   181  VAL181      0.0019
     50  N         18.9770   14.5800   25.2150 N.3   189  CYS189     -0.1235
     51  CA        20.0240   13.7200   24.6490 C.3   189  CYS189      0.1677
     52  C         20.0010   13.7050   23.1170 C.2   189  CYS189      0.2270
     53  O         18.9870   13.3440   22.5160 O.2   189  CYS189     -0.2867
     54  CB        19.8950   12.2920   25.1910 C.3   189  CYS189      0.0956
     55  SG        21.0850   11.1370   24.4750 S.3   189  CYS189     -0.0801
     56  N         16.3950    1.3270   33.5460 N.3   219  ASP219     -0.1239
     57  CA        17.7050    1.9160   33.3670 C.3   219  ASP219      0.1674
     58  C         18.0700    2.7750   34.5730 C.2   219  ASP219      0.2266
     59  O         17.2020    3.2070   35.3360 O.2   219  ASP219     -0.2867
     60  CB        17.8460    2.6540   32.0210 C.3   219  ASP219      0.1410
     61  CG        17.0460    3.9380   31.9510 C.2   219  ASP219      0.3668
     62  OD1       17.3080    4.7230   31.0240 O.co2 219  ASP219     -0.2456
     63  OD2       16.1630    4.1730   32.7980 O.co2 219  ASP219     -0.2456
     64  N         20.4740    6.0920   35.6400 N.3   221  GLU221     -0.1245
     65  CA        21.2320    7.2400   35.1390 C.3   221  GLU221      0.1567
     66  C         22.0660    7.8080   36.2800 C.2   221  GLU221      0.2260
     67  O         21.5540    8.0300   37.3770 O.2   221  GLU221     -0.2867
     68  CB        20.3120    8.3300   34.5590 C.3   221  GLU221      0.0388
     69  CG        19.2690    7.8490   33.5540 C.3   221  GLU221      0.1160
     70  CD        18.7580    8.9440   32.6170 C.2   221  GLU221      0.3649
     71  OE1       17.9900    9.8620   33.0340 O.co2 221  GLU221     -0.2457
     72  OE2       19.1210    8.8610   31.4250 O.co2 221  GLU221     -0.2457
     73  N         18.5100    9.4010   38.4550 N.3   233  GLU233     -0.1245
     74  CA        17.1850    8.7870   38.2940 C.3   233  GLU233      0.1567
     75  C         17.2700    7.3090   37.9200 C.2   233  GLU233      0.2260
     76  O         18.3230    6.7950   37.5290 O.2   233  GLU233     -0.2867
     77  CB        16.2930    9.5580   37.2780 C.3   233  GLU233      0.0388
     78  CG        16.5920    9.2950   35.7930 C.3   233  GLU233      0.1160
     79  CD        15.4500    9.6240   34.8150 C.2   233  GLU233      0.3649
     80  OE1       14.2870    9.6940   35.2730 O.co2 233  GLU233     -0.2457
     81  OE2       15.8130    9.7610   33.6280 O.co2 233  GLU233     -0.2457
     82  N         14.5030    4.6120   35.6690 N.3   235  ASP235     -0.1239
     83  CA        13.2720    4.6230   34.8900 C.3   235  ASP235      0.1674
     84  C         12.9500    3.1490   34.5650 C.2   235  ASP235      0.2266
     85  O         13.6600    2.5060   33.7840 O.2   235  ASP235     -0.2867
     86  CB        13.4050    5.5700   33.6520 C.3   235  ASP235      0.1410
     87  CG        13.0630    7.0770   33.9780 C.2   235  ASP235      0.3668
     88  OD1       12.0680    7.2750   34.7150 O.co2 235  ASP235     -0.2456
     89  OD2       13.7400    8.0700   33.5090 O.co2 235  ASP235     -0.2456
     90  N         11.0560    1.1910   32.6900 N.3   237  ARG237     -0.1245
     91  CA        10.3060    1.0440   31.4450 C.3   237  ARG237      0.1563
     92  C         11.3360    0.9270   30.3350 C.2   237  ARG237      0.2260
     93  O         12.5260    1.1820   30.5600 O.2   237  ARG237     -0.2867
     94  CB         9.3470    2.2270   31.2040 C.3   237  ARG237      0.0307
     95  CG         9.8610    3.6160   31.5830 C.3   237  ARG237      0.0489
     96  CD        10.9220    4.1440   30.6300 C.3   237  ARG237      0.2205
     97  NE        10.9890    5.6030   30.6570 N.pl3 237  ARG237     -0.0865
     98  CZ        12.0930    6.3260   30.4780 C.cat 237  ARG237      0.5346
     99  NH1       13.2700    5.7400   30.2810 N.pl3 237  ARG237      0.1354
    100  NH2       12.0170    7.6520   30.5200 N.pl3 237  ARG237      0.1354
    101  N         13.6320    1.9710   27.5570 N.3   239  PRO239     -0.2102
    102  CA        14.1680    3.2810   27.1730 C.3   239  PRO239      0.1504
    103  C         14.3600    3.4460   25.6680 C.2   239  PRO239      0.2576
    104  O         14.3720    2.4630   24.9270 O.2   239  PRO239     -0.2718
    105  CB        15.5310    3.3220   27.8720 C.3   239  PRO239      0.0282
    106  CG        15.9390    1.8930   28.0090 C.3   239  PRO239      0.0208
    107  CD        14.6990    1.0320   27.9640 C.3   239  PRO239      0.0893
    108  N         14.5080    4.6910   25.2310 N.am  240  SER240     -0.1938
    109  CA        14.8780    4.9800   23.8540 C.3   240  SER240      0.2055
    110  C         16.3710    5.3040   23.7710 C.2   240  SER240      0.2643
    111  O         17.0080    5.6090   24.7890 O.2   240  SER240     -0.2714
    112  CB        14.0520    6.1470   23.3180 C.3   240  SER240      0.2130
    113  OG        14.1960    7.2830   24.1460 O.3   240  SER240     -0.2179
    114  N         16.9100    5.2130   22.5510 N.am  241  GLN241     -0.1963
    115  CA        18.2930    5.5970   22.2130 C.3   241  GLN241      0.1733
    116  C         19.3470    4.5990   22.6860 C.2   241  GLN241      0.2617
    117  O         20.0260    3.9890   21.8690 O.2   241  GLN241     -0.2715
    118  CB        18.6380    7.0180   22.7040 C.3   241  GLN241      0.0408
    119  CG        17.7040    8.1190   22.2160 C.3   241  GLN241      0.0908
    120  CD        18.0300    9.4660   22.8370 C.2   241  GLN241      0.2608
    121  OE1       18.0780    9.6030   24.0570 O.2   241  GLN241     -0.2717
    122  NE2       18.2500   10.4720   21.9970 N.am  241  GLN241     -0.0878
    123  N         19.4820    4.4270   23.9990 N.am  242  THR242     -0.1951
    124  CA        20.5530    3.5800   24.5400 C.3   242  THR242      0.1897
    125  C         20.5000    2.1030   24.1120 C.2   242  THR242      0.2313
    126  O         21.5490    1.5260   23.8460 O.2   242  THR242     -0.2863
    127  CB        20.7080    3.6950   26.0790 C.3   242  THR242      0.1794
    128  OG1       19.4680    3.3720   26.7200 O.3   242  THR242     -0.2208
    129  CG2       21.1360    5.1010   26.4680 C.3   242  THR242      0.0378
    130  N         15.7020   14.2900   21.7430 N.3   292  GLU292     -0.1245
    131  CA        14.4600   13.5170   21.6670 C.3   292  GLU292      0.1567
    132  C         13.1790   14.3310   21.6360 C.2   292  GLU292      0.2260
    133  O         12.2240   13.9530   20.9540 O.2   292  GLU292     -0.2867
    134  CB        14.3730   12.5800   22.8650 C.3   292  GLU292      0.0388
    135  CG        15.3650   11.4480   22.8190 C.3   292  GLU292      0.1160
    136  CD        14.8660   10.2520   23.5790 C.2   292  GLU292      0.3649
    137  OE1       14.7850   10.3210   24.8260 O.co2 292  GLU292     -0.2457
    138  OE2       14.5420    9.2500   22.9130 O.co2 292  GLU292     -0.2457
@<TRIPOS>BOND
     1   133   132    2
     2   132   131    1
     3   131   130    1
     4   131   134    1
     5   117   116    2
     6   122   120   am
     7   115   114    1
     8   115   116    1
     9   115   118    1
    10   119   118    1
    11   119   120    1
    12     4     3    2
    13     3     2    1
    14    53    52    2
    15   114   110   am
    16     1     2    1
    17   116   123   am
    18   135   134    1
    19   135   136    1
    20   120   121    2
    21   138   136   ar
    22    52    51    1
    23   112   109    1
    24   112   113    1
    25     2     5    1
    26   136   137   ar
    27   110   109    1
    28   110   111    2
    29   126   125    2
    30   109   108    1
    31   123   124    1
    32   125   124    1
    33    55    54    1
    34   124   127    1
    35     5     6    1
    36    51    54    1
    37    51    50    1
    38   104   103    2
    39   108   103   am
    40   103   102    1
    41     6     7    1
    42   127   129    1
    43   127   128    1
    44    21    20    1
    45    20    17    1
    46     7     8    2
    47     7     9   am
    48    45    44    1
    49    45    46    2
    50   102   101    1
    51   102   105    1
    52    44    43    1
    53    44    47    1
    54    19    18    2
    55   101   107    1
    56   105   106    1
    57    48    47    1
    58   107   106    1
    59    17    18    1
    60    17    16    1
    61    47    49    1
    62    41    40   ar
    63    18    22   am
    64    40    42   ar
    65    40    39    1
    66    16    12   am
    67    26    27    1
    68    26    23    1
    69    39    38    1
    70    22    23    1
    71    15    14    1
    72    13    12    2
    73    12    11    1
    74    24    23    1
    75    24    25    2
    76    99    98    1
    77    38    35    1
    78    33    32    1
    79    92    93    2
    80    92    91    1
    81    32    29    1
    82    98   100    1
    83    98    97    2
    84    96    97    1
    85    96    95    1
    86    14    11    1
    87    31    30    2
    88    62    61   ar
    89    11    10    1
    90    94    91    1
    91    94    95    1
    92    72    70   ar
    93    91    90    1
    94    28    29    1
    95    29    30    1
    96    34    35    1
    97    35    36    1
    98    61    60    1
    99    61    63   ar
   100    60    57    1
   101    37    36    2
   102    70    71   ar
   103    70    69    1
   104    57    56    1
   105    57    58    1
   106    89    87   ar
   107    69    68    1
   108    81    79   ar
   109    86    87    1
   110    86    83    1
   111    85    84    2
   112    87    88   ar
   113    68    65    1
   114    84    83    1
   115    58    59    2
   116    79    80   ar
   117    79    78    1
   118    83    82    1
   119    65    64    1
   120    65    66    1
   121    78    77    1
   122    66    67    2
   123    77    74    1
   124    76    75    2
   125    75    74    1
   126    74    73    1
