@<TRIPOS>MOLECULE
tmp/4ffoA02.pdb
 148 141 0 0 0
SMALL
GASTEIGER

@<TRIPOS>ATOM
      1  N          2.1580   -1.2080   23.1700 N.3     7  VAL7       -0.1231
      2  CA         1.1590   -0.1840   23.4920 C.3     7  VAL7        0.1692
      3  C          1.8660    1.1640   23.6040 C.2     7  VAL7        0.2593
      4  O          2.4690    1.4820   24.6320 O.2     7  VAL7       -0.2718
      5  CB         0.3560   -0.5070   24.7750 C.3     7  VAL7        0.0266
      6  CG1       -0.6660    0.5880   25.0630 C.3     7  VAL7        0.0020
      7  CG2       -0.3250   -1.8700   24.6520 C.3     7  VAL7        0.0020
      8  N          1.7980    1.9380   22.5250 N.am    8  GLY8       -0.1942
      9  CA         2.4730    3.2300   22.4410 C.3     8  GLY8        0.2014
     10  C          3.4370    3.2750   21.2680 C.2     8  GLY8        0.2639
     11  O          4.3340    2.4310   21.1590 O.2     8  GLY8       -0.2714
     12  N          3.2570    4.2670   20.3980 N.am    9  GLY9       -0.1939
     13  CA         3.9880    4.3250   19.1330 C.3     9  GLY9        0.2014
     14  C          4.8270    5.5670   18.8920 C.2     9  GLY9        0.2638
     15  O          4.9120    6.0500   17.7590 O.2     9  GLY9       -0.2714
     16  N          5.4420    6.0850   19.9520 N.am   10  LYS10      -0.1977
     17  CA         6.4040    7.1750   19.8130 C.3    10  LYS10       0.1596
     18  C          7.8340    6.6530   19.9590 C.2    10  LYS10       0.2287
     19  O          8.1840    5.6520   19.3330 O.2    10  LYS10      -0.2864
     20  CB         6.0940    8.3310   20.7700 C.3    10  LYS10       0.0298
     21  CG         4.8370    9.0920   20.3800 C.3    10  LYS10       0.0038
     22  CD         4.5860   10.3030   21.2640 C.3    10  LYS10       0.0206
     23  CE         5.1750   11.5610   20.6580 C.3    10  LYS10       0.1093
     24  NZ         4.6330   12.7730   21.3270 N.3    10  LYS10      -0.1314
     25  N          9.7680    5.4180   22.6580 N.3    12  GLN12      -0.1245
     26  CA         9.8950    4.1220   23.3290 C.3    12  GLN12       0.1566
     27  C          9.4560    3.0230   22.3780 C.2    12  GLN12       0.2260
     28  O         10.1230    1.9980   22.2510 O.2    12  GLN12      -0.2867
     29  CB         9.0160    4.0460   24.5760 C.3    12  GLN12       0.0367
     30  CG         9.4840    4.8260   25.7880 C.3    12  GLN12       0.0905
     31  CD         8.5490    4.6040   26.9610 C.2    12  GLN12       0.2608
     32  OE1        7.5720    5.3370   27.1380 O.2    12  GLN12      -0.2717
     33  NE2        8.8140    3.5580   27.7410 N.am   12  GLN12      -0.0878
     34  N         -0.3190   -0.8330   19.0140 N.3    30  VAL30      -0.1231
     35  CA        -1.5680   -0.2160   19.4560 C.3    30  VAL30       0.1692
     36  C         -1.2610    1.2150   19.9050 C.2    30  VAL30       0.2592
     37  O         -0.3470    1.4390   20.7070 O.2    30  VAL30      -0.2718
     38  CB        -2.2320   -0.9910   20.6180 C.3    30  VAL30       0.0266
     39  CG1       -3.5090   -0.2850   21.0740 C.3    30  VAL30       0.0020
     40  CG2       -2.5440   -2.4250   20.2060 C.3    30  VAL30       0.0020
     41  N         -2.0150    2.1750   19.3740 N.am   31  ASP31      -0.1960
     42  CA        -1.8840    3.5810   19.7590 C.3    31  ASP31       0.1840
     43  C         -3.1840    4.3230   19.4680 C.2    31  ASP31       0.2622
     44  O         -3.8190    4.0970   18.4330 O.2    31  ASP31      -0.2715
     45  CB        -0.7300    4.2370   19.0020 C.3    31  ASP31       0.1450
     46  CG        -0.2500    5.5120   19.6580 C.2    31  ASP31       0.3671
     47  OD1       -1.0430    6.4720   19.7710 O.co2  31  ASP31      -0.2456
     48  OD2        0.9360    5.5570   20.0450 O.co2  31  ASP31      -0.2456
     49  N         -3.5660    5.2130   20.3800 N.am   32  LYS32      -0.1963
     50  CA        -4.8010    5.9860   20.2610 C.3    32  LYS32       0.1728
     51  C         -4.7120    7.0850   19.1910 C.2    32  LYS32       0.2616
     52  O         -5.7350    7.6160   18.7600 O.2    32  LYS32      -0.2715
     53  CB        -5.1850    6.5930   21.6180 C.3    32  LYS32       0.0311
     54  CG        -4.1260    7.5200   22.2020 C.3    32  LYS32       0.0038
     55  CD        -4.5160    8.0660   23.5640 C.3    32  LYS32       0.0206
     56  CE        -3.3840    8.9060   24.1380 C.3    32  LYS32       0.1093
     57  NZ        -3.6960    9.4110   25.5040 N.3    32  LYS32      -0.1314
     58  N         -3.4930    7.4180   18.7720 N.am   33  ASN33      -0.1972
     59  CA        -3.2640    8.4750   17.7840 C.3    33  ASN33       0.1688
     60  C         -3.2690    7.8990   16.3660 C.2    33  ASN33       0.2292
     61  O         -2.4090    7.0820   16.0360 O.2    33  ASN33      -0.2864
     62  CB        -1.9310    9.1940   18.0780 C.3    33  ASN33       0.1181
     63  CG        -1.6630   10.3840   17.1530 C.2    33  ASN33       0.2629
     64  OD1       -2.4200   10.6660   16.2220 O.2    33  ASN33      -0.2716
     65  ND2       -0.5670   11.0880   17.4150 N.am   33  ASN33      -0.0877
     66  N          0.0400    8.1670   14.8670 N.3    36  ALA36      -0.1245
     67  CA         1.1120    7.7130   15.7550 C.3    36  ALA36       0.1562
     68  C          2.4300    7.6460   14.9920 C.2    36  ALA36       0.2260
     69  O          2.4820    7.1640   13.8590 O.2    36  ALA36      -0.2867
     70  CB         0.7790    6.3680   16.3820 C.3    36  ALA36       0.0290
     71  N         -6.6460    2.4460   18.6310 N.3    48  PHE48      -0.1227
     72  CA        -7.6550    2.5820   19.6770 C.3    48  PHE48       0.1736
     73  C         -7.0060    2.9750   21.0000 C.2    48  PHE48       0.2595
     74  O         -5.7980    2.8310   21.1760 O.2    48  PHE48      -0.2718
     75  CB        -8.5310    1.3140   19.8200 C.3    48  PHE48       0.0547
     76  CG        -7.7910    0.0890   20.2960 C.ar   48  PHE48      -0.0202
     77  CD1       -7.1500   -0.7590   19.3880 C.ar   48  PHE48      -0.0042
     78  CD2       -7.7620   -0.2400   21.6530 C.ar   48  PHE48      -0.0042
     79  CE1       -6.4840   -1.8960   19.8290 C.ar   48  PHE48      -0.0003
     80  CE2       -7.0890   -1.3700   22.0980 C.ar   48  PHE48      -0.0003
     81  CZ        -6.4530   -2.2030   21.1850 C.ar   48  PHE48      -0.0000
     82  N         -7.8210    3.5000   21.9070 N.am   49  ASP49      -0.1960
     83  CA        -7.3860    3.8200   23.2560 C.3    49  ASP49       0.1840
     84  C         -7.6810    2.5960   24.1200 C.2    49  ASP49       0.2622
     85  O         -8.8300    2.1670   24.2110 O.2    49  ASP49      -0.2715
     86  CB        -8.1390    5.0490   23.7710 C.3    49  ASP49       0.1450
     87  CG        -7.5910    5.5670   25.0860 C.2    49  ASP49       0.3671
     88  OD1       -7.3100    4.7470   25.9840 O.co2  49  ASP49      -0.2456
     89  OD2       -7.4470    6.8020   25.2230 O.co2  49  ASP49      -0.2456
     90  N         -6.6430    2.0380   24.7450 N.am   50  VAL50      -0.1963
     91  CA        -6.7840    0.7920   25.5060 C.3    50  VAL50       0.1727
     92  C         -7.6470    0.9520   26.7570 C.2    50  VAL50       0.2616
     93  O         -8.2190   -0.0230   27.2370 O.2    50  VAL50      -0.2715
     94  CB        -5.4240    0.1480   25.8810 C.3    50  VAL50       0.0290
     95  CG1       -4.6080   -0.1480   24.6290 C.3    50  VAL50       0.0023
     96  CG2       -4.6430    1.0280   26.8520 C.3    50  VAL50       0.0023
     97  N         -7.7360    2.1800   27.2730 N.am   51  ILE51      -0.1977
     98  CA        -8.5960    2.4710   28.4250 C.3    51  ILE51       0.1596
     99  C        -10.0710    2.4630   28.0060 C.2    51  ILE51       0.2287
    100  O        -10.9250    1.9940   28.7520 O.2    51  ILE51      -0.2864
    101  CB        -8.2400    3.8150   29.1130 C.3    51  ILE51       0.0276
    102  CG1       -6.7440    3.8810   29.4610 C.3    51  ILE51       0.0022
    103  CG2       -9.0630    4.0110   30.3850 C.3    51  ILE51       0.0022
    104  CD1       -6.2600    5.2850   29.7740 C.3    51  ILE51       0.0001
    105  N          4.7980    0.7190   26.1500 N.3    70  VAL70      -0.1231
    106  CA         5.8650    1.6540   25.8060 C.3    70  VAL70       0.1692
    107  C          5.2890    3.0600   25.6930 C.2    70  VAL70       0.2592
    108  O          5.3360    3.6970   24.6360 O.2    70  VAL70      -0.2718
    109  CB         6.6320    1.2490   24.5250 C.3    70  VAL70       0.0266
    110  CG1        7.8010    0.3340   24.8680 C.3    70  VAL70       0.0020
    111  CG2        5.7060    0.6040   23.5010 C.3    70  VAL70       0.0020
    112  N          4.7190    3.5150   26.8050 N.am   71  ASN71      -0.1960
    113  CA         4.2640    4.8880   26.9630 C.3    71  ASN71       0.1819
    114  C          4.3920    5.2700   28.4290 C.2    71  ASN71       0.2621
    115  O          4.5140    4.3970   29.2940 O.2    71  ASN71      -0.2715
    116  CB         2.8200    5.0540   26.4650 C.3    71  ASN71       0.1195
    117  CG         1.8000    4.3820   27.3680 C.2    71  ASN71       0.2630
    118  OD1        1.4300    4.9200   28.4090 O.2    71  ASN71      -0.2716
    119  ND2        1.3230    3.2070   26.9590 N.am   71  ASN71      -0.0877
    120  N          4.3700    6.5690   28.7070 N.am   72  GLU72      -0.1963
    121  CA         4.4620    7.0510   30.0810 C.3    72  GLU72       0.1733
    122  C          3.2010    7.8100   30.4780 C.2    72  GLU72       0.2616
    123  O          3.2380    8.7200   31.3110 O.2    72  GLU72      -0.2715
    124  CB         5.7310    7.8860   30.2800 C.3    72  GLU72       0.0429
    125  CG         7.0040    7.0570   30.1460 C.3    72  GLU72       0.1163
    126  CD         8.2640    7.8980   30.0730 C.2    72  GLU72       0.3649
    127  OE1        8.3810    8.7370   29.1520 O.co2  72  GLU72      -0.2457
    128  OE2        9.1470    7.7020   30.9300 O.co2  72  GLU72      -0.2457
    129  N          2.0850    7.4160   29.8670 N.am   73  ASN73      -0.1972
    130  CA         0.7630    7.8900   30.2640 C.3    73  ASN73       0.1688
    131  C          0.3370    7.1270   31.5200 C.2    73  ASN73       0.2292
    132  O         -0.0240    5.9500   31.4490 O.2    73  ASN73      -0.2864
    133  CB        -0.2410    7.6920   29.1130 C.3    73  ASN73       0.1181
    134  CG        -1.6740    8.0480   29.4960 C.2    73  ASN73       0.2629
    135  OD1       -1.9330    8.5860   30.5710 O.2    73  ASN73      -0.2716
    136  ND2       -2.6150    7.7410   28.6060 N.am   73  ASN73      -0.0877
    137  N         -2.9230    5.2300   31.4880 N.3    76  CYS76      -0.1235
    138  CA        -2.7810    3.9780   30.7440 C.3    76  CYS76       0.1677
    139  C         -2.0810    2.9120   31.5820 C.2    76  CYS76       0.2270
    140  O         -2.5680    1.7860   31.6940 O.2    76  CYS76      -0.2867
    141  CB        -2.0220    4.2040   29.4280 C.3    76  CYS76       0.0956
    142  SG        -1.8250    2.7150   28.4200 S.3    76  CYS76      -0.0801
    143  N         10.0810   13.7060   18.8300 N.3   296  SER296     -0.1217
    144  CA         8.7330   13.3130   19.2380 C.3   296  SER296      0.1889
    145  C          7.6400   14.2710   18.7450 C.2   296  SER296      0.2288
    146  O          6.4570   14.0280   18.9720 O.2   296  SER296     -0.2866
    147  CB         8.6560   13.1430   20.7590 C.3   296  SER296      0.2089
    148  OG         8.6310   14.4000   21.4050 O.3   296  SER296     -0.2183
@<TRIPOS>BOND
     1    69    68    2
     2    66    67    1
     3    68    67    1
     4    67    70    1
     5    61    60    2
     6    64    63    2
     7    60    59    1
     8    63    65   am
     9    63    62    1
    10    15    14    2
    11    59    62    1
    12    59    58    1
    13    44    43    2
    14    71    72    1
    15   145   146    2
    16   145   144    1
    17    52    51    2
    18    58    51   am
    19   143   144    1
    20    14    13    1
    21    14    16   am
    22    45    46    1
    23    45    42    1
    24    34    35    1
    25    13    12    1
    26    51    50    1
    27   144   147    1
    28    19    18    2
    29    41    42    1
    30    41    36   am
    31    77    79   ar
    32    77    76   ar
    33    35    36    1
    34    35    38    1
    35    43    42    1
    36    43    49   am
    37    46    47   ar
    38    46    48   ar
    39    72    75    1
    40    72    73    1
    41    17    16    1
    42    17    18    1
    43    17    20    1
    44    75    76    1
    45    79    81   ar
    46    36    37    2
    47    40    38    1
    48    50    49    1
    49    50    53    1
    50    76    78   ar
    51    21    20    1
    52    21    22    1
    53    12    10   am
    54    38    39    1
    55    23    22    1
    56    23    24    1
    57   147   148    1
    58    73    74    2
    59    73    82   am
    60    11    10    2
    61    81    80   ar
    62    10     9    1
    63    53    54    1
    64    78    80   ar
    65    82    83    1
    66    54    55    1
    67    28    27    2
    68    27    26    1
    69     9     8    1
    70     8     3   am
    71    25    26    1
    72     1     2    1
    73    83    86    1
    74    83    84    1
    75    26    29    1
    76     2     3    1
    77     2     5    1
    78   111   109    1
    79    55    56    1
    80     3     4    2
    81    86    87    1
    82    84    85    2
    83    84    90   am
    84    56    57    1
    85   109   110    1
    86   109   106    1
    87    29    30    1
    88    95    94    1
    89   108   107    2
    90     7     5    1
    91    90    91    1
    92     5     6    1
    93    87    89   ar
    94    87    88   ar
    95    91    94    1
    96    91    92    1
    97   107   106    1
    98   107   112   am
    99    30    31    1
   100   106   105    1
   101    94    96    1
   102   116   113    1
   103   116   117    1
   104    92    93    2
   105    92    97   am
   106   112   113    1
   107   119   117   am
   108    31    32    2
   109    31    33   am
   110   113   114    1
   111    97    98    1
   112   117   118    2
   113    99    98    1
   114    99   100    2
   115   142   141    1
   116    98   101    1
   117   114   120   am
   118   114   115    2
   119   136   134   am
   120   120   121    1
   121   101   102    1
   122   101   103    1
   123   133   134    1
   124   133   130    1
   125   127   126   ar
   126   141   138    1
   127   102   104    1
   128   134   135    2
   129   129   130    1
   130   129   122   am
   131   126   125    1
   132   126   128   ar
   133   121   124    1
   134   121   122    1
   135   125   124    1
   136   130   131    1
   137   122   123    2
   138   138   137    1
   139   138   139    1
   140   132   131    2
   141   139   140    2
