@<TRIPOS>MOLECULE
tmp/4ffpA02.pdb
 148 141 0 0 0
SMALL
GASTEIGER

@<TRIPOS>ATOM
      1  N          2.2680   -1.2470   23.2190 N.3     7  VAL7       -0.1231
      2  CA         1.2780   -0.1990   23.5270 C.3     7  VAL7        0.1692
      3  C          2.0000    1.1580   23.6450 C.2     7  VAL7        0.2593
      4  O          2.6340    1.4650   24.6690 O.2     7  VAL7       -0.2718
      5  CB         0.4660   -0.5260   24.8020 C.3     7  VAL7        0.0266
      6  CG1       -0.5190    0.6020   25.1040 C.3     7  VAL7        0.0020
      7  CG2       -0.2260   -1.8990   24.6870 C.3     7  VAL7        0.0020
      8  N          1.9320    1.9400   22.5720 N.am    8  GLY8       -0.1942
      9  CA         2.6840    3.1800   22.4790 C.3     8  GLY8        0.2014
     10  C          3.5920    3.2310   21.2690 C.2     8  GLY8        0.2639
     11  O          4.4840    2.3890   21.0920 O.2     8  GLY8       -0.2714
     12  N          3.3520    4.2170   20.4150 N.am    9  GLY9       -0.1939
     13  CA         4.0660    4.2810   19.1530 C.3     9  GLY9        0.2014
     14  C          4.8550    5.5610   18.9490 C.2     9  GLY9        0.2638
     15  O          4.8720    6.1180   17.8510 O.2     9  GLY9       -0.2714
     16  N          5.5090    6.0270   20.0060 N.am   10  LYS10      -0.1977
     17  CA         6.4410    7.1400   19.8790 C.3    10  LYS10       0.1596
     18  C          7.8800    6.7010   20.0590 C.2    10  LYS10       0.2287
     19  O          8.3000    5.7940   19.3740 O.2    10  LYS10      -0.2864
     20  CB         6.0780    8.2600   20.8130 C.3    10  LYS10       0.0298
     21  CG         4.9580    9.0860   20.2420 C.3    10  LYS10       0.0038
     22  CD         4.7010   10.3130   21.0790 C.3    10  LYS10       0.0206
     23  CE         5.3860   11.5560   20.5720 C.3    10  LYS10       0.1093
     24  NZ         4.7600   12.6810   21.3160 N.3    10  LYS10      -0.1314
     25  N          9.8180    5.4110   22.6700 N.3    12  GLN12      -0.1245
     26  CA        10.0120    4.1020   23.2990 C.3    12  GLN12       0.1566
     27  C          9.5530    3.0400   22.3220 C.2    12  GLN12       0.2260
     28  O         10.1900    2.0170   22.1850 O.2    12  GLN12      -0.2867
     29  CB         9.1930    3.9360   24.5860 C.3    12  GLN12       0.0367
     30  CG         9.6660    4.7200   25.8000 C.3    12  GLN12       0.0905
     31  CD         8.6960    4.5060   26.9320 C.2    12  GLN12       0.2608
     32  OE1        7.7410    5.2790   27.1080 O.2    12  GLN12      -0.2717
     33  NE2        8.8340    3.3680   27.6050 N.am   12  GLN12      -0.0878
     34  N         -0.2590   -0.9330   19.0610 N.3    30  VAL30      -0.1231
     35  CA        -1.4700   -0.2520   19.4800 C.3    30  VAL30       0.1692
     36  C         -1.1730    1.1840   19.9250 C.2    30  VAL30       0.2592
     37  O         -0.3070    1.4030   20.7670 O.2    30  VAL30      -0.2718
     38  CB        -2.1270   -1.0020   20.6560 C.3    30  VAL30       0.0266
     39  CG1       -3.3740   -0.2700   21.1620 C.3    30  VAL30       0.0020
     40  CG2       -2.4620   -2.4400   20.2510 C.3    30  VAL30       0.0020
     41  N         -1.9280    2.1530   19.4080 N.am   31  ASP31      -0.1960
     42  CA        -1.7800    3.5440   19.8290 C.3    31  ASP31       0.1840
     43  C         -3.1170    4.2640   19.6020 C.2    31  ASP31       0.2622
     44  O         -3.8140    4.0190   18.6020 O.2    31  ASP31      -0.2715
     45  CB        -0.6380    4.2130   19.0560 C.3    31  ASP31       0.1450
     46  CG        -0.1360    5.4840   19.7220 C.2    31  ASP31       0.3671
     47  OD1       -0.9290    6.4390   19.8890 O.co2  31  ASP31      -0.2456
     48  OD2        1.0570    5.5350   20.0590 O.co2  31  ASP31      -0.2456
     49  N         -3.4920    5.1390   20.5290 N.am   32  LYS32      -0.1963
     50  CA        -4.7620    5.8610   20.4070 C.3    32  LYS32       0.1728
     51  C         -4.6440    6.9980   19.3860 C.2    32  LYS32       0.2616
     52  O         -5.6420    7.5900   18.9840 O.2    32  LYS32      -0.2715
     53  CB        -5.1910    6.4160   21.7580 C.3    32  LYS32       0.0311
     54  CG        -4.1810    7.4100   22.3120 C.3    32  LYS32       0.0038
     55  CD        -4.5240    7.9750   23.6780 C.3    32  LYS32       0.0206
     56  CE        -3.3630    8.8550   24.1470 C.3    32  LYS32       0.1093
     57  NZ        -3.5440    9.3050   25.5550 N.3    32  LYS32      -0.1314
     58  N         -3.4260    7.2970   18.9540 N.am   33  ASN33      -0.1972
     59  CA        -3.2060    8.4320   18.0270 C.3    33  ASN33       0.1688
     60  C         -3.1720    7.9280   16.5780 C.2    33  ASN33       0.2292
     61  O         -2.2640    7.1830   16.2190 O.2    33  ASN33      -0.2864
     62  CB        -1.8950    9.1810   18.3840 C.3    33  ASN33       0.1181
     63  CG        -1.5890   10.3970   17.4700 C.2    33  ASN33       0.2629
     64  OD1       -2.2600   10.6490   16.4680 O.2    33  ASN33      -0.2716
     65  ND2       -0.5340   11.1330   17.8150 N.am   33  ASN33      -0.0877
     66  N          0.1610    8.1700   14.9900 N.3    36  ALA36      -0.1245
     67  CA         1.1980    7.7260   15.9420 C.3    36  ALA36       0.1562
     68  C          2.4780    7.7030   15.1520 C.2    36  ALA36       0.2260
     69  O          2.4890    7.3010   13.9960 O.2    36  ALA36      -0.2867
     70  CB         0.8890    6.3470   16.5320 C.3    36  ALA36       0.0290
     71  N         -6.5500    2.4140   18.7490 N.3    48  PHE48      -0.1227
     72  CA        -7.5600    2.4930   19.7890 C.3    48  PHE48       0.1736
     73  C         -6.8790    2.8750   21.0800 C.2    48  PHE48       0.2595
     74  O         -5.6790    2.6880   21.2320 O.2    48  PHE48      -0.2718
     75  CB        -8.4080    1.1960   19.9470 C.3    48  PHE48       0.0547
     76  CG        -7.6380   -0.0350   20.4150 C.ar   48  PHE48      -0.0202
     77  CD1       -6.9630   -0.8500   19.4960 C.ar   48  PHE48      -0.0042
     78  CD2       -7.6420   -0.4250   21.7790 C.ar   48  PHE48      -0.0042
     79  CE1       -6.2920   -1.9960   19.9240 C.ar   48  PHE48      -0.0003
     80  CE2       -6.9470   -1.5590   22.2150 C.ar   48  PHE48      -0.0003
     81  CZ        -6.2780   -2.3530   21.2850 C.ar   48  PHE48      -0.0000
     82  N         -7.6760    3.3920   22.0030 N.am   49  ASP49      -0.1960
     83  CA        -7.2180    3.7450   23.3310 C.3    49  ASP49       0.1840
     84  C         -7.5070    2.5400   24.2360 C.2    49  ASP49       0.2622
     85  O         -8.6510    2.1280   24.3280 O.2    49  ASP49      -0.2715
     86  CB        -7.9770    4.9670   23.8170 C.3    49  ASP49       0.1450
     87  CG        -7.4630    5.4600   25.1280 C.2    49  ASP49       0.3671
     88  OD1       -7.1830    4.6150   26.0050 O.co2  49  ASP49      -0.2456
     89  OD2       -7.2270    6.6710   25.2540 O.co2  49  ASP49      -0.2456
     90  N         -6.4720    1.9480   24.8380 N.am   50  VAL50      -0.1963
     91  CA        -6.6270    0.6780   25.5250 C.3    50  VAL50       0.1727
     92  C         -7.4720    0.8550   26.7750 C.2    50  VAL50       0.2616
     93  O         -8.0740   -0.0930   27.2230 O.2    50  VAL50      -0.2715
     94  CB        -5.2840    0.0110   25.9080 C.3    50  VAL50       0.0290
     95  CG1       -4.3840   -0.2250   24.6770 C.3    50  VAL50       0.0023
     96  CG2       -4.5960    0.7950   27.0220 C.3    50  VAL50       0.0023
     97  N         -7.4960    2.0600   27.3340 N.am   51  ILE51      -0.1977
     98  CA        -8.3570    2.3590   28.5050 C.3    51  ILE51       0.1596
     99  C         -9.8280    2.4140   28.0730 C.2    51  ILE51       0.2287
    100  O        -10.7230    2.0060   28.8030 O.2    51  ILE51      -0.2864
    101  CB        -7.9760    3.7030   29.2000 C.3    51  ILE51       0.0276
    102  CG1       -6.4900    3.7430   29.6040 C.3    51  ILE51       0.0022
    103  CG2       -8.8490    3.9930   30.4320 C.3    51  ILE51       0.0022
    104  CD1       -6.0090    5.1560   29.8800 C.3    51  ILE51       0.0001
    105  N          4.9120    0.7470   26.1190 N.3    70  VAL70      -0.1231
    106  CA         6.0140    1.6420   25.8170 C.3    70  VAL70       0.1692
    107  C          5.4380    3.0560   25.7380 C.2    70  VAL70       0.2592
    108  O          5.4130    3.6570   24.6820 O.2    70  VAL70      -0.2718
    109  CB         6.7510    1.2400   24.5160 C.3    70  VAL70       0.0266
    110  CG1        7.9090    0.2870   24.7960 C.3    70  VAL70       0.0020
    111  CG2        5.8070    0.5840   23.5250 C.3    70  VAL70       0.0020
    112  N          4.9290    3.5340   26.8680 N.am   71  ASN71      -0.1960
    113  CA         4.4430    4.8870   27.0320 C.3    71  ASN71       0.1819
    114  C          4.5620    5.2040   28.5080 C.2    71  ASN71       0.2621
    115  O          4.7590    4.3070   29.3160 O.2    71  ASN71      -0.2715
    116  CB         2.9960    5.0280   26.5360 C.3    71  ASN71       0.1195
    117  CG         1.9780    4.3610   27.4480 C.2    71  ASN71       0.2630
    118  OD1        1.5830    4.9290   28.4570 O.2    71  ASN71      -0.2716
    119  ND2        1.4890    3.1770   27.0550 N.am   71  ASN71      -0.0877
    120  N          4.4370    6.4750   28.8470 N.am   72  GLU72      -0.1963
    121  CA         4.5700    6.9360   30.2050 C.3    72  GLU72       0.1733
    122  C          3.3060    7.6840   30.5370 C.2    72  GLU72       0.2616
    123  O          3.3190    8.6270   31.3110 O.2    72  GLU72      -0.2715
    124  CB         5.7890    7.8380   30.3150 C.3    72  GLU72       0.0429
    125  CG         7.0580    7.0320   30.1320 C.3    72  GLU72       0.1163
    126  CD         8.2910    7.9150   30.0460 C.2    72  GLU72       0.3649
    127  OE1        8.3830    8.7230   29.0950 O.co2  72  GLU72      -0.2457
    128  OE2        9.1650    7.7990   30.9280 O.co2  72  GLU72      -0.2457
    129  N          2.2000    7.2580   29.9450 N.am   73  ASN73      -0.1972
    130  CA         0.9220    7.8110   30.3240 C.3    73  ASN73       0.1688
    131  C          0.4960    7.1010   31.6230 C.2    73  ASN73       0.2292
    132  O          0.0840    5.9580   31.6010 O.2    73  ASN73      -0.2864
    133  CB        -0.0750    7.6250   29.1470 C.3    73  ASN73       0.1181
    134  CG        -1.5010    7.9670   29.5190 C.2    73  ASN73       0.2629
    135  OD1       -1.7280    8.4880   30.5890 O.2    73  ASN73      -0.2716
    136  ND2       -2.4640    7.6180   28.6740 N.am   73  ASN73      -0.0877
    137  N         -2.6900    5.2050   31.5580 N.3    76  CYS76      -0.1235
    138  CA        -2.5580    3.9480   30.7850 C.3    76  CYS76       0.1677
    139  C         -1.8900    2.8650   31.6570 C.2    76  CYS76       0.2270
    140  O         -2.3880    1.7350   31.8140 O.2    76  CYS76      -0.2867
    141  CB        -1.7580    4.1530   29.4640 C.3    76  CYS76       0.0956
    142  SG        -1.6950    2.6210   28.4770 S.3    76  CYS76      -0.0801
    143  N         10.2080   13.8900   18.8100 N.3   296  SER296     -0.1217
    144  CA         8.9070   13.4500   19.2030 C.3   296  SER296      0.1889
    145  C          7.7880   14.3930   18.7170 C.2   296  SER296      0.2288
    146  O          6.6090   14.1470   18.9890 O.2   296  SER296     -0.2866
    147  CB         8.8580   13.3310   20.7140 C.3   296  SER296      0.2089
    148  OG         8.5350   14.6100   21.2000 O.3   296  SER296     -0.2183
@<TRIPOS>BOND
     1    69    68    2
     2    66    67    1
     3    68    67    1
     4    67    70    1
     5    61    60    2
     6    64    63    2
     7    60    59    1
     8    63    65   am
     9    63    62    1
    10    15    14    2
    11    59    62    1
    12    59    58    1
    13    44    43    2
    14   145   146    2
    15   145   144    1
    16    71    72    1
    17   143   144    1
    18    14    13    1
    19    14    16   am
    20    58    51   am
    21    52    51    2
    22    45    46    1
    23    45    42    1
    24    34    35    1
    25    13    12    1
    26   144   147    1
    27    19    18    2
    28    51    50    1
    29    41    42    1
    30    41    36   am
    31    35    36    1
    32    35    38    1
    33    77    79   ar
    34    77    76   ar
    35    43    42    1
    36    43    49   am
    37    46    47   ar
    38    46    48   ar
    39    72    75    1
    40    72    73    1
    41    17    16    1
    42    17    18    1
    43    17    20    1
    44    79    81   ar
    45    36    37    2
    46    75    76    1
    47    21    20    1
    48    21    22    1
    49    40    38    1
    50    50    49    1
    51    50    53    1
    52    76    78   ar
    53    12    10   am
    54    23    22    1
    55    23    24    1
    56    38    39    1
    57   147   148    1
    58    73    74    2
    59    73    82   am
    60    11    10    2
    61    10     9    1
    62    81    80   ar
    63    53    54    1
    64    78    80   ar
    65    82    83    1
    66    28    27    2
    67    54    55    1
    68    27    26    1
    69     9     8    1
    70     8     3   am
    71    25    26    1
    72     1     2    1
    73    26    29    1
    74    83    86    1
    75    83    84    1
    76   111   109    1
    77     2     3    1
    78     2     5    1
    79     3     4    2
    80    55    56    1
    81    86    87    1
    82    56    57    1
    83    84    85    2
    84    84    90   am
    85   109   110    1
    86   109   106    1
    87    29    30    1
    88    95    94    1
    89   108   107    2
    90     7     5    1
    91     5     6    1
    92    90    91    1
    93    87    89   ar
    94    87    88   ar
    95    91    94    1
    96    91    92    1
    97   107   106    1
    98   107   112   am
    99    30    31    1
   100   106   105    1
   101    94    96    1
   102   116   113    1
   103   116   117    1
   104    92    93    2
   105    92    97   am
   106   112   113    1
   107    31    32    2
   108    31    33   am
   109   113   114    1
   110   119   117   am
   111    97    98    1
   112   117   118    2
   113    99    98    1
   114    99   100    2
   115   142   141    1
   116    98   101    1
   117   114   120   am
   118   114   115    2
   119   136   134   am
   120   120   121    1
   121   127   126   ar
   122   133   134    1
   123   133   130    1
   124   101   102    1
   125   101   103    1
   126   141   138    1
   127   134   135    2
   128   102   104    1
   129   129   130    1
   130   129   122   am
   131   126   125    1
   132   126   128   ar
   133   125   124    1
   134   121   124    1
   135   121   122    1
   136   130   131    1
   137   122   123    2
   138   138   137    1
   139   138   139    1
   140   132   131    2
   141   139   140    2
