@<TRIPOS>MOLECULE
tmp/4ffpA00.pdb
 171 158 0 0 0
SMALL
GASTEIGER

@<TRIPOS>ATOM
      1  N          5.5090    6.0270   20.0060 N.3    10  LYS10      -0.1231
      2  CA         6.4410    7.1400   19.8790 C.3    10  LYS10       0.1693
      3  C          7.8800    6.7010   20.0590 C.2    10  LYS10       0.2592
      4  O          8.3000    5.7940   19.3740 O.2    10  LYS10      -0.2718
      5  CB         6.0780    8.2600   20.8130 C.3    10  LYS10       0.0285
      6  CG         4.9580    9.0860   20.2420 C.3    10  LYS10       0.0035
      7  CD         4.7010   10.3130   21.0790 C.3    10  LYS10       0.0206
      8  CE         5.3860   11.5560   20.5720 C.3    10  LYS10       0.1093
      9  NZ         4.7600   12.6810   21.3160 N.3    10  LYS10      -0.1314
     10  N          8.6520    7.3540   20.9250 N.am   11  LEU11      -0.1966
     11  CA        10.0990    7.0850   20.9270 C.3    11  LEU11       0.1728
     12  C         10.4550    5.7170   21.5400 C.2    11  LEU11       0.2616
     13  O         11.3300    4.9830   21.0270 O.2    11  LEU11      -0.2715
     14  CB        10.8860    8.2200   21.6020 C.3    11  LEU11       0.0311
     15  CG        10.7420    9.6090   20.9560 C.3    11  LEU11       0.0022
     16  CD1       11.4980   10.6680   21.7440 C.3    11  LEU11       0.0001
     17  CD2       11.1310    9.6080   19.4790 C.3    11  LEU11       0.0001
     18  N          9.8180    5.4110   22.6700 N.am   12  GLN12      -0.1977
     19  CA        10.0120    4.1020   23.2990 C.3    12  GLN12       0.1601
     20  C          9.5530    3.0400   22.3220 C.2    12  GLN12       0.2287
     21  O         10.1900    2.0170   22.1850 O.2    12  GLN12      -0.2864
     22  CB         9.1930    3.9360   24.5860 C.3    12  GLN12       0.0394
     23  CG         9.6660    4.7200   25.8000 C.3    12  GLN12       0.0908
     24  CD         8.6960    4.5060   26.9320 C.2    12  GLN12       0.2608
     25  OE1        7.7410    5.2790   27.1080 O.2    12  GLN12      -0.2717
     26  NE2        8.8340    3.3680   27.6050 N.am   12  GLN12      -0.0878
     27  N          4.9120    0.7470   26.1190 N.3    70  VAL70      -0.1231
     28  CA         6.0140    1.6420   25.8170 C.3    70  VAL70       0.1692
     29  C          5.4380    3.0560   25.7380 C.2    70  VAL70       0.2592
     30  O          5.4130    3.6570   24.6820 O.2    70  VAL70      -0.2718
     31  CB         6.7510    1.2400   24.5160 C.3    70  VAL70       0.0266
     32  CG1        7.9090    0.2870   24.7960 C.3    70  VAL70       0.0020
     33  CG2        5.8070    0.5840   23.5250 C.3    70  VAL70       0.0020
     34  N          4.9290    3.5340   26.8680 N.am   71  ASN71      -0.1960
     35  CA         4.4430    4.8870   27.0320 C.3    71  ASN71       0.1819
     36  C          4.5620    5.2040   28.5080 C.2    71  ASN71       0.2621
     37  O          4.7590    4.3070   29.3160 O.2    71  ASN71      -0.2715
     38  CB         2.9960    5.0280   26.5360 C.3    71  ASN71       0.1195
     39  CG         1.9780    4.3610   27.4480 C.2    71  ASN71       0.2630
     40  OD1        1.5830    4.9290   28.4570 O.2    71  ASN71      -0.2716
     41  ND2        1.4890    3.1770   27.0550 N.am   71  ASN71      -0.0877
     42  N          4.4370    6.4750   28.8470 N.am   72  GLU72      -0.1977
     43  CA         4.5700    6.9360   30.2050 C.3    72  GLU72       0.1602
     44  C          3.3060    7.6840   30.5370 C.2    72  GLU72       0.2287
     45  O          3.3190    8.6270   31.3110 O.2    72  GLU72      -0.2864
     46  CB         5.7890    7.8380   30.3150 C.3    72  GLU72       0.0415
     47  CG         7.0580    7.0320   30.1320 C.3    72  GLU72       0.1163
     48  CD         8.2910    7.9150   30.0460 C.2    72  GLU72       0.3649
     49  OE1        8.3830    8.7230   29.0950 O.co2  72  GLU72      -0.2457
     50  OE2        9.1650    7.7990   30.9280 O.co2  72  GLU72      -0.2457
     51  N         10.0420   13.0520   31.6720 N.3   136  SER136     -0.1202
     52  CA        11.1850   12.3500   31.1100 C.3   136  SER136      0.2020
     53  C         11.6900   13.2580   29.9940 C.2   136  SER136      0.2619
     54  O         11.1830   14.3940   29.8280 O.2   136  SER136     -0.2717
     55  CB        10.8020   10.9490   30.5910 C.3   136  SER136      0.2103
     56  OG         9.7070   11.0180   29.6920 O.3   136  SER136     -0.2182
     57  N         12.6750   12.7590   29.2410 N.am  137  SER137     -0.1951
     58  CA        13.3410   13.5130   28.1290 C.3   137  SER137      0.1924
     59  C         13.9340   14.8840   28.4900 C.2   137  SER137      0.2314
     60  O         14.1490   15.7220   27.5820 O.2   137  SER137     -0.2863
     61  CB        12.4210   13.7220   26.9030 C.3   137  SER137      0.2116
     62  OG        11.8830   12.5130   26.4270 O.3   137  SER137     -0.2180
     63  N         24.7240    6.0040   31.4030 N.3   163  SER163     -0.1217
     64  CA        23.5140    5.1880   31.5080 C.3   163  SER163      0.1889
     65  C         23.8430    3.7050   31.5170 C.2   163  SER163      0.2288
     66  O         24.7320    3.2650   30.7960 O.2   163  SER163     -0.2866
     67  CB        22.5940    5.4540   30.3120 C.3   163  SER163      0.2089
     68  OG        21.4400    4.6390   30.4060 O.3   163  SER163     -0.2183
     69  N         21.5350   -0.1400   31.5250 N.3   165  GLU165     -0.1245
     70  CA        20.2610   -0.8440   31.6540 C.3   165  GLU165      0.1567
     71  C         20.4520   -2.0940   32.4740 C.2   165  GLU165      0.2260
     72  O         21.5340   -2.7030   32.4540 O.2   165  GLU165     -0.2867
     73  CB        19.7140   -1.2690   30.2950 C.3   165  GLU165      0.0388
     74  CG        18.9090   -0.2050   29.5510 C.3   165  GLU165      0.1160
     75  CD        19.7860    0.8930   28.9740 C.2   165  GLU165      0.3649
     76  OE1       20.8220    0.5510   28.3520 O.co2 165  GLU165     -0.2457
     77  OE2       19.4530    2.0890   29.1600 O.co2 165  GLU165     -0.2457
     78  N         25.7880    9.5640   27.5870 N.3   181  VAL181     -0.1245
     79  CA        24.6440   10.3160   27.1160 C.3   181  VAL181      0.1561
     80  C         25.1760   11.6670   26.7820 C.2   181  VAL181      0.2260
     81  O         25.5890   12.4040   27.6680 O.2   181  VAL181     -0.2867
     82  CB        23.5660   10.4540   28.2060 C.3   181  VAL181      0.0252
     83  CG1       22.4210   11.3910   27.7830 C.3   181  VAL181      0.0019
     84  CG2       23.0120    9.0840   28.5630 C.3   181  VAL181      0.0019
     85  N         19.0910   14.6330   25.1140 N.3   189  CYS189     -0.1235
     86  CA        20.1340   13.7540   24.5670 C.3   189  CYS189      0.1677
     87  C         20.0910   13.7150   23.0250 C.2   189  CYS189      0.2270
     88  O         19.0940   13.2780   22.4470 O.2   189  CYS189     -0.2867
     89  CB        19.9980   12.3400   25.1760 C.3   189  CYS189      0.0956
     90  SG        21.0970   11.1420   24.4000 S.3   189  CYS189     -0.0801
     91  N         16.4290    1.5140   33.4470 N.3   219  ASP219     -0.1239
     92  CA        17.7320    2.0580   33.2220 C.3   219  ASP219      0.1674
     93  C         18.1090    2.9650   34.3900 C.2   219  ASP219      0.2266
     94  O         17.2590    3.3880   35.1940 O.2   219  ASP219     -0.2867
     95  CB        17.8300    2.7180   31.8510 C.3   219  ASP219      0.1410
     96  CG        17.0850    4.0000   31.7940 C.2   219  ASP219      0.3668
     97  OD1       17.4210    4.8670   30.9710 O.co2 219  ASP219     -0.2456
     98  OD2       16.1560    4.1480   32.6030 O.co2 219  ASP219     -0.2456
     99  N         20.6100    6.2070   35.5170 N.3   221  GLU221     -0.1245
    100  CA        21.4340    7.2810   34.9730 C.3   221  GLU221      0.1567
    101  C         22.1940    7.9300   36.0910 C.2   221  GLU221      0.2260
    102  O         21.5930    8.2290   37.1430 O.2   221  GLU221     -0.2867
    103  CB        20.5770    8.3650   34.3020 C.3   221  GLU221      0.0388
    104  CG        19.6210    7.8550   33.2160 C.3   221  GLU221      0.1160
    105  CD        19.0750    8.9370   32.2820 C.2   221  GLU221      0.3649
    106  OE1       18.0930    9.6530   32.6440 O.co2 221  GLU221     -0.2457
    107  OE2       19.6410    9.0520   31.1680 O.co2 221  GLU221     -0.2457
    108  N         18.7030    9.4350   38.3200 N.3   233  GLU233     -0.1245
    109  CA        17.3590    8.8770   38.1510 C.3   233  GLU233      0.1567
    110  C         17.4200    7.4280   37.7600 C.2   233  GLU233      0.2260
    111  O         18.4860    6.9310   37.4330 O.2   233  GLU233     -0.2867
    112  CB        16.4670    9.7120   37.1750 C.3   233  GLU233      0.0388
    113  CG        16.7370    9.6150   35.6530 C.3   233  GLU233      0.1160
    114  CD        15.5080    9.8150   34.7330 C.2   233  GLU233      0.3649
    115  OE1       14.3500    9.7280   35.2130 O.co2 233  GLU233     -0.2457
    116  OE2       15.7380    9.9990   33.5140 O.co2 233  GLU233     -0.2457
    117  N         11.1860    1.2780   32.6430 N.3   237  ARG237     -0.1245
    118  CA        10.4400    1.1510   31.3960 C.3   237  ARG237      0.1563
    119  C         11.4440    0.9940   30.2650 C.2   237  ARG237      0.2260
    120  O         12.6470    1.2100   30.4670 O.2   237  ARG237     -0.2867
    121  CB         9.4070    2.2820   31.1690 C.3   237  ARG237      0.0307
    122  CG         9.7830    3.7230   31.5300 C.3   237  ARG237      0.0489
    123  CD        10.8260    4.2230   30.5450 C.3   237  ARG237      0.2205
    124  NE        10.9620    5.6680   30.5160 N.pl3 237  ARG237     -0.0865
    125  CZ        12.1110    6.3090   30.3480 C.cat 237  ARG237      0.5346
    126  NH1       13.2720    5.6520   30.2550 N.pl3 237  ARG237      0.1354
    127  NH2       12.0910    7.6260   30.3470 N.pl3 237  ARG237      0.1354
    128  N         13.7390    1.8620   27.5150 N.3   239  PRO239     -0.2102
    129  CA        14.2380    3.1680   27.1070 C.3   239  PRO239      0.1504
    130  C         14.3830    3.3730   25.6030 C.2   239  PRO239      0.2576
    131  O         14.3580    2.4100   24.8290 O.2   239  PRO239     -0.2718
    132  CB        15.6380    3.1980   27.6900 C.3   239  PRO239      0.0282
    133  CG        16.0740    1.7760   27.8180 C.3   239  PRO239      0.0208
    134  CD        14.8080    0.9660   28.0070 C.3   239  PRO239      0.0893
    135  N         14.6420    4.6220   25.2120 N.am  240  SER240     -0.1938
    136  CA        14.9750    4.9540   23.8380 C.3   240  SER240      0.2055
    137  C         16.4750    5.2770   23.7440 C.2   240  SER240      0.2643
    138  O         17.1620    5.5560   24.7540 O.2   240  SER240     -0.2714
    139  CB        14.1310    6.1420   23.3650 C.3   240  SER240      0.2130
    140  OG        14.4180    7.2500   24.2040 O.3   240  SER240     -0.2179
    141  N         16.9780    5.1730   22.5160 N.am  241  GLN241     -0.1963
    142  CA        18.3420    5.5750   22.1440 C.3   241  GLN241      0.1733
    143  C         19.4000    4.6060   22.6570 C.2   241  GLN241      0.2617
    144  O         20.0590    3.9210   21.8750 O.2   241  GLN241     -0.2715
    145  CB        18.6750    7.0380   22.5560 C.3   241  GLN241      0.0408
    146  CG        17.6280    8.0890   22.2160 C.3   241  GLN241      0.0908
    147  CD        18.0200    9.4540   22.7520 C.2   241  GLN241      0.2608
    148  OE1       18.1800    9.6300   23.9570 O.2   241  GLN241     -0.2717
    149  NE2       18.2090   10.4120   21.8660 N.am  241  GLN241     -0.0878
    150  N         19.5810    4.5150   23.9640 N.am  242  THR242     -0.1951
    151  CA        20.6460    3.6450   24.4410 C.3   242  THR242      0.1897
    152  C         20.5520    2.1720   23.9830 C.2   242  THR242      0.2313
    153  O         21.5720    1.5320   23.7590 O.2   242  THR242     -0.2863
    154  CB        20.8220    3.7170   25.9800 C.3   242  THR242      0.1794
    155  OG1       19.5780    3.4180   26.6190 O.3   242  THR242     -0.2208
    156  CG2       21.2560    5.1210   26.4130 C.3   242  THR242      0.0378
    157  N         15.7140   14.2350   21.5570 N.3   292  GLU292     -0.1245
    158  CA        14.4390   13.5400   21.5180 C.3   292  GLU292      0.1567
    159  C         13.2280   14.3860   21.5650 C.2   292  GLU292      0.2260
    160  O         12.2320   13.9980   20.9800 O.2   292  GLU292     -0.2867
    161  CB        14.2800   12.6160   22.7230 C.3   292  GLU292      0.0388
    162  CG        15.3040   11.5390   22.7750 C.3   292  GLU292      0.1160
    163  CD        14.8260   10.3580   23.5540 C.2   292  GLU292      0.3649
    164  OE1       14.6420   10.4760   24.7830 O.co2 292  GLU292     -0.2457
    165  OE2       14.5940    9.3420   22.8900 O.co2 292  GLU292     -0.2457
    166  N         10.2080   13.8900   18.8100 N.3   296  SER296     -0.1217
    167  CA         8.9070   13.4500   19.2030 C.3   296  SER296      0.1889
    168  C          7.7880   14.3930   18.7170 C.2   296  SER296      0.2288
    169  O          6.6090   14.1470   18.9890 O.2   296  SER296     -0.2866
    170  CB         8.8580   13.3310   20.7140 C.3   296  SER296      0.2089
    171  OG         8.5350   14.6100   21.2000 O.3   296  SER296     -0.2183
@<TRIPOS>BOND
     1   168   169    2
     2   168   167    1
     3   166   167    1
     4   167   170    1
     5     4     3    2
     6    17    15    1
     7     2     1    1
     8     2     3    1
     9     2     5    1
    10     3    10   am
    11     6     5    1
    12     6     7    1
    13     8     7    1
    14     8     9    1
    15   170   171    1
    16    10    11    1
    17    11    12    1
    18    11    14    1
    19    15    14    1
    20    15    16    1
    21   160   159    2
    22    13    12    2
    23   158   157    1
    24   158   159    1
    25   158   161    1
    26    12    18   am
    27   149   147   am
    28   144   143    2
    29   142   141    1
    30   142   145    1
    31   142   143    1
    32    21    20    2
    33   146   145    1
    34   146   147    1
    35    20    19    1
    36    88    87    2
    37   141   137   am
    38   143   150   am
    39    18    19    1
    40   161   162    1
    41   147   148    2
    42   162   163    1
    43   165   163   ar
    44    87    86    1
    45    19    22    1
    46   139   136    1
    47   139   140    1
    48    33    31    1
    49   163   164   ar
    50   137   136    1
    51   137   138    2
    52   153   152    2
    53   136   135    1
    54   150   151    1
    55   152   151    1
    56    90    89    1
    57   151   154    1
    58    31    32    1
    59    31    28    1
    60    86    85    1
    61    86    89    1
    62    22    23    1
    63    30    29    2
    64   131   130    2
    65   135   130   am
    66   130   129    1
    67    29    28    1
    68    29    34   am
    69    23    24    1
    70    28    27    1
    71   154   156    1
    72   154   155    1
    73    62    61    1
    74    38    35    1
    75    38    39    1
    76    80    79    1
    77    80    81    2
    78    34    35    1
    79    61    58    1
    80    24    25    2
    81    24    26   am
    82    35    36    1
    83    41    39   am
    84   129   128    1
    85   129   132    1
    86    79    78    1
    87    79    82    1
    88    39    40    2
    89   128   134    1
    90    60    59    2
    91   132   133    1
    92    83    82    1
    93   133   134    1
    94    58    59    1
    95    58    57    1
    96    82    84    1
    97    76    75   ar
    98    36    42   am
    99    36    37    2
   100    42    43    1
   101    75    77   ar
   102    75    74    1
   103    49    48   ar
   104    57    53   am
   105    74    73    1
   106    56    55    1
   107    54    53    2
   108    53    52    1
   109    48    47    1
   110    48    50   ar
   111    47    46    1
   112    43    46    1
   113    43    44    1
   114   126   125    1
   115   119   120    2
   116   119   118    1
   117    73    70    1
   118    67    68    1
   119    67    64    1
   120   127   125    1
   121   125   124    2
   122   124   123    1
   123    44    45    2
   124   123   122    1
   125    55    52    1
   126    66    65    2
   127    97    96   ar
   128    52    51    1
   129   107   105   ar
   130   121   118    1
   131   121   122    1
   132   118   117    1
   133    63    64    1
   134    64    65    1
   135    69    70    1
   136    70    71    1
   137    96    95    1
   138    96    98   ar
   139    95    92    1
   140   105   106   ar
   141   105   104    1
   142    72    71    2
   143   104   103    1
   144    92    91    1
   145    92    93    1
   146   116   114   ar
   147   103   100    1
   148    93    94    2
   149   114   115   ar
   150   114   113    1
   151   100    99    1
   152   100   101    1
   153   113   112    1
   154   101   102    2
   155   112   109    1
   156   111   110    2
   157   110   109    1
   158   109   108    1
