@<TRIPOS>MOLECULE
tmp/4ffrA00.pdb
 216 202 0 0 0
SMALL
GASTEIGER

@<TRIPOS>ATOM
      1  N         10.6670   11.2190   40.9120 N.3   102  LYS102     -0.1245
      2  CA        12.0760   11.4550   41.2310 C.3   102  LYS102      0.1561
      3  C         12.3630   11.5950   42.7270 C.2   102  LYS102      0.2260
      4  O         13.4380   11.2060   43.1820 O.2   102  LYS102     -0.2867
      5  CB        12.6270   12.6420   40.4380 C.3   102  LYS102      0.0271
      6  CG        12.6950   12.3490   38.9480 C.3   102  LYS102      0.0035
      7  CD        13.4230   13.4290   38.1750 C.3   102  LYS102      0.0206
      8  CE        13.7310   12.9480   36.7660 C.3   102  LYS102      0.1093
      9  NZ        12.5100   12.6670   35.9550 N.3   102  LYS102     -0.1314
     10  N         22.4470   13.3680   44.2020 N.3   117  PRO117     -0.2116
     11  CA        22.7320   14.7840   44.4530 C.3   117  PRO117      0.1372
     12  C         22.0410   15.3360   45.6990 C.2   117  PRO117      0.2244
     13  O         20.8990   14.9770   45.9890 O.2   117  PRO117     -0.2868
     14  CB        22.1930   15.4760   43.1970 C.3   117  PRO117      0.0268
     15  CG        22.3060   14.4310   42.1320 C.3   117  PRO117      0.0207
     16  CD        21.9380   13.1560   42.8310 C.3   117  PRO117      0.0892
     17  N         20.4210   22.8600   40.0430 N.3   127  PHE127     -0.1241
     18  CA        19.7100   22.2080   38.9550 C.3   127  PHE127      0.1605
     19  C         18.2840   21.9570   39.4000 C.2   127  PHE127      0.2264
     20  O         18.0490   21.4450   40.4970 O.2   127  PHE127     -0.2867
     21  CB        20.3800   20.9130   38.4920 C.3   127  PHE127      0.0534
     22  CG        20.0220   20.5340   37.0830 C.ar  127  PHE127     -0.0203
     23  CD1       20.6530   21.1510   36.0050 C.ar  127  PHE127     -0.0042
     24  CD2       19.0300   19.5920   36.8280 C.ar  127  PHE127     -0.0042
     25  CE1       20.3190   20.8200   34.7000 C.ar  127  PHE127     -0.0003
     26  CE2       18.6880   19.2570   35.5230 C.ar  127  PHE127     -0.0003
     27  CZ        19.3340   19.8740   34.4600 C.ar  127  PHE127     -0.0000
     28  N         14.2600   20.5900   38.2030 N.3   129  LYS129     -0.1245
     29  CA        13.4890   19.7600   37.2880 C.3   129  LYS129      0.1561
     30  C         12.1690   19.3410   37.9330 C.2   129  LYS129      0.2260
     31  O         12.0690   19.2940   39.1660 O.2   129  LYS129     -0.2867
     32  CB        14.3000   18.5270   36.8530 C.3   129  LYS129      0.0271
     33  CG        14.7830   17.6390   37.9900 C.3   129  LYS129      0.0035
     34  CD        15.9160   16.7300   37.5370 C.3   129  LYS129      0.0206
     35  CE        16.4100   15.8680   38.6860 C.3   129  LYS129      0.1093
     36  NZ        17.5450   14.9880   38.2900 N.3   129  LYS129     -0.1314
     37  N          8.5370   14.1790   34.9720 N.3   133  GLU133     -0.1231
     38  CA         8.6940   14.2890   33.5180 C.3   133  GLU133      0.1699
     39  C          9.7830   13.3460   32.9880 C.2   133  GLU133      0.2593
     40  O         10.4000   12.6020   33.7540 O.2   133  GLU133     -0.2718
     41  CB         8.9860   15.7400   33.1090 C.3   133  GLU133      0.0402
     42  CG         7.8000   16.6920   33.2280 C.3   133  GLU133      0.1161
     43  CD         6.7600   16.5180   32.1300 C.2   133  GLU133      0.3649
     44  OE1        5.5970   16.9140   32.3570 O.co2 133  GLU133     -0.2457
     45  OE2        7.0950   15.9960   31.0440 O.co2 133  GLU133     -0.2457
     46  N          9.9950   13.3700   31.6740 N.am  134  SER134     -0.1938
     47  CA        11.1010   12.6520   31.0420 C.3   134  SER134      0.2055
     48  C         11.6580   13.4820   29.8860 C.2   134  SER134      0.2644
     49  O         11.1640   14.5840   29.6170 O.2   134  SER134     -0.2714
     50  CB        10.6580   11.2660   30.5650 C.3   134  SER134      0.2130
     51  OG         9.5730   11.3580   29.6620 O.3   134  SER134     -0.2179
     52  N         12.6910   12.9600   29.2210 N.am  135  SER135     -0.1935
     53  CA        13.3350   13.6330   28.0790 C.3   135  SER135      0.2055
     54  C         13.8770   15.0260   28.4250 C.2   135  SER135      0.2644
     55  O         14.0580   15.8680   27.5400 O.2   135  SER135     -0.2714
     56  CB        12.3830   13.7110   26.8740 C.3   135  SER135      0.2130
     57  OG        11.8840   12.4330   26.5240 O.3   135  SER135     -0.2179
     58  N         14.1310   15.2520   29.7160 N.am  136  SER136     -0.1935
     59  CA        14.6510   16.5260   30.2360 C.3   136  SER136      0.2055
     60  C         13.6630   17.6930   30.1300 C.2   136  SER136      0.2642
     61  O         14.0590   18.8570   30.2140 O.2   136  SER136     -0.2714
     62  CB        15.9850   16.8950   29.5760 C.3   136  SER136      0.2130
     63  OG        16.8710   15.7890   29.5640 O.3   136  SER136     -0.2179
     64  N         12.3820   17.3830   29.9540 N.am  137  VAL137     -0.1977
     65  CA        11.3450   18.4130   29.9250 C.3   137  VAL137      0.1596
     66  C         11.3400   19.1470   31.2660 C.2   137  VAL137      0.2287
     67  O         11.2420   18.5200   32.3270 O.2   137  VAL137     -0.2864
     68  CB         9.9500   17.8210   29.6000 C.3   137  VAL137      0.0276
     69  CG1        8.8510   18.8570   29.8050 C.3   137  VAL137      0.0022
     70  CG2        9.9150   17.2940   28.1700 C.3   137  VAL137      0.0022
     71  N         13.7740   20.5250   32.7480 N.3   139  ALA139     -0.1245
     72  CA        15.0870   20.4890   33.3930 C.3   139  ALA139      0.1562
     73  C         15.9010   21.7020   32.9710 C.2   139  ALA139      0.2260
     74  O         16.0720   21.9600   31.7790 O.2   139  ALA139     -0.2867
     75  CB        15.8280   19.2010   33.0600 C.3   139  ALA139      0.0290
     76  N         18.3140   20.6700   43.1870 N.3   154  GLU154     -0.1231
     77  CA        19.5030   19.8850   43.5070 C.3   154  GLU154      0.1699
     78  C         20.7710   20.6830   43.3060 C.2   154  GLU154      0.2592
     79  O         20.7800   21.6860   42.5910 O.2   154  GLU154     -0.2718
     80  CB        19.5880   18.6580   42.6010 C.3   154  GLU154      0.0402
     81  CG        18.5530   17.5880   42.8660 C.3   154  GLU154      0.1161
     82  CD        18.7390   16.3800   41.9730 C.2   154  GLU154      0.3649
     83  OE1       19.0690   16.5520   40.7760 O.co2 154  GLU154     -0.2457
     84  OE2       18.5540   15.2560   42.4700 O.co2 154  GLU154     -0.2457
     85  N         21.8510   20.2200   43.9290 N.am  155  GLU155     -0.1966
     86  CA        23.1780   20.6790   43.5640 C.3   155  GLU155      0.1733
     87  C         23.4180   20.2960   42.1060 C.2   155  GLU155      0.2616
     88  O         22.9740   19.2360   41.6510 O.2   155  GLU155     -0.2715
     89  CB        24.2410   20.0530   44.4660 C.3   155  GLU155      0.0429
     90  CG        24.3180   18.5360   44.3790 C.3   155  GLU155      0.1163
     91  CD        25.4350   17.9460   45.2110 C.2   155  GLU155      0.3649
     92  OE1       26.4500   18.6370   45.4500 O.co2 155  GLU155     -0.2457
     93  OE2       25.2900   16.7820   45.6240 O.co2 155  GLU155     -0.2457
     94  N         24.0950   21.1700   41.3720 N.am  156  TYR156     -0.1960
     95  CA        24.4460   20.8890   39.9840 C.3   156  TYR156      0.1771
     96  C         25.7080   20.0480   39.9850 C.2   156  TYR156      0.2619
     97  O         26.7540   20.4960   40.4500 O.2   156  TYR156     -0.2715
     98  CB        24.6600   22.2000   39.2210 C.3   156  TYR156      0.0574
     99  CG        24.9690   22.0570   37.7430 C.ar  156  TYR156     -0.0198
    100  CD1       24.0220   21.5520   36.8530 C.ar  156  TYR156     -0.0009
    101  CD2       26.2010   22.4670   37.2280 C.ar  156  TYR156     -0.0009
    102  CE1       24.3000   21.4360   35.4940 C.ar  156  TYR156      0.0417
    103  CE2       26.4870   22.3620   35.8740 C.ar  156  TYR156      0.0417
    104  CZ        25.5370   21.8440   35.0090 C.ar  156  TYR156      0.1957
    105  OH        25.8230   21.7390   33.6590 O.3   156  TYR156     -0.2866
    106  N         25.5930   18.8170   39.4960 N.am  157  VAL157     -0.1977
    107  CA        26.7210   17.8980   39.4380 C.3   157  VAL157      0.1596
    108  C         27.2950   17.8850   38.0210 C.2   157  VAL157      0.2287
    109  O         26.6720   17.3630   37.0980 O.2   157  VAL157     -0.2864
    110  CB        26.3240   16.4560   39.8460 C.3   157  VAL157      0.0276
    111  CG1       27.5650   15.5860   39.9980 C.3   157  VAL157      0.0022
    112  CG2       25.5090   16.4490   41.1390 C.3   157  VAL157      0.0022
    113  N         27.2830   12.0520   31.9840 N.3   161  VAL161     -0.1245
    114  CA        26.0200   11.3950   32.2870 C.3   161  VAL161      0.1561
    115  C         26.0600    9.9880   31.6960 C.2   161  VAL161      0.2260
    116  O         26.2180    9.8110   30.4840 O.2   161  VAL161     -0.2867
    117  CB        24.8150   12.1950   31.7540 C.3   161  VAL161      0.0252
    118  CG1       23.5120   11.4740   32.0750 C.3   161  VAL161      0.0019
    119  CG2       24.8100   13.6030   32.3450 C.3   161  VAL161      0.0019
    120  N         25.6770    9.5560   27.7020 N.3   181  VAL181     -0.1245
    121  CA        24.5690   10.3880   27.2530 C.3   181  VAL181      0.1561
    122  C         25.1250   11.7760   26.9370 C.2   181  VAL181      0.2260
    123  O         25.5550   12.4900   27.8430 O.2   181  VAL181     -0.2867
    124  CB        23.4640   10.4580   28.3410 C.3   181  VAL181      0.0252
    125  CG1       22.3540   11.4270   27.9590 C.3   181  VAL181      0.0019
    126  CG2       22.8960    9.0690   28.6130 C.3   181  VAL181      0.0019
    127  N         24.7070   15.4810   26.0670 N.3   183  ILE183     -0.1245
    128  CA        23.6470   16.4620   26.3190 C.3   183  ILE183      0.1561
    129  C         23.8200   17.7270   25.4820 C.2   183  ILE183      0.2260
    130  O         24.9400   18.0860   25.1140 O.2   183  ILE183     -0.2867
    131  CB        23.5420   16.8130   27.8250 C.3   183  ILE183      0.0252
    132  CG1       24.8250   17.5030   28.3190 C.3   183  ILE183      0.0019
    133  CG2       23.2380   15.5530   28.6270 C.3   183  ILE183      0.0019
    134  CD1       24.7240   18.1530   29.6880 C.3   183  ILE183      0.0001
    135  N         19.7310   20.2660   27.9250 N.3   187  TYR187     -0.1241
    136  CA        19.9190   19.0360   28.7240 C.3   187  TYR187      0.1605
    137  C         19.2140   17.7940   28.1600 C.2   187  TYR187      0.2264
    138  O         19.1120   16.7650   28.8330 O.2   187  TYR187     -0.2867
    139  CB        19.6300   19.2680   30.2270 C.3   187  TYR187      0.0534
    140  CG        20.6410   20.2110   30.8480 C.ar  187  TYR187     -0.0201
    141  CD1       21.8330   19.7300   31.3820 C.ar  187  TYR187     -0.0009
    142  CD2       20.4250   21.5890   30.8550 C.ar  187  TYR187     -0.0009
    143  CE1       22.7780   20.5930   31.9210 C.ar  187  TYR187      0.0417
    144  CE2       21.3600   22.4600   31.3920 C.ar  187  TYR187      0.0417
    145  CZ        22.5330   21.9550   31.9250 C.ar  187  TYR187      0.1957
    146  OH        23.4660   22.8140   32.4560 O.3   187  TYR187     -0.2866
    147  N         16.4680    1.4790   33.4770 N.3   217  ASP217     -0.1239
    148  CA        17.7600    2.1020   33.2670 C.3   217  ASP217      0.1674
    149  C         18.1230    2.9240   34.4940 C.2   217  ASP217      0.2266
    150  O         17.2510    3.4300   35.2080 O.2   217  ASP217     -0.2867
    151  CB        17.8170    2.9100   31.9630 C.3   217  ASP217      0.1410
    152  CG        17.3430    4.3260   32.1300 C.2   217  ASP217      0.3668
    153  OD1       18.1430    5.2460   31.8570 O.co2 217  ASP217     -0.2456
    154  OD2       16.1810    4.5210   32.5430 O.co2 217  ASP217     -0.2456
    155  N         20.6230    6.0850   35.6990 N.3   219  GLU219     -0.1245
    156  CA        21.4330    7.1900   35.2040 C.3   219  GLU219      0.1567
    157  C         22.2260    7.7930   36.3440 C.2   219  GLU219      0.2260
    158  O         21.6770    8.0820   37.4060 O.2   219  GLU219     -0.2867
    159  CB        20.5630    8.2530   34.5280 C.3   219  GLU219      0.0388
    160  CG        19.8980    7.7720   33.2470 C.3   219  GLU219      0.1160
    161  CD        19.2240    8.8900   32.4760 C.2   219  GLU219      0.3649
    162  OE1       19.6350    9.1310   31.3210 O.co2 219  GLU219     -0.2457
    163  OE2       18.2970    9.5310   33.0180 O.co2 219  GLU219     -0.2457
    164  N         25.6930   10.6070   37.2560 N.3   221  ILE221     -0.1245
    165  CA        26.6910   11.5630   36.8050 C.3   221  ILE221      0.1561
    166  C         28.0070   11.2500   37.5070 C.2   221  ILE221      0.2260
    167  O         28.0610   11.1510   38.7410 O.2   221  ILE221     -0.2867
    168  CB        26.2570   13.0250   37.0510 C.3   221  ILE221      0.0252
    169  CG1       25.0220   13.3550   36.2020 C.3   221  ILE221      0.0019
    170  CG2       27.4030   13.9880   36.7360 C.3   221  ILE221      0.0019
    171  CD1       24.3090   14.6340   36.5950 C.3   221  ILE221      0.0001
    172  N         21.2760    9.9660   39.5430 N.3   230  ILE230     -0.1231
    173  CA        20.3030   11.0490   39.3970 C.3   230  ILE230      0.1692
    174  C         18.8760   10.5320   39.2640 C.2   230  ILE230      0.2591
    175  O         17.9530   11.1220   39.8210 O.2   230  ILE230     -0.2718
    176  CB        20.6570   12.0600   38.2680 C.3   230  ILE230      0.0266
    177  CG1       20.7540   11.3710   36.8970 C.3   230  ILE230      0.0019
    178  CG2       21.9350   12.8160   38.6290 C.3   230  ILE230      0.0020
    179  CD1       20.9140   12.3220   35.7220 C.3   230  ILE230      0.0001
    180  N         18.7000    9.4260   38.5470 N.am  231  GLU231     -0.1979
    181  CA        17.3760    8.8330   38.3990 C.3   231  GLU231      0.1602
    182  C         17.4100    7.3770   37.9520 C.2   231  GLU231      0.2287
    183  O         18.4350    6.8540   37.5130 O.2   231  GLU231     -0.2864
    184  CB        16.5000    9.6570   37.4390 C.3   231  GLU231      0.0415
    185  CG        16.9260    9.6050   35.9770 C.3   231  GLU231      0.1163
    186  CD        15.7710    9.8470   35.0260 C.2   231  GLU231      0.3649
    187  OE1       14.6070    9.8860   35.4920 O.co2 231  GLU231     -0.2457
    188  OE2       16.0170    9.9950   33.8020 O.co2 231  GLU231     -0.2457
    189  N         14.5460    4.8180   35.6490 N.3   233  ASP233     -0.1239
    190  CA        13.3040    4.8240   34.8830 C.3   233  ASP233      0.1674
    191  C         13.0020    3.3490   34.5330 C.2   233  ASP233      0.2266
    192  O         13.7230    2.7140   33.7460 O.2   233  ASP233     -0.2867
    193  CB        13.3670    5.8060   33.6640 C.3   233  ASP233      0.1410
    194  CG        13.1550    7.3350   34.0610 C.2   233  ASP233      0.3668
    195  OD1       12.4280    7.6010   35.0630 O.co2 233  ASP233     -0.2456
    196  OD2       13.6950    8.2890   33.3730 O.co2 233  ASP233     -0.2456
    197  N         11.0760    1.4210   32.6670 N.3   235  ARG235     -0.1245
    198  CA        10.3170    1.2360   31.4320 C.3   235  ARG235      0.1563
    199  C         11.3390    1.0730   30.3170 C.2   235  ARG235      0.2260
    200  O         12.5350    1.2840   30.5390 O.2   235  ARG235     -0.2867
    201  CB         9.3650    2.4180   31.1590 C.3   235  ARG235      0.0307
    202  CG         9.8860    3.8060   31.5190 C.3   235  ARG235      0.0489
    203  CD        10.9650    4.3120   30.5740 C.3   235  ARG235      0.2205
    204  NE        11.0580    5.7710   30.5880 N.pl3 235  ARG235     -0.0865
    205  CZ        12.1820    6.4660   30.4160 C.cat 235  ARG235      0.5346
    206  NH1       13.3450    5.8460   30.2370 N.pl3 235  ARG235      0.1354
    207  NH2       12.1450    7.7920   30.4440 N.pl3 235  ARG235      0.1354
    208  N         15.7380   14.4510   21.7920 N.3   289  GLU289     -0.1245
    209  CA        14.4920   13.6850   21.6970 C.3   289  GLU289      0.1567
    210  C         13.2220   14.5110   21.6480 C.2   289  GLU289      0.2260
    211  O         12.2670   14.1300   20.9690 O.2   289  GLU289     -0.2867
    212  CB        14.3770   12.7250   22.8770 C.3   289  GLU289      0.0388
    213  CG        15.3750   11.5970   22.8360 C.3   289  GLU289      0.1160
    214  CD        14.9110   10.4100   23.6400 C.2   289  GLU289      0.3649
    215  OE1       14.8130   10.5220   24.8820 O.co2 289  GLU289     -0.2457
    216  OE2       14.6400    9.3670   23.0160 O.co2 289  GLU289     -0.2457
@<TRIPOS>BOND
     1   211   210    2
     2   210   209    1
     3   209   208    1
     4   209   212    1
     5   213   212    1
     6   213   214    1
     7   216   214   ar
     8   214   215   ar
     9   130   129    2
    10   129   128    1
    11   127   128    1
    12   128   131    1
    13    57    56    1
    14    56    53    1
    15   122   121    1
    16   122   123    2
    17   121   120    1
    18   121   124    1
    19    55    54    2
    20   131   132    1
    21   131   133    1
    22   135   136    1
    23   125   124    1
    24    53    54    1
    25    53    52    1
    26   137   136    1
    27   137   138    2
    28    70    68    1
    29   132   134    1
    30   124   126    1
    31    54    58   am
    32   136   139    1
    33    52    48   am
    34    63    62    1
    35    62    59    1
    36    68    69    1
    37    68    65    1
    38    49    48    2
    39    51    50    1
    40    58    59    1
    41    48    47    1
    42    65    64    1
    43    65    66    1
    44    64    60   am
    45    60    61    2
    46    60    59    1
    47   139   140    1
    48   206   205    1
    49   199   200    2
    50   199   198    1
    51   205   207    1
    52   205   204    2
    53   116   115    2
    54    50    47    1
    55   203   204    1
    56   203   202    1
    57   140   142   ar
    58   140   141   ar
    59   142   144   ar
    60    47    46    1
    61    45    43   ar
    62   201   198    1
    63   201   202    1
    64    66    67    2
    65   162   161   ar
    66   141   143   ar
    67   144   145   ar
    68   198   197    1
    69    46    39   am
    70   115   114    1
    71   117   118    1
    72   117   114    1
    73   117   119    1
    74    74    73    2
    75   153   152   ar
    76   143   145   ar
    77   145   146    1
    78   151   152    1
    79   151   148    1
    80   113   114    1
    81   152   154   ar
    82    43    44   ar
    83    43    42    1
    84   161   163   ar
    85   161   160    1
    86    71    72    1
    87    73    72    1
    88    39    38    1
    89    39    40    2
    90    75    72    1
    91    41    42    1
    92    41    38    1
    93   160   159    1
    94   148   147    1
    95   148   149    1
    96   196   194   ar
    97    38    37    1
    98   105   104    1
    99   193   194    1
   100   193   190    1
   101   192   191    2
   102   188   186   ar
   103   194   195   ar
   104    27    25   ar
   105    27    26   ar
   106   149   150    2
   107   159   156    1
   108   191   190    1
   109    25    23   ar
   110   190   189    1
   111   104   102   ar
   112   104   103   ar
   113   186   187   ar
   114   186   185    1
   115   156   155    1
   116   156   157    1
   117   102   100   ar
   118    26    24   ar
   119   179   177    1
   120   103   101   ar
   121     9     8    1
   122   185   184    1
   123    23    22   ar
   124   169   171    1
   125   169   168    1
   126   157   158    2
   127   170   168    1
   128     8     7    1
   129   165   168    1
   130   165   164    1
   131   165   166    1
   132    24    22   ar
   133    32    29    1
   134    32    33    1
   135   100    99   ar
   136   177   176    1
   137    22    21    1
   138   109   108    2
   139   101    99   ar
   140    29    30    1
   141    29    28    1
   142   184   181    1
   143   166   167    2
   144   183   182    2
   145    34    33    1
   146    34    35    1
   147    99    98    1
   148    30    31    2
   149   182   181    1
   150   108   107    1
   151     7     6    1
   152   176   178    1
   153   176   173    1
   154    36    35    1
   155   181   180    1
   156    21    18    1
   157   180   174   am
   158     6     5    1
   159    18    19    1
   160    18    17    1
   161    98    95    1
   162   174   173    1
   163   174   175    2
   164   173   172    1
   165    19    20    2
   166   107   106    1
   167   107   110    1
   168   106    96   am
   169   110   111    1
   170   110   112    1
   171    95    96    1
   172    95    94    1
   173    96    97    2
   174     5     2    1
   175    83    82   ar
   176     1     2    1
   177     2     3    1
   178    94    87   am
   179    88    87    2
   180    82    84   ar
   181    82    81    1
   182    87    86    1
   183    15    16    1
   184    15    14    1
   185    79    78    2
   186    80    81    1
   187    80    77    1
   188     3     4    2
   189    16    10    1
   190    76    77    1
   191    14    11    1
   192    78    77    1
   193    78    85   am
   194    86    85    1
   195    86    89    1
   196    10    11    1
   197    90    89    1
   198    90    91    1
   199    11    12    1
   200    91    92   ar
   201    91    93   ar
   202    12    13    2
