@<TRIPOS>MOLECULE
tmp/4ffsA00.pdb
 147 139 0 0 0
SMALL
GASTEIGER

@<TRIPOS>ATOM
      1  N        -28.9250  -40.8410   11.2200 N.3    11  ALA11      -0.1231
      2  CA       -30.2670  -40.3060   11.0690 C.3    11  ALA11       0.1694
      3  C        -30.8340  -39.7920   12.3870 C.2    11  ALA11       0.2591
      4  O        -31.3740  -38.7100   12.4490 O.2    11  ALA11      -0.2718
      5  CB       -31.1770  -41.3410   10.4620 C.3    11  ALA11       0.0304
      6  N        -30.7170  -40.5970   13.4450 N.am   12  MET12      -0.1979
      7  CA       -31.2300  -40.2390   14.7640 C.3    12  MET12       0.1605
      8  C        -30.0780  -39.8150   15.6650 C.2    12  MET12       0.2287
      9  O        -28.9380  -40.2640   15.4920 O.2    12  MET12      -0.2864
     10  CB       -31.9490  -41.4450   15.4030 C.3    12  MET12       0.0413
     11  CG       -33.1370  -41.9850   14.6060 C.3    12  MET12       0.0598
     12  SD       -33.8400  -43.5100   15.3110 S.3    12  MET12      -0.1393
     13  CE       -34.4870  -42.8790   16.8440 C.3    12  MET12       0.0692
     14  N        -27.8540  -42.5380   16.8690 N.3    15  GLU15      -0.1245
     15  CA       -26.8080  -43.0650   15.9620 C.3    15  GLU15       0.1567
     16  C        -25.4860  -42.2950   15.9710 C.2    15  GLU15       0.2260
     17  O        -24.4410  -42.8690   15.6260 O.2    15  GLU15      -0.2867
     18  CB       -27.3400  -43.2080   14.5370 C.3    15  GLU15       0.0388
     19  CG       -28.3920  -44.3210   14.4570 C.3    15  GLU15       0.1160
     20  CD       -29.2420  -44.2990   13.2080 C.2    15  GLU15       0.3649
     21  OE1      -29.5520  -43.2080   12.6970 O.co2  15  GLU15      -0.2457
     22  OE2      -29.6160  -45.4100   12.7410 O.co2  15  GLU15      -0.2457
     23  N        -34.9840  -38.2430   10.7600 N.3    54  ILE54      -0.1245
     24  CA       -35.4320  -39.4350   10.0450 C.3    54  ILE54       0.1561
     25  C        -35.9650  -39.1580    8.6400 C.2    54  ILE54       0.2260
     26  O        -36.6890  -38.1780    8.3950 O.2    54  ILE54      -0.2867
     27  CB       -36.4940  -40.1610   10.8920 C.3    54  ILE54       0.0252
     28  CG1      -35.8200  -40.7260   12.1540 C.3    54  ILE54       0.0019
     29  CG2      -37.1680  -41.2610   10.0820 C.3    54  ILE54       0.0019
     30  CD1      -36.7740  -41.1430   13.2460 C.3    54  ILE54       0.0001
     31  N        -28.3850  -47.8900   12.0020 N.3    80  VAL80      -0.1231
     32  CA       -29.0180  -49.2070   12.1260 C.3    80  VAL80       0.1692
     33  C        -29.9500  -49.4590   10.9380 C.2    80  VAL80       0.2592
     34  O        -30.2840  -48.5240   10.1930 O.2    80  VAL80      -0.2718
     35  CB       -29.7390  -49.3630   13.4890 C.3    80  VAL80       0.0266
     36  CG1      -28.7820  -49.0370   14.6250 C.3    80  VAL80       0.0020
     37  CG2      -30.9670  -48.4600   13.5970 C.3    80  VAL80       0.0020
     38  N        -30.3410  -50.7160   10.7200 N.am   81  ALA81      -0.1966
     39  CA       -31.2230  -51.0620    9.6130 C.3    81  ALA81       0.1728
     40  C        -32.0070  -52.3270    9.9040 C.2    81  ALA81       0.2616
     41  O        -31.6030  -53.1220   10.7530 O.2    81  ALA81      -0.2715
     42  CB       -30.3840  -51.2730    8.3320 C.3    81  ALA81       0.0334
     43  N        -33.0950  -52.5350    9.1720 N.am   82  GLY82      -0.1955
     44  CA       -33.8390  -53.8030    9.2400 C.3    82  GLY82       0.1869
     45  C        -33.2500  -54.8290    8.2850 C.2    82  GLY82       0.2309
     46  O        -32.9240  -54.4990    7.1360 O.2    82  GLY82      -0.2863
     47  N        -41.0990  -45.1030    5.0820 N.3   154  GLN154     -0.1231
     48  CA       -41.9150  -45.9250    5.9700 C.3   154  GLN154      0.1698
     49  C        -41.0280  -46.8430    6.8070 C.2   154  GLN154      0.2592
     50  O        -40.0480  -47.3710    6.3310 O.2   154  GLN154     -0.2718
     51  CB       -42.9050  -46.7810    5.1700 C.3   154  GLN154      0.0381
     52  CG       -43.6730  -45.9780    4.1260 C.3   154  GLN154      0.0905
     53  CD       -42.8640  -45.7380    2.8640 C.2   154  GLN154      0.2608
     54  OE1      -42.1390  -46.5960    2.4020 O.2   154  GLN154     -0.2717
     55  NE2      -42.9980  -44.5550    2.3010 N.am  154  GLN154     -0.0878
     56  N        -41.3830  -47.0290    8.0710 N.am  155  PHE155     -0.1962
     57  CA       -40.7450  -48.0730    8.8570 C.3   155  PHE155      0.1771
     58  C        -41.3700  -49.3910    8.4290 C.2   155  PHE155      0.2619
     59  O        -42.5890  -49.5240    8.4590 O.2   155  PHE155     -0.2715
     60  CB       -40.9560  -47.8260   10.3390 C.3   155  PHE155      0.0574
     61  CG       -40.2420  -48.8170   11.2230 C.ar  155  PHE155     -0.0200
     62  CD1      -38.8960  -48.6700   11.5050 C.ar  155  PHE155     -0.0042
     63  CD2      -40.9250  -49.9080   11.7650 C.ar  155  PHE155     -0.0042
     64  CE1      -38.2490  -49.5690   12.3280 C.ar  155  PHE155     -0.0003
     65  CE2      -40.2800  -50.8010   12.5960 C.ar  155  PHE155     -0.0003
     66  CZ       -38.9340  -50.6400   12.8620 C.ar  155  PHE155     -0.0000
     67  N        -40.5540  -50.3350    7.9730 N.am  156  VAL156     -0.1977
     68  CA       -41.0610  -51.5560    7.3830 C.3   156  VAL156      0.1596
     69  C        -41.2320  -52.6120    8.4900 C.2   156  VAL156      0.2287
     70  O        -40.3020  -52.9060    9.2400 O.2   156  VAL156     -0.2864
     71  CB       -40.1400  -52.0540    6.2640 C.3   156  VAL156      0.0276
     72  CG1      -40.5800  -53.4370    5.7420 C.3   156  VAL156      0.0022
     73  CG2      -40.1380  -51.0450    5.1140 C.3   156  VAL156      0.0022
     74  N        -33.1110  -52.7270    4.9360 N.3   174  VAL174     -0.1231
     75  CA       -34.0110  -51.6070    4.7470 C.3   174  VAL174      0.1692
     76  C        -33.7750  -50.5110    5.7790 C.2   174  VAL174      0.2592
     77  O        -33.5020  -50.7830    6.9550 O.2   174  VAL174     -0.2718
     78  CB       -35.5030  -52.0600    4.7580 C.3   174  VAL174      0.0266
     79  CG1      -35.9070  -52.6770    6.1010 C.3   174  VAL174      0.0020
     80  CG2      -36.3970  -50.9020    4.4060 C.3   174  VAL174      0.0020
     81  N        -33.8410  -49.2610    5.3230 N.am  175  GLU175     -0.1966
     82  CA       -33.6970  -48.1240    6.2150 C.3   175  GLU175      0.1733
     83  C        -34.3820  -46.9220    5.5590 C.2   175  GLU175      0.2616
     84  O        -35.2210  -47.1120    4.6670 O.2   175  GLU175     -0.2715
     85  CB       -32.2340  -47.9310    6.6400 C.3   175  GLU175      0.0429
     86  CG       -31.1740  -48.2550    5.5940 C.3   175  GLU175      0.1163
     87  CD       -30.7800  -47.0600    4.7480 C.2   175  GLU175      0.3649
     88  OE1      -31.6810  -46.3640    4.2870 O.co2 175  GLU175     -0.2457
     89  OE2      -29.5620  -46.8310    4.5090 O.co2 175  GLU175     -0.2457
     90  N        -34.1020  -45.7030    5.9900 N.am  176  MET176     -0.1963
     91  CA       -34.9170  -44.5820    5.5310 C.3   176  MET176      0.1736
     92  C        -34.1040  -43.3840    5.0140 C.2   176  MET176      0.2616
     93  O        -34.6750  -42.3100    4.7790 O.2   176  MET176     -0.2715
     94  CB       -35.8840  -44.1540    6.6490 C.3   176  MET176      0.0427
     95  CG       -36.8360  -45.2800    7.0820 C.3   176  MET176      0.0599
     96  SD       -37.9640  -44.8900    8.4430 S.3   176  MET176     -0.1393
     97  CE       -38.9800  -43.6270    7.7080 C.3   176  MET176      0.0692
     98  N        -32.7880  -43.5520    4.8840 N.am  177  GLU177     -0.1977
     99  CA       -31.8840  -42.4260    4.5970 C.3   177  GLU177      0.1602
    100  C        -30.7340  -42.7100    3.6290 C.2   177  GLU177      0.2287
    101  O        -30.2020  -41.7770    3.0080 O.2   177  GLU177     -0.2864
    102  CB       -31.2640  -41.8580    5.8900 C.3   177  GLU177      0.0415
    103  CG       -32.2490  -41.4040    6.9560 C.3   177  GLU177      0.1163
    104  CD       -32.8410  -42.5520    7.8150 C.2   177  GLU177      0.3649
    105  OE1      -32.3080  -43.7090    7.8140 O.co2 177  GLU177     -0.2457
    106  OE2      -33.8300  -42.2860    8.5270 O.co2 177  GLU177     -0.2457
    107  N        -24.3470  -49.9920    7.9420 N.3   196  ARG196     -0.1245
    108  CA       -25.4640  -50.2240    8.8410 C.3   196  ARG196      0.1563
    109  C        -25.2370  -51.4900    9.6860 C.2   196  ARG196      0.2260
    110  O        -24.5900  -52.4490    9.2470 O.2   196  ARG196     -0.2867
    111  CB       -26.7860  -50.3640    8.0830 C.3   196  ARG196      0.0307
    112  CG       -27.2420  -49.1640    7.2170 C.3   196  ARG196      0.0489
    113  CD       -27.7040  -47.9880    8.0600 C.3   196  ARG196      0.2205
    114  NE       -28.4460  -46.9790    7.2890 N.pl3 196  ARG196     -0.0865
    115  CZ       -29.3200  -46.1110    7.8230 C.cat 196  ARG196      0.5346
    116  NH1      -29.5790  -46.1340    9.1150 N.pl3 196  ARG196      0.1354
    117  NH2      -29.9420  -45.2060    7.0700 N.pl3 196  ARG196      0.1354
    118  N        -30.7800  -53.9410   13.4360 N.3   199  SER199     -0.1202
    119  CA       -31.5320  -53.7410   14.6570 C.3   199  SER199      0.2020
    120  C        -32.8010  -54.5940   14.7770 C.2   199  SER199      0.2618
    121  O        -33.3750  -54.7190   15.8670 O.2   199  SER199     -0.2717
    122  CB       -31.9230  -52.2770   14.8170 C.3   199  SER199      0.2103
    123  OG       -32.6240  -51.7760   13.6970 O.3   199  SER199     -0.2182
    124  N        -33.2650  -55.1340   13.6650 N.am  200  ASP200     -0.1973
    125  CA       -34.5750  -55.7970   13.6040 C.3   200  ASP200      0.1709
    126  C        -34.6700  -56.5230   12.2880 C.2   200  ASP200      0.2293
    127  O        -33.7870  -56.3880   11.4400 O.2   200  ASP200     -0.2864
    128  CB       -35.7370  -54.8050   13.7730 C.3   200  ASP200      0.1436
    129  CG       -35.7610  -53.7270   12.6920 C.2   200  ASP200      0.3671
    130  OD1      -35.1370  -52.6460   12.9020 O.co2 200  ASP200     -0.2456
    131  OD2      -36.3690  -53.9920   11.6420 O.co2 200  ASP200     -0.2456
    132  N        -37.4650  -56.3510   10.2350 N.3   202  ALA202     -0.1245
    133  CA       -38.3730  -55.6600    9.3090 C.3   202  ALA202      0.1562
    134  C        -39.7240  -56.3670    9.1400 C.2   202  ALA202      0.2260
    135  O        -40.4020  -56.2440    8.1220 O.2   202  ALA202     -0.2867
    136  CB       -37.6900  -55.4420    7.9690 C.3   202  ALA202      0.0290
    137  N        -36.3510  -53.2010   17.3560 N.3   210  PHE210     -0.1241
    138  CA       -35.6810  -51.9070   17.1890 C.3   210  PHE210      0.1605
    139  C        -35.4840  -51.2110   18.5270 C.2   210  PHE210      0.2264
    140  O        -34.3880  -50.7330   18.8450 O.2   210  PHE210     -0.2867
    141  CB       -36.5070  -51.0170   16.2590 C.3   210  PHE210      0.0534
    142  CG       -35.9580  -49.6360   16.1050 C.ar  210  PHE210     -0.0203
    143  CD1      -34.9050  -49.3890   15.2160 C.ar  210  PHE210     -0.0042
    144  CD2      -36.4700  -48.5860   16.8460 C.ar  210  PHE210     -0.0042
    145  CE1      -34.3720  -48.1120   15.0860 C.ar  210  PHE210     -0.0003
    146  CE2      -35.9330  -47.3080   16.7190 C.ar  210  PHE210     -0.0003
    147  CZ       -34.8980  -47.0780   15.8150 C.ar  210  PHE210     -0.0000
@<TRIPOS>BOND
     1    55    53   am
     2    54    53    2
     3    53    52    1
     4   101   100    2
     5   100    99    1
     6    52    51    1
     7    88    87   ar
     8    80    78    1
     9    89    87   ar
    10    99    98    1
    11    99   102    1
    12    84    83    2
    13    75    78    1
    14    75    74    1
    15    75    76    1
    16    87    86    1
    17    78    79    1
    18    93    92    2
    19    98    92   am
    20    92    91    1
    21    47    48    1
    22    73    71    1
    23    51    48    1
    24    81    76   am
    25    81    82    1
    26    91    90    1
    27    91    94    1
    28    83    90   am
    29    83    82    1
    30    86    85    1
    31    72    71    1
    32    76    77    2
    33   102   103    1
    34    48    49    1
    35    82    85    1
    36    71    68    1
    37    50    49    2
    38    94    95    1
    39    49    56   am
    40   103   104    1
    41   117   115    1
    42    95    96    1
    43    46    45    2
    44   112   113    1
    45   112   111    1
    46   114   115    2
    47   114   113    1
    48    68    67    1
    49    68    69    1
    50    97    96    1
    51   105   104   ar
    52   104   106   ar
    53   115   116    1
    54   107   108    1
    55   136   133    1
    56    67    58   am
    57    56    57    1
    58   111   108    1
    59   135   134    2
    60    45    44    1
    61    42    39    1
    62    26    25    2
    63    58    59    2
    64    58    57    1
    65    69    70    2
    66    25    24    1
    67   108   109    1
    68    57    60    1
    69   134   133    1
    70    43    44    1
    71    43    40   am
    72   110   109    2
    73   133   132    1
    74    39    40    1
    75    39    38    1
    76    40    41    2
    77    24    23    1
    78    24    27    1
    79    29    27    1
    80    34    33    2
    81    60    61    1
    82     5     2    1
    83    38    33   am
    84    27    28    1
    85    33    32    1
    86     2     1    1
    87     2     3    1
    88    61    62   ar
    89    61    63   ar
    90   127   126    2
    91    62    64   ar
    92   131   129   ar
    93    63    65   ar
    94    31    32    1
    95    32    35    1
    96    28    30    1
    97   126   125    1
    98    64    66   ar
    99     3     4    2
   100     3     6   am
   101    65    66   ar
   102   129   130   ar
   103   129   128    1
   104    21    20   ar
   105    22    20   ar
   106    20    19    1
   107   118   119    1
   108     6     7    1
   109    35    37    1
   110    35    36    1
   111   125   124    1
   112   125   128    1
   113   124   120   am
   114   123   122    1
   115    19    18    1
   116    18    15    1
   117    11    12    1
   118    11    10    1
   119   119   120    1
   120   119   122    1
   121     7    10    1
   122     7     8    1
   123   120   121    2
   124   145   143   ar
   125   145   147   ar
   126   143   142   ar
   127    12    13    1
   128     9     8    2
   129    17    16    2
   130   147   146   ar
   131    15    16    1
   132    15    14    1
   133   142   141    1
   134   142   144   ar
   135   141   138    1
   136   146   144   ar
   137   138   137    1
   138   138   139    1
   139   139   140    2
