@<TRIPOS>MOLECULE
tmp/4fftA00.pdb
 123 120 0 0 0
SMALL
GASTEIGER

@<TRIPOS>ATOM
      1  N         -5.5330  -54.8240  -27.2000 N.3    21  ALA21      -0.1245
      2  CA        -5.1500  -53.5000  -26.7080 C.3    21  ALA21       0.1562
      3  C         -5.5190  -53.2630  -25.2370 C.2    21  ALA21       0.2260
      4  O         -4.8960  -52.4490  -24.5640 O.2    21  ALA21      -0.2867
      5  CB        -5.7330  -52.4020  -27.5890 C.3    21  ALA21       0.0290
      6  N         -5.2750  -55.1870  -22.6190 N.3    23  LEU23      -0.1245
      7  CA        -4.4550  -55.8760  -21.6270 C.3    23  LEU23       0.1561
      8  C         -5.3240  -56.6910  -20.6690 C.2    23  LEU23       0.2260
      9  O         -5.1780  -56.6230  -19.4460 O.2    23  LEU23      -0.2867
     10  CB        -3.5830  -54.8670  -20.8680 C.3    23  LEU23       0.0270
     11  CG        -2.6480  -54.0040  -21.7420 C.3    23  LEU23       0.0019
     12  CD1       -1.8080  -53.0270  -20.8950 C.3    23  LEU23       0.0001
     13  CD2       -1.7280  -54.8720  -22.5800 C.3    23  LEU23       0.0001
     14  N         -0.3750  -52.1500  -12.9090 N.3   118  LYS118     -0.1231
     15  CA         0.5560  -52.2860  -14.0170 C.3   118  LYS118      0.1693
     16  C          2.0000  -52.2180  -13.5360 C.2   118  LYS118      0.2592
     17  O          2.3040  -51.4910  -12.5870 O.2   118  LYS118     -0.2718
     18  CB         0.3140  -51.1620  -15.0360 C.3   118  LYS118      0.0285
     19  CG         0.8350  -51.4630  -16.4520 C.3   118  LYS118      0.0035
     20  CD         0.4460  -50.3500  -17.4200 C.3   118  LYS118      0.0206
     21  CE         0.8320  -50.6960  -18.8690 C.3   118  LYS118      0.1093
     22  NZ         2.3020  -50.9220  -19.0340 N.3   118  LYS118     -0.1314
     23  N          2.8810  -52.9470  -14.2220 N.am  119  GLU119     -0.1966
     24  CA         4.3130  -52.8880  -13.9590 C.3   119  GLU119      0.1733
     25  C          4.8100  -51.4460  -14.0080 C.2   119  GLU119      0.2616
     26  O          4.3860  -50.6620  -14.8510 O.2   119  GLU119     -0.2715
     27  CB         5.0970  -53.7750  -14.9420 C.3   119  GLU119      0.0429
     28  CG         5.1900  -53.2670  -16.4010 C.3   119  GLU119      0.1163
     29  CD         3.9290  -53.5190  -17.2250 C.2   119  GLU119      0.3649
     30  OE1        3.0550  -54.3170  -16.8200 O.co2 119  GLU119     -0.2457
     31  OE2        3.8100  -52.9080  -18.2920 O.co2 119  GLU119     -0.2457
     32  N          5.6760  -51.0910  -13.0670 N.am  120  GLY120     -0.1955
     33  CA         6.2500  -49.7650  -13.0360 C.3   120  GLY120      0.1869
     34  C          5.4170  -48.8190  -12.1970 C.2   120  GLY120      0.2309
     35  O          5.8110  -47.6740  -11.9680 O.2   120  GLY120     -0.2863
     36  N          3.8540  -47.0950   -8.9210 N.3   122  SER122     -0.1217
     37  CA         4.3600  -46.7350   -7.6120 C.3   122  SER122      0.1889
     38  C          3.5280  -45.5710   -7.0950 C.2   122  SER122      0.2288
     39  O          2.5440  -45.1680   -7.7320 O.2   122  SER122     -0.2866
     40  CB         5.8210  -46.3140   -7.7110 C.3   122  SER122      0.2089
     41  OG         5.8990  -44.9880   -8.2090 O.3   122  SER122     -0.2183
     42  N          4.4500  -42.6590   -7.2340 N.3   124  TRP124     -0.1227
     43  CA         4.7530  -41.5120   -8.0940 C.3   124  TRP124      0.1737
     44  C          3.9670  -41.5470   -9.3950 C.2   124  TRP124      0.2595
     45  O          3.6240  -40.5020   -9.9460 O.2   124  TRP124     -0.2718
     46  CB         6.2520  -41.4500   -8.4050 C.3   124  TRP124      0.0564
     47  CG         7.0870  -41.4750   -7.1780 C.ar  124  TRP124      0.0003
     48  CD1        7.8640  -42.5030   -6.7370 C.ar  124  TRP124      0.0946
     49  CD2        7.2030  -40.4350   -6.2030 C.ar  124  TRP124      0.0152
     50  NE1        8.4730  -42.1630   -5.5540 N.ar  124  TRP124     -0.2442
     51  CE2        8.0820  -40.8970   -5.2040 C.ar  124  TRP124      0.0810
     52  CE3        6.6610  -39.1510   -6.0840 C.ar  124  TRP124      0.0012
     53  CZ2        8.4300  -40.1180   -4.0970 C.ar  124  TRP124      0.0191
     54  CZ3        7.0090  -38.3780   -4.9870 C.ar  124  TRP124      0.0001
     55  CH2        7.8820  -38.8650   -4.0080 C.ar  124  TRP124      0.0015
     56  N          3.7120  -42.7550   -9.8870 N.am  125  TRP125     -0.1976
     57  CA         2.9130  -42.9730  -11.0900 C.3   125  TRP125      0.1640
     58  C          2.3430  -44.3830  -11.0430 C.2   125  TRP125      0.2290
     59  O          3.0830  -45.3350  -10.7890 O.2   125  TRP125     -0.2864
     60  CB         3.7630  -42.8240  -12.3540 C.3   125  TRP125      0.0576
     61  CG         3.0040  -43.2050  -13.6010 C.ar  125  TRP125      0.0006
     62  CD1        2.3200  -42.3580  -14.4400 C.ar  125  TRP125      0.0946
     63  CD2        2.8340  -44.5280  -14.1440 C.ar  125  TRP125      0.0152
     64  NE1        1.7410  -43.0740  -15.4600 N.ar  125  TRP125     -0.2442
     65  CE2        2.0430  -44.4050  -15.3050 C.ar  125  TRP125      0.0810
     66  CE3        3.2750  -45.8010  -13.7600 C.ar  125  TRP125      0.0012
     67  CZ2        1.6870  -45.5060  -16.0870 C.ar  125  TRP125      0.0191
     68  CZ3        2.9180  -46.8960  -14.5370 C.ar  125  TRP125      0.0001
     69  CH2        2.1310  -46.7430  -15.6880 C.ar  125  TRP125      0.0015
     70  N         -5.9340  -45.6120  -23.1830 N.3   155  ASP155     -0.1225
     71  CA        -6.2590  -46.5250  -24.2860 C.3   155  ASP155      0.1805
     72  C         -6.0310  -47.9870  -23.9250 C.2   155  ASP155      0.2597
     73  O         -6.6820  -48.8820  -24.4710 O.2   155  ASP155     -0.2718
     74  CB        -5.4190  -46.1950  -25.5260 C.3   155  ASP155      0.1424
     75  CG        -5.8620  -44.9170  -26.2000 C.2   155  ASP155      0.3668
     76  OD1       -7.0920  -44.6920  -26.2840 O.co2 155  ASP155     -0.2456
     77  OD2       -4.9840  -44.1350  -26.6330 O.co2 155  ASP155     -0.2456
     78  N         -5.0790  -48.2360  -23.0340 N.am  156  TYR156     -0.1976
     79  CA        -4.7810  -49.6060  -22.6430 C.3   156  TYR156      0.1639
     80  C         -5.5990  -50.0970  -21.4310 C.2   156  TYR156      0.2290
     81  O         -5.1890  -51.0320  -20.7420 O.2   156  TYR156     -0.2864
     82  CB        -3.2760  -49.8090  -22.4380 C.3   156  TYR156      0.0560
     83  CG        -2.6000  -48.7830  -21.5540 C.ar  156  TYR156     -0.0198
     84  CD1       -2.4910  -48.9870  -20.1830 C.ar  156  TYR156     -0.0009
     85  CD2       -2.0490  -47.6240  -22.0900 C.ar  156  TYR156     -0.0009
     86  CE1       -1.8710  -48.0550  -19.3550 C.ar  156  TYR156      0.0417
     87  CE2       -1.4170  -46.6840  -21.2710 C.ar  156  TYR156      0.0417
     88  CZ        -1.3380  -46.9120  -19.9020 C.ar  156  TYR156      0.1957
     89  OH        -0.7230  -46.0000  -19.0730 O.3   156  TYR156     -0.2866
     90  N         -0.6740  -39.6730  -10.8230 N.3   162  THR162     -0.1203
     91  CA         0.6850  -39.4590  -10.3340 C.3   162  THR162      0.1994
     92  C          0.6430  -38.9090   -8.9230 C.2   162  THR162      0.2617
     93  O         -0.3550  -38.2920   -8.5250 O.2   162  THR162     -0.2717
     94  CB         1.4430  -38.4320  -11.2020 C.3   162  THR162      0.1784
     95  OG1        0.6650  -37.2300  -11.2980 O.3   162  THR162     -0.2211
     96  CG2        1.7060  -38.9910  -12.6030 C.3   162  THR162      0.0376
     97  N          1.7350  -39.1050   -8.1820 N.am  163  ASN163     -0.1974
     98  CA         1.8200  -38.6510   -6.7880 C.3   163  ASN163      0.1688
     99  C          0.5630  -38.9850   -6.0060 C.2   163  ASN163      0.2292
    100  O         -0.1070  -38.0940   -5.4740 O.2   163  ASN163     -0.2864
    101  CB         2.0800  -37.1470   -6.7190 C.3   163  ASN163      0.1181
    102  CG         3.2940  -36.7370   -7.5150 C.2   163  ASN163      0.2629
    103  OD1        4.2400  -37.5110   -7.6680 O.2   163  ASN163     -0.2716
    104  ND2        3.2720  -35.5200   -8.0410 N.am  163  ASN163     -0.0877
    105  N          7.4820  -47.9150   -3.2170 N.3   190  GLU190     -0.1231
    106  CA         8.2270  -46.6560   -3.2130 C.3   190  GLU190      0.1699
    107  C          8.9060  -46.4150   -4.5560 C.2   190  GLU190      0.2593
    108  O          9.2490  -45.2800   -4.9020 O.2   190  GLU190     -0.2718
    109  CB         9.2760  -46.6680   -2.1000 C.3   190  GLU190      0.0402
    110  CG         9.8490  -45.3040   -1.7700 C.3   190  GLU190      0.1161
    111  CD         8.8820  -44.4450   -0.9770 C.2   190  GLU190      0.3649
    112  OE1        7.9570  -45.0080   -0.3510 O.co2 190  GLU190     -0.2457
    113  OE2        9.0480  -43.2070   -0.9840 O.co2 190  GLU190     -0.2457
    114  N          9.1120  -47.5000   -5.2960 N.am  191  SER191     -0.1938
    115  CA         9.6690  -47.4330   -6.6420 C.3   191  SER191      0.2055
    116  C          8.8650  -48.3560   -7.5490 C.2   191  SER191      0.2643
    117  O          8.2510  -49.3180   -7.0720 O.2   191  SER191     -0.2714
    118  CB        11.1370  -47.8520   -6.6260 C.3   191  SER191      0.2130
    119  OG        11.2920  -49.0790   -5.9310 O.3   191  SER191     -0.2179
    120  N          8.8660  -48.0490   -8.8440 N.am  192  GLY192     -0.1954
    121  CA         8.1710  -48.8340   -9.8550 C.3   192  GLY192      0.1869
    122  C          8.2770  -50.3420   -9.6850 C.2   192  GLY192      0.2309
    123  O          9.3770  -50.8920   -9.6210 O.2   192  GLY192     -0.2863
@<TRIPOS>BOND
     1     5     2    1
     2     1     2    1
     3     2     3    1
     4    77    75   ar
     5    76    75   ar
     6    75    74    1
     7    74    71    1
     8     3     4    2
     9    73    72    2
    10    71    72    1
    11    71    70    1
    12    72    78   am
    13    78    79    1
    14    79    82    1
    15    79    80    1
    16     6     7    1
    17    13    11    1
    18    82    83    1
    19    85    83   ar
    20    85    87   ar
    21    11    12    1
    22    11    10    1
    23     7    10    1
    24     7     8    1
    25    83    84   ar
    26    80    81    2
    27    87    88   ar
    28     8     9    2
    29    84    86   ar
    30    88    86   ar
    31    88    89    1
    32    22    21    1
    33    21    20    1
    34    31    29   ar
    35    20    19    1
    36    29    30   ar
    37    29    28    1
    38    19    18    1
    39    28    27    1
    40    67    69   ar
    41    67    65   ar
    42    69    68   ar
    43    64    65   ar
    44    64    62   ar
    45    65    63   ar
    46    18    15    1
    47    27    24    1
    48    26    25    2
    49    68    66   ar
    50    62    61   ar
    51    23    24    1
    52    23    16   am
    53    63    66   ar
    54    63    61   ar
    55    15    16    1
    56    15    14    1
    57    25    24    1
    58    25    32   am
    59    61    60    1
    60    16    17    2
    61    32    33    1
    62    33    34    1
    63    96    94    1
    64    60    57    1
    65    34    35    2
    66    95    94    1
    67    94    91    1
    68    57    58    1
    69    57    56    1
    70    58    59    2
    71    90    91    1
    72    91    92    1
    73    45    44    2
    74    56    44   am
    75   121   122    1
    76   121   120    1
    77   122   123    2
    78    44    43    1
    79    92    93    2
    80    92    97   am
    81    36    37    1
    82   120   116   am
    83    46    43    1
    84    46    47    1
    85    41    40    1
    86    97    98    1
    87    43    42    1
    88   104   102   am
    89    39    38    2
    90    40    37    1
    91   103   102    2
    92    37    38    1
    93   116   117    2
    94   116   115    1
    95   102   101    1
    96    47    48   ar
    97    47    49   ar
    98    98   101    1
    99    98    99    1
   100    48    50   ar
   101   115   118    1
   102   115   114    1
   103   118   119    1
   104    49    52   ar
   105    49    51   ar
   106    52    54   ar
   107    99   100    2
   108    50    51   ar
   109   114   107   am
   110    51    53   ar
   111    54    55   ar
   112   108   107    2
   113   107   106    1
   114    53    55   ar
   115   105   106    1
   116   106   109    1
   117   109   110    1
   118   110   111    1
   119   113   111   ar
   120   111   112   ar
