@<TRIPOS>MOLECULE
tmp/4ffwB00.pdb
 195 193 0 0 0
SMALL
GASTEIGER

@<TRIPOS>ATOM
      1  N         47.9000  -23.3280   22.2040 N.3    85  ARG85      -0.1231
      2  CA        49.3590  -23.4940   22.2420 C.3    85  ARG85       0.1694
      3  C         50.0320  -23.0630   20.9360 C.2    85  ARG85       0.2592
      4  O         51.0320  -22.3440   20.9630 O.2    85  ARG85      -0.2718
      5  CB        49.7380  -24.9400   22.6080 C.3    85  ARG85       0.0321
      6  CG        51.2260  -25.2630   22.4890 C.3    85  ARG85       0.0489
      7  CD        51.8170  -25.8300   23.7720 C.3    85  ARG85       0.2205
      8  NE        51.2110  -27.0910   24.1920 N.pl3  85  ARG85      -0.0865
      9  CZ        51.5530  -27.7570   25.2940 C.cat  85  ARG85       0.5346
     10  NH1       52.5030  -27.2920   26.1010 N.pl3  85  ARG85       0.1354
     11  NH2       50.9450  -28.8970   25.5980 N.pl3  85  ARG85       0.1354
     12  N         49.4800  -23.5000   19.8070 N.am   86  HIS86      -0.1976
     13  CA        50.0290  -23.1700   18.4880 C.3    86  HIS86       0.1656
     14  C         49.1420  -22.2160   17.6870 C.2    86  HIS86       0.2291
     15  O         49.6450  -21.4180   16.8950 O.2    86  HIS86      -0.2864
     16  CB        50.2620  -24.4500   17.6840 C.3    86  HIS86       0.0771
     17  CG        51.1480  -25.4380   18.3740 C.ar   86  HIS86       0.0820
     18  ND1       50.6660  -26.5930   18.9510 N.ar   86  HIS86      -0.2267
     19  CD2       52.4840  -25.4360   18.5940 C.ar   86  HIS86       0.1154
     20  CE1       51.6690  -27.2650   19.4890 C.ar   86  HIS86       0.1986
     21  NE2       52.7820  -26.5840   19.2870 N.ar   86  HIS86      -0.2212
     22  N         46.6340  -29.9960   19.3030 N.3   165  GLU165     -0.1231
     23  CA        47.3890  -30.3120   20.5090 C.3   165  GLU165      0.1699
     24  C         48.1370  -31.6400   20.4090 C.2   165  GLU165      0.2592
     25  O         49.3490  -31.6920   20.6240 O.2   165  GLU165     -0.2718
     26  CB        46.4400  -30.3420   21.7130 C.3   165  GLU165      0.0402
     27  CG        47.1140  -30.5230   23.0670 C.3   165  GLU165      0.1161
     28  CD        48.0460  -29.3830   23.4370 C.2   165  GLU165      0.3649
     29  OE1       47.9050  -28.2700   22.8840 O.co2 165  GLU165     -0.2457
     30  OE2       48.9250  -29.6030   24.2950 O.co2 165  GLU165     -0.2457
     31  N         47.4110  -32.7040   20.0770 N.am  166  GLU166     -0.1966
     32  CA        47.9220  -34.0680   20.2260 C.3   166  GLU166      0.1733
     33  C         48.4140  -34.7260   18.9350 C.2   166  GLU166      0.2616
     34  O         49.2270  -35.6510   18.9920 O.2   166  GLU166     -0.2715
     35  CB        46.8490  -34.9560   20.8660 C.3   166  GLU166      0.0429
     36  CG        46.2560  -34.4100   22.1600 C.3   166  GLU166      0.1163
     37  CD        47.2770  -34.2520   23.2770 C.2   166  GLU166      0.3649
     38  OE1       48.3930  -34.8070   23.1680 O.co2 166  GLU166     -0.2457
     39  OE2       46.9560  -33.5790   24.2800 O.co2 166  GLU166     -0.2457
     40  N         47.9280  -34.2630   17.7830 N.am  167  ILE167     -0.1963
     41  CA        48.2750  -34.8810   16.5000 C.3   167  ILE167      0.1727
     42  C         49.4190  -34.1430   15.7990 C.2   167  ILE167      0.2616
     43  O         50.5650  -34.5890   15.8500 O.2   167  ILE167     -0.2715
     44  CB        47.0430  -34.9870   15.5670 C.3   167  ILE167      0.0290
     45  CG1       45.9230  -35.7980   16.2350 C.3   167  ILE167      0.0022
     46  CG2       47.4290  -35.5990   14.2260 C.3   167  ILE167      0.0023
     47  CD1       46.2660  -37.2460   16.5190 C.3   167  ILE167      0.0001
     48  N         49.1160  -33.0150   15.1620 N.am  168  PHE168     -0.1960
     49  CA        50.0960  -32.3280   14.3200 C.3   168  PHE168      0.1771
     50  C         51.0410  -31.4140   15.1000 C.2   168  PHE168      0.2620
     51  O         52.1130  -31.0660   14.6010 O.2   168  PHE168     -0.2715
     52  CB        49.3890  -31.5360   13.2170 C.3   168  PHE168      0.0574
     53  CG        48.6400  -32.4010   12.2430 C.ar  168  PHE168     -0.0200
     54  CD1       49.3250  -33.2020   11.3380 C.ar  168  PHE168     -0.0042
     55  CD2       47.2500  -32.4200   12.2300 C.ar  168  PHE168     -0.0042
     56  CE1       48.6420  -34.0050   10.4400 C.ar  168  PHE168     -0.0003
     57  CE2       46.5610  -33.2210   11.3340 C.ar  168  PHE168     -0.0003
     58  CZ        47.2580  -34.0140   10.4370 C.ar  168  PHE168     -0.0000
     59  N         50.6540  -31.0300   16.3150 N.am  169  GLY169     -0.1954
     60  CA        51.4420  -30.0860   17.1100 C.3   169  GLY169      0.1869
     61  C         51.5280  -28.7250   16.4410 C.2   169  GLY169      0.2309
     62  O         52.5320  -28.0220   16.5640 O.2   169  GLY169     -0.2863
     63  N         54.9130  -40.6930   19.9200 N.3   317  PHE317     -0.1227
     64  CA        53.5950  -40.0810   20.0950 C.3   317  PHE317      0.1736
     65  C         52.7180  -40.2690   18.8540 C.2   317  PHE317      0.2595
     66  O         51.4960  -40.1480   18.9310 O.2   317  PHE317     -0.2718
     67  CB        53.7430  -38.5970   20.4280 C.3   317  PHE317      0.0547
     68  CG        54.4270  -38.3430   21.7420 C.ar  317  PHE317     -0.0202
     69  CD1       53.6940  -38.2630   22.9170 C.ar  317  PHE317     -0.0042
     70  CD2       55.8060  -38.1940   21.8050 C.ar  317  PHE317     -0.0042
     71  CE1       54.3210  -38.0340   24.1300 C.ar  317  PHE317     -0.0003
     72  CE2       56.4400  -37.9620   23.0140 C.ar  317  PHE317     -0.0003
     73  CZ        55.6960  -37.8820   24.1790 C.ar  317  PHE317     -0.0000
     74  N         53.3460  -40.5660   17.7180 N.am  318  ARG318     -0.1980
     75  CA        52.6350  -40.8330   16.4700 C.3   318  ARG318      0.1597
     76  C         53.5840  -41.4830   15.4660 C.2   318  ARG318      0.2287
     77  O         54.8030  -41.3410   15.5910 O.2   318  ARG318     -0.2864
     78  CB        52.0730  -39.5340   15.8840 C.3   318  ARG318      0.0334
     79  CG        53.0940  -38.4080   15.7620 C.3   318  ARG318      0.0492
     80  CD        52.4350  -37.0680   15.4700 C.3   318  ARG318      0.2205
     81  NE        52.4810  -36.7060   14.0520 N.pl3 318  ARG318     -0.0865
     82  CZ        53.4430  -35.9860   13.4710 C.cat 318  ARG318      0.5346
     83  NH1       54.4820  -35.5290   14.1670 N.pl3 318  ARG318      0.1354
     84  NH2       53.3670  -35.7180   12.1710 N.pl3 318  ARG318      0.1354
     85  N         58.3950  -35.1310   35.6620 N.3   510  TYR510     -0.1241
     86  CA        57.3560  -35.1160   34.6400 C.3   510  TYR510      0.1605
     87  C         56.9190  -36.5620   34.4170 C.2   510  TYR510      0.2264
     88  O         55.7640  -36.9060   34.6500 O.2   510  TYR510     -0.2867
     89  CB        57.8620  -34.4750   33.3450 C.3   510  TYR510      0.0534
     90  CG        56.7740  -34.2440   32.3190 C.ar  510  TYR510     -0.0201
     91  CD1       55.8700  -33.1950   32.4600 C.ar  510  TYR510     -0.0009
     92  CD2       56.6460  -35.0740   31.2080 C.ar  510  TYR510     -0.0009
     93  CE1       54.8700  -32.9800   31.5250 C.ar  510  TYR510      0.0417
     94  CE2       55.6500  -34.8670   30.2670 C.ar  510  TYR510      0.0417
     95  CZ        54.7650  -33.8190   30.4300 C.ar  510  TYR510      0.1957
     96  OH        53.7730  -33.6070   29.4980 O.3   510  TYR510     -0.2866
     97  N         51.8630  -30.1860   35.0860 N.3   593  SER593     -0.1202
     98  CA        51.0960  -30.9290   34.0820 C.3   593  SER593      0.2020
     99  C         50.9810  -32.4230   34.4340 C.2   593  SER593      0.2618
    100  O         50.3340  -32.7670   35.4250 O.2   593  SER593     -0.2717
    101  CB        51.7000  -30.7000   32.6900 C.3   593  SER593      0.2103
    102  OG        50.8660  -31.2340   31.6820 O.3   593  SER593     -0.2182
    103  N         51.5880  -33.3030   33.6350 N.am  594  TYR594     -0.1975
    104  CA        51.6640  -34.7290   33.9690 C.3   594  TYR594      0.1639
    105  C         52.4790  -34.9190   35.2480 C.2   594  TYR594      0.2290
    106  O         52.1790  -35.7960   36.0550 O.2   594  TYR594     -0.2864
    107  CB        52.2920  -35.5320   32.8180 C.3   594  TYR594      0.0560
    108  CG        52.0670  -37.0310   32.9110 C.ar  594  TYR594     -0.0198
    109  CD1       52.8120  -37.8180   33.7860 C.ar  594  TYR594     -0.0009
    110  CD2       51.1180  -37.6630   32.1130 C.ar  594  TYR594     -0.0009
    111  CE1       52.6090  -39.1850   33.8730 C.ar  594  TYR594      0.0417
    112  CE2       50.9110  -39.0320   32.1910 C.ar  594  TYR594      0.0417
    113  CZ        51.6570  -39.7860   33.0730 C.ar  594  TYR594      0.1957
    114  OH        51.4530  -41.1420   33.1530 O.3   594  TYR594     -0.2866
    115  N         46.7030  -33.4290   36.2820 N.3   619  VAL619     -0.1245
    116  CA        45.6210  -34.3170   35.8750 C.3   619  VAL619      0.1561
    117  C         45.1910  -35.0630   37.1360 C.2   619  VAL619      0.2260
    118  O         46.0370  -35.4740   37.9280 O.2   619  VAL619     -0.2867
    119  CB        46.0780  -35.3170   34.7900 C.3   619  VAL619      0.0252
    120  CG1       44.9830  -36.3330   34.4820 C.3   619  VAL619      0.0019
    121  CG2       46.4900  -34.5760   33.5260 C.3   619  VAL619      0.0019
    122  N         41.8510  -39.7260   34.4980 N.3   622  TRP622     -0.1241
    123  CA        42.0760  -39.7140   33.0570 C.3   622  TRP622      0.1605
    124  C         40.8070  -39.5480   32.2200 C.2   622  TRP622      0.2264
    125  O         40.8920  -39.2410   31.0290 O.2   622  TRP622     -0.2867
    126  CB        42.8740  -40.9510   32.6420 C.3   622  TRP622      0.0550
    127  CG        44.2940  -40.8440   33.0820 C.ar  622  TRP622      0.0003
    128  CD1       44.9050  -41.5480   34.0750 C.ar  622  TRP622      0.0946
    129  CD2       45.2730  -39.9380   32.5700 C.ar  622  TRP622      0.0152
    130  NE1       46.2140  -41.1490   34.2010 N.ar  622  TRP622     -0.2442
    131  CE2       46.4640  -40.1590   33.2870 C.ar  622  TRP622      0.0810
    132  CE3       45.2610  -38.9660   31.5640 C.ar  622  TRP622      0.0012
    133  CZ2       47.6340  -39.4440   33.0300 C.ar  622  TRP622      0.0191
    134  CZ3       46.4210  -38.2560   31.3100 C.ar  622  TRP622      0.0001
    135  CH2       47.5910  -38.4980   32.0390 C.ar  622  TRP622      0.0015
    136  N         40.7170  -35.8710   30.9110 N.3   625  TYR625     -0.1241
    137  CA        41.6550  -35.4410   29.8670 C.3   625  TYR625      0.1605
    138  C         41.1970  -35.9100   28.4830 C.2   625  TYR625      0.2264
    139  O         40.3640  -36.8090   28.3750 O.2   625  TYR625     -0.2867
    140  CB        43.0710  -35.9440   30.1720 C.3   625  TYR625      0.0534
    141  CG        44.1440  -35.1530   29.4610 C.ar  625  TYR625     -0.0201
    142  CD1       44.4040  -33.8320   29.8110 C.ar  625  TYR625     -0.0009
    143  CD2       44.8840  -35.7130   28.4240 C.ar  625  TYR625     -0.0009
    144  CE1       45.3760  -33.0960   29.1570 C.ar  625  TYR625      0.0417
    145  CE2       45.8580  -34.9840   27.7650 C.ar  625  TYR625      0.0417
    146  CZ        46.1010  -33.6790   28.1340 C.ar  625  TYR625      0.1957
    147  OH        47.0710  -32.9610   27.4710 O.3   625  TYR625     -0.2866
    148  N         45.2700  -38.3190   23.4500 N.3   629  TYR629     -0.1241
    149  CA        46.4080  -38.5740   24.3360 C.3   629  TYR629      0.1605
    150  C         46.1220  -39.7170   25.3050 C.2   629  TYR629      0.2264
    151  O         46.9420  -40.6200   25.4630 O.2   629  TYR629     -0.2867
    152  CB        46.7590  -37.3120   25.1280 C.3   629  TYR629      0.0534
    153  CG        47.9900  -37.4370   26.0080 C.ar  629  TYR629     -0.0201
    154  CD1       47.9000  -37.9520   27.3000 C.ar  629  TYR629     -0.0009
    155  CD2       49.2400  -37.0240   25.5550 C.ar  629  TYR629     -0.0009
    156  CE1       49.0200  -38.0620   28.1080 C.ar  629  TYR629      0.0417
    157  CE2       50.3650  -37.1290   26.3570 C.ar  629  TYR629      0.0417
    158  CZ        50.2490  -37.6480   27.6320 C.ar  629  TYR629      0.1957
    159  OH        51.3640  -37.7550   28.4290 O.3   629  TYR629     -0.2866
    160  N         45.6720  -43.2950   23.8050 N.3   632  ARG632     -0.1245
    161  CA        46.9160  -43.7960   23.2290 C.3   632  ARG632      0.1563
    162  C         47.6240  -44.7330   24.2050 C.2   632  ARG632      0.2260
    163  O         48.1820  -45.7510   23.7970 O.2   632  ARG632     -0.2867
    164  CB        47.8320  -42.6260   22.8640 C.3   632  ARG632      0.0307
    165  CG        49.1080  -43.0110   22.1300 C.3   632  ARG632      0.0489
    166  CD        49.5840  -41.8710   21.2400 C.3   632  ARG632      0.2205
    167  NE        49.7420  -40.6180   21.9800 N.pl3 632  ARG632     -0.0865
    168  CZ        49.6440  -39.3950   21.4560 C.cat 632  ARG632      0.5346
    169  NH1       49.3710  -39.2150   20.1660 N.pl3 632  ARG632      0.1354
    170  NH2       49.8110  -38.3330   22.2370 N.pl3 632  ARG632      0.1354
    171  N         43.8220  -26.9290   28.4010 N.3   673  ASN673     -0.1225
    172  CA        44.4330  -28.2540   28.3060 C.3   673  ASN673      0.1785
    173  C         43.9730  -29.1330   29.4760 C.2   673  ASN673      0.2597
    174  O         43.1190  -29.9990   29.2940 O.2   673  ASN673     -0.2718
    175  CB        45.9700  -28.1440   28.2430 C.3   673  ASN673      0.1169
    176  CG        46.6270  -29.2720   27.4500 C.2   673  ASN673      0.2627
    177  OD1       47.6800  -29.0650   26.8480 O.2   673  ASN673     -0.2716
    178  ND2       46.0260  -30.4590   27.4430 N.am  673  ASN673     -0.0877
    179  N         44.5280  -28.9040   30.6650 N.am  674  VAL674     -0.1980
    180  CA        44.1280  -29.6300   31.8660 C.3   674  VAL674      0.1595
    181  C         43.1770  -28.7180   32.6310 C.2   674  VAL674      0.2287
    182  O         43.6080  -27.8280   33.3600 O.2   674  VAL674     -0.2864
    183  CB        45.3400  -30.0010   32.7470 C.3   674  VAL674      0.0276
    184  CG1       44.9070  -30.8690   33.9200 C.3   674  VAL674      0.0022
    185  CG2       46.3940  -30.7270   31.9290 C.3   674  VAL674      0.0022
    186  N         47.2210  -23.2020   30.8140 N.3   703  HIS703     -0.1241
    187  CA        48.0720  -24.3050   31.2600 C.3   703  HIS703      0.1621
    188  C         49.5180  -23.8890   31.5250 C.2   703  HIS703      0.2264
    189  O         50.1480  -24.3810   32.4610 O.2   703  HIS703     -0.2867
    190  CB        48.0530  -25.4250   30.2210 C.3   703  HIS703      0.0745
    191  CG        48.6420  -26.7080   30.7090 C.ar  703  HIS703      0.0817
    192  ND1       48.1550  -27.3800   31.8100 N.ar  703  HIS703     -0.2268
    193  CD2       49.6730  -27.4480   30.2410 C.ar  703  HIS703      0.1154
    194  CE1       48.8660  -28.4760   32.0030 C.ar  703  HIS703      0.1986
    195  NE2       49.7930  -28.5410   31.0630 N.ar  703  HIS703     -0.2212
@<TRIPOS>BOND
     1    58    56   ar
     2    58    57   ar
     3    56    54   ar
     4    57    55   ar
     5    54    53   ar
     6    84    82    1
     7    55    53   ar
     8    53    52    1
     9    52    49    1
    10    82    81    2
    11    82    83    1
    12    81    80    1
    13    46    44    1
    14    49    50    1
    15    49    48    1
    16    51    50    2
    17    50    59   am
    18    48    42   am
    19    76    77    2
    20    76    75    1
    21    80    79    1
    22    44    45    1
    23    44    41    1
    24    79    78    1
    25    42    43    2
    26    42    41    1
    27    78    75    1
    28    45    47    1
    29    59    60    1
    30    61    62    2
    31    61    60    1
    32    75    74    1
    33    41    40    1
    34    15    14    2
    35    16    17    1
    36    16    13    1
    37    14    13    1
    38    74    65   am
    39    40    33   am
    40    17    19   ar
    41    17    18   ar
    42    13    12    1
    43    19    21   ar
    44    65    66    2
    45    65    64    1
    46    33    34    2
    47    33    32    1
    48    18    20   ar
    49    21    20   ar
    50    22    23    1
    51    12     3   am
    52    63    64    1
    53    31    32    1
    54    31    24   am
    55    64    67    1
    56   169   168    1
    57    32    35    1
    58    24    23    1
    59    24    25    2
    60    67    68    1
    61    23    26    1
    62    35    36    1
    63     3     4    2
    64     3     2    1
    65   166   167    1
    66   166   165    1
    67   168   167    2
    68   168   170    1
    69    26    27    1
    70    68    70   ar
    71    68    69   ar
    72    70    72   ar
    73   165   164    1
    74    36    37    1
    75     1     2    1
    76     2     5    1
    77     6     5    1
    78     6     7    1
    79   164   161    1
    80    29    28   ar
    81    69    71   ar
    82    72    73   ar
    83    27    28    1
    84    38    37   ar
    85   161   160    1
    86   161   162    1
    87    37    39   ar
    88    28    30   ar
    89   148   149    1
    90     7     8    1
    91   163   162    2
    92    71    73   ar
    93     8     9    2
    94   149   152    1
    95   149   150    1
    96   152   153    1
    97     9    11    1
    98     9    10    1
    99   150   151    2
   100   155   153   ar
   101   155   157   ar
   102   153   154   ar
   103   157   158   ar
   104   177   176    2
   105   154   156   ar
   106   178   176   am
   107   176   175    1
   108   147   146    1
   109   158   156   ar
   110   158   159    1
   111   145   146   ar
   112   145   143   ar
   113   146   144   ar
   114   175   172    1
   115   172   171    1
   116   172   173    1
   117   139   138    2
   118   143   141   ar
   119   138   137    1
   120   144   142   ar
   121   174   173    2
   122   141   142   ar
   123   141   140    1
   124   173   179   am
   125    96    95    1
   126   137   140    1
   127   137   136    1
   128   190   191    1
   129   190   187    1
   130   193   191   ar
   131   193   195   ar
   132    94    95   ar
   133    94    92   ar
   134    95    93   ar
   135   179   180    1
   136   191   192   ar
   137   186   187    1
   138   125   124    2
   139   195   194   ar
   140    92    90   ar
   141   187   188    1
   142   134   132   ar
   143   134   135   ar
   144    93    91   ar
   145   188   189    2
   146   132   129   ar
   147   102   101    1
   148   192   194   ar
   149   180   181    1
   150   180   183    1
   151   185   183    1
   152   135   133   ar
   153   110   112   ar
   154   110   108   ar
   155   112   113   ar
   156   124   123    1
   157    90    91   ar
   158    90    89    1
   159   129   127   ar
   160   129   131   ar
   161   181   182    2
   162   126   123    1
   163   126   127    1
   164   101    98    1
   165   183   184    1
   166   107   108    1
   167   107   104    1
   168   108   109   ar
   169   133   131   ar
   170   123   122    1
   171   113   114    1
   172   113   111   ar
   173   127   128   ar
   174   131   130   ar
   175    89    86    1
   176   121   119    1
   177   103   104    1
   178   103    99   am
   179   109   111   ar
   180   104   105    1
   181   128   130   ar
   182    98    99    1
   183    98    97    1
   184    87    86    1
   185    87    88    2
   186    99   100    2
   187   120   119    1
   188    86    85    1
   189   119   116    1
   190   105   106    2
   191   116   115    1
   192   116   117    1
   193   117   118    2
