@<TRIPOS>MOLECULE
tmp/4fg2A00.pdb
 101 99 0 0 0
SMALL
GASTEIGER

@<TRIPOS>ATOM
      1  N        -17.1800  -16.4160   22.9880 N.3    23  LEU23      -0.1245
      2  CA       -18.2510  -16.0630   22.0470 C.3    23  LEU23       0.1561
      3  C        -18.5550  -17.2100   21.0710 C.2    23  LEU23       0.2260
      4  O        -18.6350  -17.0190   19.8520 O.2    23  LEU23      -0.2867
      5  CB       -17.8970  -14.7730   21.2980 C.3    23  LEU23       0.0270
      6  CG       -17.5410  -13.5600   22.1660 C.3    23  LEU23       0.0019
      7  CD1      -16.9600  -12.4250   21.3330 C.3    23  LEU23       0.0001
      8  CD2      -18.7710  -13.0770   22.9480 C.3    23  LEU23       0.0001
      9  N        -17.0900  -10.5830   13.3760 N.3   118  LYS118     -0.1231
     10  CA       -17.6470   -9.7950   14.4690 C.3   118  LYS118      0.1693
     11  C        -18.3060   -8.5170   13.9440 C.2   118  LYS118      0.2592
     12  O        -17.8180   -7.8990   12.9980 O.2   118  LYS118     -0.2718
     13  CB       -16.5500   -9.4550   15.4950 C.3   118  LYS118      0.0285
     14  CG       -17.0310   -9.4250   16.9390 C.3   118  LYS118      0.0035
     15  CD       -15.8730   -9.1710   17.9070 C.3   118  LYS118      0.0206
     16  CE       -16.3080   -9.2920   19.3700 C.3   118  LYS118      0.1093
     17  NZ       -17.4360   -8.3790   19.6860 N.3   118  LYS118     -0.1314
     18  N        -19.4180   -8.1340   14.5640 N.am  119  GLU119     -0.1966
     19  CA       -20.0640   -6.8610   14.2760 C.3   119  GLU119      0.1733
     20  C        -19.0450   -5.7230   14.4510 C.2   119  GLU119      0.2616
     21  O        -18.1320   -5.8290   15.2640 O.2   119  GLU119     -0.2715
     22  CB       -21.3070   -6.6660   15.1780 C.3   119  GLU119      0.0429
     23  CG       -21.0350   -6.3010   16.6730 C.3   119  GLU119      0.1163
     24  CD       -20.4990   -7.4640   17.5280 C.2   119  GLU119      0.3649
     25  OE1      -20.5850   -8.6450   17.1240 O.co2 119  GLU119     -0.2457
     26  OE2      -19.9800   -7.1910   18.6240 O.co2 119  GLU119     -0.2457
     27  N        -19.1640   -4.6700   13.6480 N.am  120  GLY120     -0.1955
     28  CA       -18.1960   -3.5870   13.6740 C.3   120  GLY120      0.1869
     29  C        -16.9710   -3.8130   12.7930 C.2   120  GLY120      0.2309
     30  O        -16.0990   -2.9390   12.6840 O.2   120  GLY120     -0.2863
     31  N        -14.7190   -4.2220    9.4250 N.3   122  SER122     -0.1217
     32  CA       -14.6390   -3.6210    8.1140 C.3   122  SER122      0.1889
     33  C        -13.2290   -3.7920    7.5790 C.2   122  SER122      0.2288
     34  O        -12.3710   -4.4130    8.2170 O.2   122  SER122     -0.2866
     35  CB       -14.9520   -2.1310    8.1990 C.3   122  SER122      0.2089
     36  OG       -13.9060   -1.4640    8.8800 O.3   122  SER122     -0.2183
     37  N        -11.2140   -1.5340    7.6890 N.3   124  TRP124     -0.1227
     38  CA       -10.3430   -0.7350    8.5560 C.3   124  TRP124      0.1737
     39  C         -9.9070   -1.5120    9.7820 C.2   124  TRP124      0.2595
     40  O         -8.7980   -1.3260   10.2840 O.2   124  TRP124     -0.2718
     41  CB       -11.0110    0.5790    8.9790 C.3   124  TRP124      0.0564
     42  CG       -11.4130    1.4250    7.8250 C.ar  124  TRP124      0.0003
     43  CD1      -12.6810    1.7740    7.4670 C.ar  124  TRP124      0.0946
     44  CD2      -10.5440    2.0150    6.8530 C.ar  124  TRP124      0.0152
     45  NE1      -12.6550    2.5550    6.3360 N.ar  124  TRP124     -0.2442
     46  CE2      -11.3540    2.7140    5.9380 C.ar  124  TRP124      0.0810
     47  CE3       -9.1580    2.0180    6.6680 C.ar  124  TRP124      0.0012
     48  CZ2      -10.8240    3.4130    4.8560 C.ar  124  TRP124      0.0191
     49  CZ3       -8.6330    2.7120    5.5920 C.ar  124  TRP124      0.0001
     50  CH2       -9.4630    3.4000    4.7010 C.ar  124  TRP124      0.0015
     51  N        -10.7950   -2.3800   10.2530 N.am  125  TRP125     -0.1976
     52  CA       -10.5540   -3.1950   11.4370 C.3   125  TRP125      0.1640
     53  C        -11.5350   -4.3500   11.4030 C.2   125  TRP125      0.2290
     54  O        -12.7380   -4.1480   11.1860 O.2   125  TRP125     -0.2864
     55  CB       -10.7520   -2.3750   12.7210 C.3   125  TRP125      0.0576
     56  CG       -10.6820   -3.1960   13.9970 C.ar  125  TRP125      0.0006
     57  CD1       -9.6030   -3.3320   14.8240 C.ar  125  TRP125      0.0946
     58  CD2      -11.7360   -3.9880   14.5780 C.ar  125  TRP125      0.0152
     59  NE1       -9.9190   -4.1600   15.8800 N.ar  125  TRP125     -0.2442
     60  CE2      -11.2170   -4.5820   15.7470 C.ar  125  TRP125      0.0810
     61  CE3      -13.0650   -4.2570   14.2170 C.ar  125  TRP125      0.0012
     62  CZ2      -11.9840   -5.4170   16.5720 C.ar  125  TRP125      0.0191
     63  CZ3      -13.8260   -5.0950   15.0350 C.ar  125  TRP125      0.0001
     64  CH2      -13.2800   -5.6680   16.1950 C.ar  125  TRP125      0.0015
     65  N        -11.2610  -12.7950   23.3120 N.3   156  TYR156     -0.1241
     66  CA       -12.6050  -13.2030   22.9160 C.3   156  TYR156      0.1605
     67  C        -12.6360  -14.1220   21.6860 C.2   156  TYR156      0.2264
     68  O        -13.6380  -14.1700   20.9610 O.2   156  TYR156     -0.2867
     69  CB       -13.5300  -11.9880   22.7400 C.3   156  TYR156      0.0534
     70  CG       -12.9740  -10.8790   21.8650 C.ar  156  TYR156     -0.0201
     71  CD1      -13.2710  -10.8280   20.5110 C.ar  156  TYR156     -0.0009
     72  CD2      -12.1650   -9.8750   22.3980 C.ar  156  TYR156     -0.0009
     73  CE1      -12.7770   -9.8170   19.7040 C.ar  156  TYR156      0.0417
     74  CE2      -11.6620   -8.8560   21.5930 C.ar  156  TYR156      0.0417
     75  CZ       -11.9710   -8.8370   20.2470 C.ar  156  TYR156      0.1957
     76  OH       -11.4820   -7.8360   19.4240 O.3   156  TYR156     -0.2866
     77  N         -5.9830   -4.6520   11.2100 N.3   162  THR162     -0.1203
     78  CA        -6.4090   -3.3630   10.6830 C.3   162  THR162      0.1994
     79  C         -5.9340   -3.2130    9.2470 C.2   162  THR162      0.2617
     80  O         -4.9450   -3.8370    8.8540 O.2   162  THR162     -0.2717
     81  CB        -5.8310   -2.1920   11.5060 C.3   162  THR162      0.1784
     82  OG1       -4.4030   -2.3010   11.5630 O.3   162  THR162     -0.2211
     83  CG2       -6.3950   -2.1980   12.9210 C.3   162  THR162      0.0376
     84  N         -6.6370   -2.3790    8.4800 N.am  163  ASN163     -0.1974
     85  CA        -6.2950   -2.1080    7.0850 C.3   163  ASN163      0.1688
     86  C         -6.0350   -3.3780    6.2950 C.2   163  ASN163      0.2292
     87  O         -4.9790   -3.5410    5.6890 O.2   163  ASN163     -0.2864
     88  CB        -5.0860   -1.1790    6.9940 C.3   163  ASN163      0.1181
     89  CG        -5.3950    0.2100    7.4870 C.2   163  ASN163      0.2629
     90  OD1       -6.5380    0.6620    7.4110 O.2   163  ASN163     -0.2716
     91  ND2       -4.3830    0.8970    8.0060 N.am  163  ASN163     -0.0877
     92  N        -18.0030   -0.0440    5.5490 N.3   191  SER191     -0.1202
     93  CA       -18.4270    0.4320    6.8580 C.3   191  SER191      0.2020
     94  C        -18.6280   -0.7500    7.8050 C.2   191  SER191      0.2619
     95  O        -18.9700   -1.8490    7.3660 O.2   191  SER191     -0.2717
     96  CB       -19.7250    1.2280    6.7290 C.3   191  SER191      0.2103
     97  OG       -19.6600    2.1160    5.6270 O.3   191  SER191     -0.2182
     98  N        -18.4160   -0.5170    9.0980 N.am  192  GLY192     -0.1956
     99  CA       -18.5470   -1.5520   10.1130 C.3   192  GLY192      0.1869
    100  C        -19.8640   -2.3110   10.0770 C.2   192  GLY192      0.2309
    101  O        -20.9380   -1.6990   10.1380 O.2   192  GLY192     -0.2863
@<TRIPOS>BOND
     1    50    48   ar
     2    50    49   ar
     3    48    46   ar
     4    92    93    1
     5    49    47   ar
     6    97    96    1
     7    87    86    2
     8    46    45   ar
     9    46    44   ar
    10    86    85    1
    11    45    43   ar
    12    47    44   ar
    13    96    93    1
    14    44    42   ar
    15    93    94    1
    16    88    85    1
    17    88    89    1
    18    85    84    1
    19    95    94    2
    20    90    89    2
    21    43    42   ar
    22    89    91   am
    23    33    32    1
    24    33    34    2
    25    37    38    1
    26    94    98   am
    27    42    41    1
    28    32    35    1
    29    32    31    1
    30    35    36    1
    31    84    79   am
    32    38    41    1
    33    38    39    1
    34    80    79    2
    35    98    99    1
    36    79    78    1
    37    39    51   am
    38    39    40    2
    39   100    99    1
    40   100   101    2
    41    51    52    1
    42    78    77    1
    43    78    81    1
    44    54    53    2
    45    53    52    1
    46    52    55    1
    47    81    82    1
    48    81    83    1
    49    30    29    2
    50    55    56    1
    51    29    28    1
    52    12    11    2
    53     9    10    1
    54    27    28    1
    55    27    20   am
    56    11    10    1
    57    11    18   am
    58    56    58   ar
    59    56    57   ar
    60    61    58   ar
    61    61    63   ar
    62    19    20    1
    63    19    18    1
    64    19    22    1
    65    20    21    2
    66    10    13    1
    67    58    60   ar
    68    57    59   ar
    69    63    64   ar
    70    22    23    1
    71    13    14    1
    72    60    59   ar
    73    60    62   ar
    74    64    62   ar
    75    23    24    1
    76    14    15    1
    77    25    24   ar
    78    24    26   ar
    79    15    16    1
    80    16    17    1
    81    76    75    1
    82    73    75   ar
    83    73    71   ar
    84     4     3    2
    85    75    74   ar
    86    71    70   ar
    87    68    67    2
    88     3     2    1
    89     5     2    1
    90     5     6    1
    91     7     6    1
    92    74    72   ar
    93    67    66    1
    94    70    72   ar
    95    70    69    1
    96     2     1    1
    97     6     8    1
    98    69    66    1
    99    66    65    1
