@<TRIPOS>MOLECULE
tmp/4fg4A00.pdb
 91 90 0 0 0
SMALL
GASTEIGER

@<TRIPOS>ATOM
      1  N        -15.2540   16.8710  -14.4860 N.3    23  LEU23      -0.1245
      2  CA       -16.6260   16.4110  -14.2880 C.3    23  LEU23       0.1561
      3  C        -17.5040   17.4960  -13.6670 C.2    23  LEU23       0.2260
      4  O        -18.2280   17.2640  -12.6990 O.2    23  LEU23      -0.2867
      5  CB       -16.6480   15.1430  -13.4280 C.3    23  LEU23       0.0270
      6  CG       -16.0630   13.8820  -14.0580 C.3    23  LEU23       0.0019
      7  CD1      -16.3920   12.6550  -13.2380 C.3    23  LEU23       0.0001
      8  CD2      -16.5960   13.7370  -15.4800 C.3    23  LEU23       0.0001
      9  N        -20.3860   10.3630   -6.6000 N.3   118  LYS118     -0.1231
     10  CA       -20.2240    9.6920   -7.8930 C.3   118  LYS118      0.1693
     11  C        -20.9990    8.3630   -8.0240 C.2   118  LYS118      0.2592
     12  O        -21.1880    7.6460   -7.0320 O.2   118  LYS118     -0.2718
     13  CB       -18.7300    9.4670   -8.1800 C.3   118  LYS118      0.0285
     14  CG       -18.3920    9.4400   -9.6540 C.3   118  LYS118      0.0035
     15  CD       -16.8980    9.4400   -9.8960 C.3   118  LYS118      0.0206
     16  CE       -16.5670    9.4300  -11.3950 C.3   118  LYS118      0.1093
     17  NZ       -17.1110    8.2440  -12.1290 N.3   118  LYS118     -0.1314
     18  N        -21.4440    8.0430   -9.2460 N.am  119  GLU119     -0.1966
     19  CA       -22.0460    6.7310   -9.5200 C.3   119  GLU119      0.1733
     20  C        -21.0720    5.6080   -9.1330 C.2   119  GLU119      0.2616
     21  O        -19.8730    5.6700   -9.4340 O.2   119  GLU119     -0.2715
     22  CB       -22.5140    6.5960  -10.9900 C.3   119  GLU119      0.0429
     23  CG       -21.4100    6.6070  -12.0500 C.3   119  GLU119      0.1163
     24  CD       -20.7950    7.9980  -12.2880 C.2   119  GLU119      0.3649
     25  OE1      -21.3690    9.0170  -11.8260 O.co2 119  GLU119     -0.2457
     26  OE2      -19.7310    8.0750  -12.9440 O.co2 119  GLU119     -0.2457
     27  N        -21.5820    4.6020   -8.4300 N.am  120  GLY120     -0.1955
     28  CA       -20.7430    3.5100   -7.9630 C.3   120  GLY120      0.1869
     29  C        -20.3250    3.6200   -6.5090 C.2   120  GLY120      0.2309
     30  O        -19.7160    2.7030   -5.9690 O.2   120  GLY120     -0.2863
     31  N        -20.4380    3.8020   -2.3690 N.3   122  SER122     -0.1217
     32  CA       -21.0180    2.9950   -1.2970 C.3   122  SER122      0.1889
     33  C        -20.1920    3.2060   -0.0350 C.2   122  SER122      0.2288
     34  O        -19.2590    4.0200   -0.0320 O.2   122  SER122     -0.2866
     35  CB       -21.0600    1.4960   -1.6690 C.3   122  SER122      0.2089
     36  OG       -19.7680    0.9480   -1.9190 O.3   122  SER122     -0.2183
     37  N        -18.3620    1.0030    0.9080 N.3   124  TRP124     -0.1227
     38  CA       -17.1750    0.2520    0.5210 C.3   124  TRP124      0.1737
     39  C        -16.1380    1.1050   -0.2000 C.2   124  TRP124      0.2595
     40  O        -14.9500    1.0230    0.0930 O.2   124  TRP124     -0.2718
     41  CB       -17.5710   -0.9350   -0.3630 C.3   124  TRP124      0.0564
     42  CG       -18.2750   -2.0280    0.3830 C.ar  124  TRP124      0.0003
     43  CD1      -19.5310   -2.5160    0.1410 C.ar  124  TRP124      0.0946
     44  CD2      -17.7650   -2.7620    1.5020 C.ar  124  TRP124      0.0152
     45  NE1      -19.8290   -3.5150    1.0410 N.ar  124  TRP124     -0.2442
     46  CE2      -18.7610   -3.6820    1.8870 C.ar  124  TRP124      0.0810
     47  CE3      -16.5600   -2.7360    2.2120 C.ar  124  TRP124      0.0012
     48  CZ2      -18.5880   -4.5620    2.9500 C.ar  124  TRP124      0.0191
     49  CZ3      -16.3940   -3.6040    3.2650 C.ar  124  TRP124      0.0001
     50  CH2      -17.4020   -4.5060    3.6260 C.ar  124  TRP124      0.0015
     51  N        -16.6060    1.8940   -1.1620 N.am  125  TRP125     -0.1976
     52  CA       -15.7750    2.8020   -1.9370 C.3   125  TRP125      0.1640
     53  C        -16.6360    3.9860   -2.3570 C.2   125  TRP125      0.2290
     54  O        -17.8280    3.8230   -2.6680 O.2   125  TRP125     -0.2864
     55  CB       -15.2200    2.1000   -3.1830 C.3   125  TRP125      0.0576
     56  CG       -14.4890    3.0130   -4.1710 C.ar  125  TRP125      0.0006
     57  CD1      -13.1380    3.2030   -4.2670 C.ar  125  TRP125      0.0946
     58  CD2      -15.0790    3.8330   -5.1930 C.ar  125  TRP125      0.0152
     59  NE1      -12.8510    4.0860   -5.2770 N.ar  125  TRP125     -0.2442
     60  CE2      -14.0220    4.4910   -5.8620 C.ar  125  TRP125      0.0810
     61  CE3      -16.3980    4.0800   -5.6030 C.ar  125  TRP125      0.0012
     62  CZ2      -14.2390    5.3760   -6.9270 C.ar  125  TRP125      0.0191
     63  CZ3      -16.6170    4.9660   -6.6610 C.ar  125  TRP125      0.0001
     64  CH2      -15.5390    5.6030   -7.3080 C.ar  125  TRP125      0.0015
     65  N        -10.2090   13.0920  -11.8700 N.3   156  TYR156     -0.1241
     66  CA       -11.5990   13.4260  -12.1530 C.3   156  TYR156      0.1605
     67  C        -12.2710   14.2510  -11.0240 C.2   156  TYR156      0.2264
     68  O        -13.5160   14.3100  -10.9300 O.2   156  TYR156     -0.2867
     69  CB       -12.4170   12.1730  -12.5200 C.3   156  TYR156      0.0534
     70  CG       -12.3670   11.0400  -11.5210 C.ar  156  TYR156     -0.0201
     71  CD1      -13.2580   10.9870  -10.4510 C.ar  156  TYR156     -0.0009
     72  CD2      -11.4370   10.0130  -11.6540 C.ar  156  TYR156     -0.0009
     73  CE1      -13.2100    9.9350   -9.5280 C.ar  156  TYR156      0.0417
     74  CE2      -11.3770    8.9620  -10.7480 C.ar  156  TYR156      0.0417
     75  CZ       -12.2630    8.9250   -9.6890 C.ar  156  TYR156      0.1957
     76  OH       -12.2030    7.8770   -8.7980 O.3   156  TYR156     -0.2866
     77  N        -12.0810    4.2670    0.8230 N.3   162  THR162     -0.1203
     78  CA       -12.6700    2.9410    0.9700 C.3   162  THR162      0.1994
     79  C        -13.0530    2.6820    2.4120 C.2   162  THR162      0.2617
     80  O        -12.5220    3.3190    3.3200 O.2   162  THR162     -0.2717
     81  CB       -11.6910    1.8260    0.5280 C.3   162  THR162      0.1784
     82  OG1      -10.4160    2.0330    1.1530 O.3   162  THR162     -0.2211
     83  CG2      -11.5210    1.8240   -0.9870 C.3   162  THR162      0.0376
     84  N        -13.9670    1.7370    2.6100 N.am  163  ASN163     -0.1974
     85  CA       -14.4180    1.3440    3.9430 C.3   163  ASN163      0.1688
     86  C        -14.7450    2.5490    4.8080 C.2   163  ASN163      0.2292
     87  O        -14.2080    2.6970    5.9050 O.2   163  ASN163     -0.2864
     88  CB       -13.3640    0.4860    4.6530 C.3   163  ASN163      0.1181
     89  CG       -13.0340   -0.7860    3.8980 C.2   163  ASN163      0.2629
     90  OD1      -13.8290   -1.2750    3.0880 O.2   163  ASN163     -0.2716
     91  ND2      -11.8520   -1.3340    4.1660 N.am  163  ASN163     -0.0877
@<TRIPOS>BOND
     1     8     6    1
     2     1     2    1
     3     2     3    1
     4     2     5    1
     5     6     5    1
     6     6     7    1
     7     3     4    2
     8    26    24   ar
     9    69    66    1
    10    69    70    1
    11    24    23    1
    12    24    25   ar
    13    66    65    1
    14    66    67    1
    15    17    16    1
    16    23    22    1
    17    72    70   ar
    18    72    74   ar
    19    70    71   ar
    20    16    15    1
    21    67    68    2
    22    22    19    1
    23    74    75   ar
    24    71    73   ar
    25    15    14    1
    26    75    73   ar
    27    75    76    1
    28    14    13    1
    29    19    18    1
    30    19    20    1
    31    21    20    2
    32    18    11   am
    33    20    27   am
    34    27    28    1
    35    13    10    1
    36    11    10    1
    37    11    12    2
    38    28    29    1
    39    10     9    1
    40    64    62   ar
    41    64    63   ar
    42    62    60   ar
    43    63    61   ar
    44    29    30    2
    45    60    59   ar
    46    60    58   ar
    47    61    58   ar
    48    59    57   ar
    49    58    56   ar
    50    57    56   ar
    51    56    55    1
    52    55    52    1
    53    54    53    2
    54    31    32    1
    55    53    52    1
    56    52    51    1
    57    36    35    1
    58    35    32    1
    59    32    33    1
    60    51    39   am
    61    83    81    1
    62    41    42    1
    63    41    38    1
    64    39    40    2
    65    39    38    1
    66    33    34    2
    67    43    42   ar
    68    43    45   ar
    69    42    44   ar
    70    38    37    1
    71    81    78    1
    72    81    82    1
    73    77    78    1
    74    78    79    1
    75    45    46   ar
    76    44    46   ar
    77    44    47   ar
    78    46    48   ar
    79    47    49   ar
    80    79    84   am
    81    79    80    2
    82    84    85    1
    83    48    50   ar
    84    90    89    2
    85    49    50   ar
    86    89    91   am
    87    89    88    1
    88    85    88    1
    89    85    86    1
    90    86    87    2
