@<TRIPOS>MOLECULE
tmp/4fg9B00.pdb
 186 173 0 0 0
SMALL
GASTEIGER

@<TRIPOS>ATOM
      1  N         40.5510   38.6380   96.7380 N.3    13  LEU13      -0.1231
      2  CA        39.2860   37.9020   96.8130 C.3    13  LEU13       0.1693
      3  C         38.6070   37.7430   95.4540 C.2    13  LEU13       0.2593
      4  O         37.8470   36.7980   95.2420 O.2    13  LEU13      -0.2718
      5  CB        38.3330   38.5550   97.8170 C.3    13  LEU13       0.0284
      6  CG        38.7700   38.6200   99.2920 C.3    13  LEU13       0.0019
      7  CD1       37.7370   39.3580  100.1020 C.3    13  LEU13       0.0001
      8  CD2       39.0330   37.2420   99.8950 C.3    13  LEU13       0.0001
      9  N         38.8870   38.6700   94.5410 N.am   14  GLY14      -0.1942
     10  CA        38.2750   38.6530   93.2210 C.3    14  GLY14       0.2014
     11  C         38.8170   39.7320   92.3080 C.2    14  GLY14       0.2640
     12  O         39.3480   40.7490   92.7610 O.2    14  GLY14      -0.2714
     13  N         38.6700   39.5010   91.0120 N.am   15  THR15      -0.1936
     14  CA        39.1930   40.3940   89.9910 C.3    15  THR15       0.2028
     15  C         38.0600   40.8850   89.1050 C.2    15  THR15       0.2643
     16  O         37.1030   40.1530   88.8430 O.2    15  THR15      -0.2714
     17  CB        40.3000   39.6810   89.1660 C.3    15  THR15       0.1808
     18  OG1       41.5780   39.9540   89.7550 O.3    15  THR15      -0.2208
     19  CG2       40.3140   40.1220   87.7090 C.3    15  THR15       0.0379
     20  N         38.1660   42.1360   88.6670 N.am   16  GLY16      -0.1939
     21  CA        37.2360   42.7010   87.7000 C.3    16  GLY16       0.2014
     22  C         37.9340   43.1590   86.4350 C.2    16  GLY16       0.2639
     23  O         39.0960   42.8180   86.1940 O.2    16  GLY16      -0.2714
     24  N         37.2130   43.9320   85.6280 N.am   17  ALA17      -0.1963
     25  CA        37.7480   44.4910   84.3920 C.3    17  ALA17       0.1728
     26  C         38.8590   45.5000   84.6780 C.2    17  ALA17       0.2616
     27  O         39.9590   45.3950   84.1290 O.2    17  ALA17      -0.2715
     28  CB        36.6380   45.1390   83.5940 C.3    17  ALA17       0.0334
     29  N         38.5630   46.4650   85.5480 N.am   18  PHE18      -0.1960
     30  CA        39.5050   47.5250   85.9000 C.3    18  PHE18       0.1771
     31  C         39.6670   47.6450   87.4160 C.2    18  PHE18       0.2620
     32  O         40.0290   48.7100   87.9250 O.2    18  PHE18      -0.2715
     33  CB        39.0420   48.8670   85.3240 C.3    18  PHE18       0.0574
     34  CG        38.5410   48.7830   83.9100 C.ar   18  PHE18      -0.0200
     35  CD1       39.4310   48.7090   82.8480 C.ar   18  PHE18      -0.0042
     36  CD2       37.1750   48.7750   83.6450 C.ar   18  PHE18      -0.0042
     37  CE1       38.9700   48.6290   81.5410 C.ar   18  PHE18      -0.0003
     38  CE2       36.7010   48.6950   82.3420 C.ar   18  PHE18      -0.0003
     39  CZ        37.5980   48.6220   81.2870 C.ar   18  PHE18      -0.0000
     40  N         39.4070   46.5490   88.1260 N.am   19  SER19      -0.1950
     41  CA        39.4410   46.5440   89.5850 C.3    19  SER19       0.1924
     42  C         39.8020   45.1800   90.1670 C.2    19  SER19       0.2314
     43  O         39.8380   44.1740   89.4580 O.2    19  SER19      -0.2863
     44  CB        38.0910   46.9960   90.1490 C.3    19  SER19       0.2116
     45  OG        37.0440   46.1540   89.6940 O.3    19  SER19      -0.2180
     46  N         39.1810   43.0760   94.2400 N.3    21  VAL21      -0.1245
     47  CA        38.6920   43.1090   95.6110 C.3    21  VAL21       0.1561
     48  C         39.6540   42.3080   96.4770 C.2    21  VAL21       0.2260
     49  O         40.0490   41.2030   96.1080 O.2    21  VAL21      -0.2867
     50  CB        37.2550   42.5480   95.7070 C.3    21  VAL21       0.0252
     51  CG1       36.7400   42.6090   97.1390 C.3    21  VAL21       0.0019
     52  CG2       36.3220   43.3050   94.7480 C.3    21  VAL21       0.0019
     53  N         36.6200   44.1540  102.9370 N.3    34  ALA34      -0.1245
     54  CA        36.9570   43.8920  101.5450 C.3    34  ALA34       0.1562
     55  C         37.1270   45.2110  100.8050 C.2    34  ALA34       0.2260
     56  O         36.1800   45.9940  100.6940 O.2    34  ALA34      -0.2867
     57  CB        35.8800   43.0320  100.8860 C.3    34  ALA34       0.0290
     58  N         37.7990   47.2350   97.3830 N.3    36  LYS36      -0.1245
     59  CA        37.8440   47.2960   95.9270 C.3    36  LYS36       0.1561
     60  C         38.8280   48.3890   95.5210 C.2    36  LYS36       0.2260
     61  O         38.6090   49.5710   95.7870 O.2    36  LYS36      -0.2867
     62  CB        36.4530   47.5670   95.3410 C.3    36  LYS36       0.0271
     63  CG        36.3540   47.4240   93.8210 C.3    36  LYS36       0.0035
     64  CD        34.9300   47.6850   93.3390 C.3    36  LYS36       0.0206
     65  CE        34.8430   47.6470   91.8130 C.3    36  LYS36       0.1093
     66  NZ        33.4470   47.8310   91.3150 N.3    36  LYS36      -0.1314
     67  N         25.8690   44.9560   99.8740 N.3    54  VAL54      -0.1245
     68  CA        27.1750   45.1200  100.5010 C.3    54  VAL54       0.1561
     69  C         27.3750   46.5990  100.8150 C.2    54  VAL54       0.2260
     70  O         27.3240   47.4510   99.9210 O.2    54  VAL54      -0.2867
     71  CB        28.3200   44.5670   99.6000 C.3    54  VAL54       0.0252
     72  CG1       29.6890   45.0610  100.0670 C.3    54  VAL54       0.0019
     73  CG2       28.2910   43.0420   99.5880 C.3    54  VAL54       0.0019
     74  N         34.6520   48.0960  101.6040 N.3    70  MET70      -0.1230
     75  CA        33.3510   47.4400  101.6710 C.3    70  MET70       0.1702
     76  C         33.2480   46.4890  102.8490 C.2    70  MET70       0.2592
     77  O         34.2570   46.0000  103.3580 O.2    70  MET70      -0.2718
     78  CB        33.0790   46.6530  100.3860 C.3    70  MET70       0.0401
     79  CG        33.1150   47.4710   99.1100 C.3    70  MET70       0.0596
     80  SD        32.9560   46.4120   97.6660 S.3    70  MET70      -0.1393
     81  CE        34.5010   45.5050   97.7030 C.3    70  MET70       0.0692
     82  N         32.0080   46.2360  103.2660 N.am   71  GLN71      -0.1966
     83  CA        31.6890   45.1340  104.1620 C.3    71  GLN71       0.1733
     84  C         32.1370   43.8220  103.5040 C.2    71  GLN71       0.2616
     85  O         31.8700   43.5910  102.3260 O.2    71  GLN71      -0.2715
     86  CB        30.1800   45.1180  104.4230 C.3    71  GLN71       0.0408
     87  CG        29.6360   43.8610  105.0890 C.3    71  GLN71       0.0908
     88  CD        28.1120   43.8340  105.1490 C.2    71  GLN71       0.2608
     89  OE1       27.4310   44.5440  104.4030 O.2    71  GLN71      -0.2717
     90  NE2       27.5730   43.0020  106.0360 N.am   71  GLN71      -0.0878
     91  N         32.8260   42.9840  104.2700 N.am   72  LEU72      -0.1963
     92  CA        33.3080   41.6970  103.7900 C.3    72  LEU72       0.1728
     93  C         32.1930   40.6550  103.6390 C.2    72  LEU72       0.2616
     94  O         31.3220   40.5190  104.5060 O.2    72  LEU72      -0.2715
     95  CB        34.4200   41.1700  104.7080 C.3    72  LEU72       0.0311
     96  CG        34.9980   39.7780  104.4350 C.3    72  LEU72       0.0022
     97  CD1       35.8360   39.7570  103.1620 C.3    72  LEU72       0.0001
     98  CD2       35.8130   39.2680  105.6320 C.3    72  LEU72       0.0001
     99  N         32.2520   39.9280  102.5260 N.am   73  VAL73      -0.1977
    100  CA        31.3390   38.8320  102.2000 C.3    73  VAL73       0.1596
    101  C         32.1580   37.5560  101.9830 C.2    73  VAL73       0.2287
    102  O         33.2330   37.6070  101.3910 O.2    73  VAL73      -0.2864
    103  CB        30.4790   39.2010  100.9520 C.3    73  VAL73       0.0276
    104  CG1       30.4210   38.0750   99.9330 C.3    73  VAL73       0.0022
    105  CG2       29.0890   39.6430  101.3780 C.3    73  VAL73       0.0022
    106  N         30.0950   33.4800   94.9080 N.3    77  GLU77      -0.1245
    107  CA        29.1660   33.9350   93.8680 C.3    77  GLU77       0.1567
    108  C         27.9150   33.0710   93.7590 C.2    77  GLU77       0.2260
    109  O         27.8940   31.9230   94.2170 O.2    77  GLU77      -0.2867
    110  CB        29.8820   33.9930   92.5170 C.3    77  GLU77       0.0388
    111  CG        30.7260   35.2400   92.3280 C.3    77  GLU77       0.1160
    112  CD        31.8260   35.0660   91.3030 C.2    77  GLU77       0.3649
    113  OE1       32.6420   34.1370   91.4520 O.co2  77  GLU77      -0.2457
    114  OE2       31.8850   35.8690   90.3540 O.co2  77  GLU77      -0.2457
    115  N         23.9460   46.9460   85.1640 N.3   116  ASP116     -0.1239
    116  CA        24.8910   45.8660   84.9060 C.3   116  ASP116      0.1674
    117  C         24.7380   44.7450   85.9340 C.2   116  ASP116      0.2266
    118  O         25.7250   44.1570   86.3820 O.2   116  ASP116     -0.2867
    119  CB        26.3230   46.4050   84.9130 C.3   116  ASP116      0.1410
    120  CG        27.3600   45.3160   84.7040 C.2   116  ASP116      0.3668
    121  OD1       27.0450   44.3040   84.0410 O.co2 116  ASP116     -0.2456
    122  OD2       28.4930   45.4700   85.2100 O.co2 116  ASP116     -0.2456
    123  N         24.4230   41.3060   87.3560 N.3   118  LYS118     -0.1245
    124  CA        24.8420   39.9840   86.9080 C.3   118  LYS118      0.1561
    125  C         25.1680   39.0800   88.0950 C.2   118  LYS118      0.2260
    126  O         25.3490   39.5610   89.2130 O.2   118  LYS118     -0.2867
    127  CB        26.0460   40.0940   85.9630 C.3   118  LYS118      0.0271
    128  CG        27.0310   41.1860   86.3350 C.3   118  LYS118      0.0035
    129  CD        28.0590   41.4050   85.2370 C.3   118  LYS118      0.0206
    130  CE        29.4530   41.5850   85.8220 C.3   118  LYS118      0.1093
    131  NZ        29.7100   42.9870   86.2450 N.3   118  LYS118     -0.1314
    132  N         27.8250   37.5090   88.9430 N.3   120  GLU120     -0.1231
    133  CA        29.1200   37.8190   89.5480 C.3   120  GLU120      0.1699
    134  C         28.9460   38.8470   90.6620 C.2   120  GLU120      0.2592
    135  O         29.6840   38.8330   91.6450 O.2   120  GLU120     -0.2718
    136  CB        30.1080   38.3730   88.5100 C.3   120  GLU120      0.0402
    137  CG        30.4270   37.4580   87.3350 C.3   120  GLU120      0.1161
    138  CD        29.5430   37.7260   86.1310 C.2   120  GLU120      0.3649
    139  OE1       30.0800   38.1470   85.0830 O.co2 120  GLU120     -0.2457
    140  OE2       28.3110   37.5340   86.2360 O.co2 120  GLU120     -0.2457
    141  N         27.9710   39.7380   90.4840 N.am  121  ASN121     -0.1974
    142  CA        27.6570   40.7830   91.4600 C.3   121  ASN121      0.1688
    143  C         26.7250   40.3080   92.5690 C.2   121  ASN121      0.2292
    144  O         26.3820   41.0770   93.4670 O.2   121  ASN121     -0.2864
    145  CB        27.0610   42.0090   90.7570 C.3   121  ASN121      0.1181
    146  CG        27.9980   42.6010   89.7160 C.2   121  ASN121      0.2629
    147  OD1       27.5810   42.9420   88.6070 O.2   121  ASN121     -0.2716
    148  ND2       29.2760   42.7200   90.0680 N.am  121  ASN121     -0.0877
    149  N         26.4930   37.8580   95.5960 N.3   123  LEU123     -0.1245
    150  CA        27.3770   37.1280   96.4910 C.3   123  LEU123      0.1561
    151  C         26.6570   36.7090   97.7670 C.2   123  LEU123      0.2260
    152  O         25.8130   37.4390   98.2720 O.2   123  LEU123     -0.2867
    153  CB        28.5860   37.9980   96.8490 C.3   123  LEU123      0.0270
    154  CG        29.4580   38.5260   95.7020 C.3   123  LEU123      0.0019
    155  CD1       30.4610   39.5500   96.2270 C.3   123  LEU123      0.0001
    156  CD2       30.1800   37.3900   94.9860 C.3   123  LEU123      0.0001
    157  N         26.7650   43.3390   95.5380 N.3   136  SER136     -0.1202
    158  CA        28.0820   43.8710   95.8810 C.3   136  SER136      0.2020
    159  C         28.4540   45.0870   95.0480 C.2   136  SER136      0.2618
    160  O         28.9880   46.0640   95.5750 O.2   136  SER136     -0.2717
    161  CB        29.1560   42.7910   95.7300 C.3   136  SER136      0.2103
    162  OG        29.2410   42.3500   94.3860 O.3   136  SER136     -0.2182
    163  N         28.1730   45.0200   93.7500 N.am  137  ASP137     -0.1973
    164  CA        28.5200   46.0980   92.8350 C.3   137  ASP137      0.1709
    165  C         27.5600   47.2720   92.9810 C.2   137  ASP137      0.2293
    166  O         26.3720   47.0830   93.2480 O.2   137  ASP137     -0.2864
    167  CB        28.5220   45.5860   91.4000 C.3   137  ASP137      0.1436
    168  CG        29.5430   46.2840   90.5360 C.2   137  ASP137      0.3671
    169  OD1       29.3710   47.4930   90.2680 O.co2 137  ASP137     -0.2456
    170  OD2       30.5180   45.6200   90.1230 O.co2 137  ASP137     -0.2456
    171  N         30.0880   45.3630   79.1960 N.3   142  THR142     -0.1218
    172  CA        29.2900   44.4040   79.9510 C.3   142  THR142      0.1862
    173  C         28.2650   43.6950   79.0650 C.2   142  THR142      0.2287
    174  O         27.8630   42.5670   79.3540 O.2   142  THR142     -0.2866
    175  CB        28.5750   45.0930   81.1290 C.3   142  THR142      0.1770
    176  OG1       27.6480   46.0660   80.6290 O.3   142  THR142     -0.2211
    177  CG2       29.5910   45.7910   82.0310 C.3   142  THR142      0.0375
    178  N         34.2690   28.9240   85.4860 N.3   265  LYS265     -0.1245
    179  CA        34.6260   28.9980   86.9030 C.3   265  LYS265      0.1561
    180  C         33.7930   28.0330   87.7470 C.2   265  LYS265      0.2260
    181  O         34.2700   27.5080   88.7540 O.2   265  LYS265     -0.2867
    182  CB        34.4920   30.4380   87.4190 C.3   265  LYS265      0.0271
    183  CG        34.5550   30.5800   88.9410 C.3   265  LYS265      0.0035
    184  CD        35.2960   31.8370   89.3790 C.3   265  LYS265      0.0206
    185  CE        34.4690   33.0940   89.1600 C.3   265  LYS265      0.1093
    186  NZ        35.0250   34.2380   89.9290 N.3   265  LYS265     -0.1314
@<TRIPOS>BOND
     1   173   174    2
     2   173   172    1
     3   171   172    1
     4   172   175    1
     5   176   175    1
     6   175   177    1
     7    39    37   ar
     8    39    38   ar
     9    37    35   ar
    10    38    36   ar
    11    35    34   ar
    12    28    25    1
    13    36    34   ar
    14    34    33    1
    15   121   120   ar
    16    27    26    2
    17    25    26    1
    18    25    24    1
    19    26    29   am
    20   120   119    1
    21   120   122   ar
    22   116   119    1
    23   116   115    1
    24   116   117    1
    25   139   138   ar
    26   129   130    1
    27   129   128    1
    28    33    30    1
    29   178   179    1
    30    29    30    1
    31    24    22   am
    32   130   131    1
    33    30    31    1
    34   117   118    2
    35   127   128    1
    36   127   124    1
    37   138   140   ar
    38   138   137    1
    39    23    22    2
    40    22    21    1
    41   179   182    1
    42   179   180    1
    43   124   123    1
    44   124   125    1
    45   137   136    1
    46    31    32    2
    47    31    40   am
    48   182   183    1
    49    21    20    1
    50    19    17    1
    51   180   181    2
    52   125   126    2
    53    40    41    1
    54   136   133    1
    55   147   146    2
    56    20    15   am
    57    16    15    2
    58   183   184    1
    59   132   133    1
    60    15    14    1
    61   185   184    1
    62   185   186    1
    63    17    18    1
    64    17    14    1
    65    43    42    2
    66   133   134    1
    67    41    44    1
    68    41    42    1
    69    45    44    1
    70   146   148   am
    71   146   145    1
    72    14    13    1
    73   170   168   ar
    74   169   168   ar
    75   114   112   ar
    76   141   134   am
    77   141   142    1
    78   168   167    1
    79   134   135    2
    80   145   142    1
    81    13    11   am
    82   112   113   ar
    83   112   111    1
    84    66    65    1
    85   167   164    1
    86   142   143    1
    87    65    64    1
    88    11    12    2
    89    11    10    1
    90   111   110    1
    91   110   107    1
    92   143   144    2
    93   164   165    1
    94   164   163    1
    95   165   166    2
    96    10     9    1
    97    64    63    1
    98   163   159   am
    99   108   107    1
   100   108   109    2
   101    63    62    1
   102   107   106    1
   103    46    47    1
   104   162   161    1
   105     9     3   am
   106    52    50    1
   107   156   154    1
   108   159   160    2
   109   159   158    1
   110     4     3    2
   111    62    59    1
   112     3     2    1
   113    60    61    2
   114    60    59    1
   115   157   158    1
   116   149   150    1
   117    47    50    1
   118    47    48    1
   119   154   155    1
   120   154   153    1
   121    50    51    1
   122   161   158    1
   123    59    58    1
   124    49    48    2
   125   150   153    1
   126   150   151    1
   127     1     2    1
   128     2     5    1
   129    80    81    1
   130    80    79    1
   131   151   152    2
   132     5     6    1
   133    79    78    1
   134     6     8    1
   135     6     7    1
   136    73    71    1
   137    71    72    1
   138    71    68    1
   139    67    68    1
   140    70    69    2
   141   104   103    1
   142    78    75    1
   143    68    69    1
   144    56    55    2
   145    55    54    1
   146    57    54    1
   147   103   105    1
   148   103   100    1
   149   102   101    2
   150    54    53    1
   151    74    75    1
   152    75    76    1
   153   101   100    1
   154   100    99    1
   155    85    84    2
   156    99    93   am
   157    76    82   am
   158    76    77    2
   159    97    96    1
   160    82    83    1
   161    84    83    1
   162    84    91   am
   163    93    92    1
   164    93    94    2
   165    92    91    1
   166    92    95    1
   167    83    86    1
   168    89    88    2
   169    86    87    1
   170    96    95    1
   171    96    98    1
   172    87    88    1
   173    88    90   am
