@<TRIPOS>MOLECULE
tmp/4fgaA00.pdb
 162 160 0 0 0
SMALL
GASTEIGER

@<TRIPOS>ATOM
      1  N         37.0130   10.7640   -6.1020 N.3     2  LEU2       -0.1231
      2  CA        36.6490    9.4100   -5.8470 C.3     2  LEU2        0.1693
      3  C         37.7040    8.6710   -5.0450 C.2     2  LEU2        0.2591
      4  O         37.3420    7.8520   -4.2350 O.2     2  LEU2       -0.2718
      5  CB        36.3020    8.6680   -7.1230 C.3     2  LEU2        0.0284
      6  CG        35.1350    9.1340   -7.9950 C.3     2  LEU2        0.0019
      7  CD1       34.9890    8.2170   -9.2270 C.3     2  LEU2        0.0001
      8  CD2       33.8530    9.1460   -7.1960 C.3     2  LEU2        0.0001
      9  N         38.9790    8.9560   -5.2560 N.am    3  LEU3       -0.1980
     10  CA        40.0890    8.3910   -4.4420 C.3     3  LEU3        0.1596
     11  C         39.9790    8.6660   -2.9630 C.2     3  LEU3        0.2287
     12  O         40.1540    7.7330   -2.2180 O.2     3  LEU3       -0.2864
     13  CB        41.4560    8.8680   -4.9060 C.3     3  LEU3        0.0297
     14  CG        41.8540    8.3140   -6.2770 C.3     3  LEU3        0.0022
     15  CD1       42.8940    9.2470   -6.9200 C.3     3  LEU3        0.0001
     16  CD2       42.3560    6.8710   -6.1470 C.3     3  LEU3        0.0001
     17  N         37.0560    9.7010   -1.4320 N.3     5  PHE5       -0.1227
     18  CA        35.7830    9.1070   -1.0310 C.3     5  PHE5        0.1736
     19  C         35.9040    7.5720   -0.8110 C.2     5  PHE5        0.2596
     20  O         35.4270    7.0730    0.1880 O.2     5  PHE5       -0.2718
     21  CB        34.6620    9.4550   -2.0330 C.3     5  PHE5        0.0547
     22  CG        33.2180    9.1400   -1.5390 C.ar    5  PHE5       -0.0202
     23  CD1       32.8690    9.1680   -0.1920 C.ar    5  PHE5       -0.0042
     24  CD2       32.2370    8.8960   -2.4250 C.ar    5  PHE5       -0.0042
     25  CE1       31.5690    8.9200    0.2240 C.ar    5  PHE5       -0.0003
     26  CE2       30.9480    8.6070   -2.0170 C.ar    5  PHE5       -0.0003
     27  CZ        30.6070    8.6450   -0.6900 C.ar    5  PHE5       -0.0000
     28  N         36.5030    6.8220   -1.7400 N.am    6  GLY6       -0.1957
     29  CA        36.5900    5.3870   -1.6090 C.3     6  GLY6        0.1869
     30  C         37.4560    4.9620   -0.4230 C.2     6  GLY6        0.2309
     31  O         37.1750    3.9260    0.2100 O.2     6  GLY6       -0.2863
     32  N         35.1970    5.6170    2.7650 N.3     9  ILE9       -0.1245
     33  CA        34.2730    4.4210    2.8380 C.3     9  ILE9        0.1561
     34  C         34.9660    3.1510    3.4150 C.2     9  ILE9        0.2260
     35  O         34.4470    2.5070    4.3390 O.2     9  ILE9       -0.2867
     36  CB        33.5920    4.0880    1.4550 C.3     9  ILE9        0.0252
     37  CG1       32.7270    5.2580    0.9810 C.3     9  ILE9        0.0019
     38  CG2       32.6640    2.9160    1.5360 C.3     9  ILE9        0.0019
     39  CD1       32.2030    5.1380   -0.4480 C.3     9  ILE9        0.0001
     40  N         34.6150    0.5820   -1.6290 N.3    17  ALA17      -0.1231
     41  CA        33.6420    1.4080   -2.3520 C.3    17  ALA17       0.1694
     42  C         33.0670    0.7560   -3.5890 C.2    17  ALA17       0.2591
     43  O         31.8640    0.7960   -3.7850 O.2    17  ALA17      -0.2718
     44  CB        34.2090    2.7710   -2.6990 C.3    17  ALA17       0.0304
     45  N         33.9250    0.1840   -4.4370 N.am   18  ILE18      -0.1980
     46  CA        33.5360   -0.6350   -5.6100 C.3    18  ILE18       0.1595
     47  C         33.7520   -2.1410   -5.2890 C.2    18  ILE18       0.2287
     48  O         34.8600   -2.5120   -4.8790 O.2    18  ILE18      -0.2864
     49  CB        34.4410   -0.2650   -6.8070 C.3    18  ILE18       0.0276
     50  CG1       34.2840    1.2070   -7.1600 C.3    18  ILE18       0.0022
     51  CG2       34.1410   -1.1420   -8.0320 C.3    18  ILE18       0.0022
     52  CD1       34.8220    1.5510   -8.5340 C.3    18  ILE18       0.0001
     53  N         29.1320   -0.3020   -2.8180 N.3    21  TYR21      -0.1227
     54  CA        28.3790    0.9710   -2.8900 C.3    21  TYR21       0.1736
     55  C         28.3880    1.6970   -4.2870 C.2    21  TYR21       0.2596
     56  O         28.0860    2.8930   -4.3450 O.2    21  TYR21      -0.2718
     57  CB        28.8740    1.9520   -1.8040 C.3    21  TYR21       0.0548
     58  CG        28.7310    1.4990   -0.3680 C.ar   21  TYR21      -0.0200
     59  CD1       27.4860    1.4730    0.2730 C.ar   21  TYR21      -0.0009
     60  CD2       29.8350    1.1160    0.3460 C.ar   21  TYR21      -0.0009
     61  CE1       27.3780    1.0610    1.5840 C.ar   21  TYR21       0.0417
     62  CE2       29.7230    0.6560    1.6370 C.ar   21  TYR21       0.0417
     63  CZ        28.5100    0.6270    2.2360 C.ar   21  TYR21       0.1957
     64  OH        28.4850    0.2300    3.5290 O.3    21  TYR21      -0.2866
     65  N         28.7800    1.0550   -5.3920 N.am   22  SER22      -0.1952
     66  CA        28.7550    1.7430   -6.7140 C.3    22  SER22       0.1924
     67  C         27.6230    1.1710   -7.6060 C.2    22  SER22       0.2314
     68  O         27.2910    1.7070   -8.6760 O.2    22  SER22      -0.2863
     69  CB        30.1000    1.6190   -7.4150 C.3    22  SER22       0.2116
     70  OG        30.3820    0.2360   -7.6270 O.3    22  SER22      -0.2180
     71  N         20.2750    4.6690   -5.9100 N.3    27  TYR27      -0.1227
     72  CA        21.0970    5.8770   -5.9000 C.3    27  TYR27       0.1736
     73  C         22.5800    5.6470   -5.6950 C.2    27  TYR27       0.2596
     74  O         23.3170    6.5510   -5.9030 O.2    27  TYR27      -0.2718
     75  CB        20.5910    6.8910   -4.8430 C.3    27  TYR27       0.0548
     76  CG        19.3430    7.5320   -5.2740 C.ar   27  TYR27      -0.0200
     77  CD1       18.1370    6.9540   -4.9810 C.ar   27  TYR27      -0.0009
     78  CD2       19.3580    8.6870   -6.0170 C.ar   27  TYR27      -0.0009
     79  CE1       16.9550    7.5170   -5.4020 C.ar   27  TYR27       0.0417
     80  CE2       18.1730    9.2560   -6.4590 C.ar   27  TYR27       0.0417
     81  CZ        16.9880    8.6680   -6.1490 C.ar   27  TYR27       0.1957
     82  OH        15.8070    9.2200   -6.5900 O.3    27  TYR27      -0.2866
     83  N         23.0430    4.5030   -5.2070 N.am   28  CYS28      -0.1956
     84  CA        24.4940    4.4160   -5.0210 C.3    28  CYS28       0.1846
     85  C         25.0830    4.0180   -6.3650 C.2    28  CYS28       0.2665
     86  O         24.9690    2.8560   -6.7770 O.2    28  CYS28      -0.2711
     87  CB        24.8620    3.4050   -3.9440 C.3    28  CYS28       0.0997
     88  SG        24.0450    3.6820   -2.3680 S.3    28  CYS28      -0.0797
     89  N         25.6780    4.9290   -7.0960 N.am   29  GLY29      -0.1716
     90  CA        26.0830    4.4860   -8.4240 C.2    29  GLY29       0.1480
     91  C         26.4830    5.5090   -9.4350 C.2    29  GLY29       0.2820
     92  O         27.6770    5.7460   -9.6400 O.2    29  GLY29      -0.2669
     93  N         25.4690    6.0750  -10.0850 N.am   30  TRP30      -0.1939
     94  CA        25.6050    7.0630  -11.1350 C.3    30  TRP30       0.1643
     95  C         24.2300    7.5830  -11.4350 C.2    30  TRP30       0.2290
     96  O         23.3480    6.8270  -11.8980 O.2    30  TRP30      -0.2864
     97  CB        26.1930    6.4400  -12.3920 C.3    30  TRP30       0.0577
     98  CG        26.4830    7.4420  -13.4840 C.ar   30  TRP30       0.0006
     99  CD1       26.2810    8.8190  -13.4480 C.ar   30  TRP30       0.0946
    100  CD2       27.0410    7.1750  -14.8180 C.ar   30  TRP30       0.0152
    101  NE1       26.6640    9.4010  -14.6300 N.ar   30  TRP30      -0.2442
    102  CE2       27.1280    8.4720  -15.4930 C.ar   30  TRP30       0.0810
    103  CE3       27.4590    6.0370  -15.4910 C.ar   30  TRP30       0.0012
    104  CZ2       27.6150    8.5960  -16.7820 C.ar   30  TRP30       0.0191
    105  CZ3       27.9490    6.1770  -16.7920 C.ar   30  TRP30       0.0001
    106  CH2       28.0240    7.4260  -17.4190 C.ar   30  TRP30       0.0015
    107  N         22.9760    7.5870   -0.1320 N.3    44  CYS44      -0.1235
    108  CA        23.4750    7.8890   -1.4870 C.3    44  CYS44       0.1677
    109  C         22.6330    8.9910   -2.1060 C.2    44  CYS44       0.2270
    110  O         23.1760    9.9140   -2.7010 O.2    44  CYS44      -0.2867
    111  CB        23.4680    6.6420   -2.3550 C.3    44  CYS44       0.0956
    112  SG        24.7290    5.4600   -1.8220 S.3    44  CYS44      -0.0801
    113  N         23.8400   12.1390   -0.3330 N.3    47  HIS47      -0.1226
    114  CA        25.0990   12.3830   -1.0420 C.3    47  HIS47       0.1752
    115  C         24.9240   13.0090   -2.4420 C.2    47  HIS47       0.2596
    116  O         25.5350   14.0720   -2.6800 O.2    47  HIS47      -0.2718
    117  CB        25.9470   11.1040   -1.1290 C.3    47  HIS47       0.0759
    118  CG        27.3670   11.3660   -1.4360 C.ar   47  HIS47       0.0818
    119  ND1       27.9460   11.0180   -2.6140 N.ar   47  HIS47      -0.2268
    120  CD2       28.3460   12.0180   -0.6930 C.ar   47  HIS47       0.1154
    121  CE1       29.2410   11.4000   -2.6130 C.ar   47  HIS47       0.1986
    122  NE2       29.4930   12.0040   -1.4430 N.ar   47  HIS47      -0.2212
    123  N         24.1080   12.4020   -3.3430 N.am   48  ASP48      -0.1974
    124  CA        23.8140   12.9340   -4.6620 C.3    48  ASP48       0.1709
    125  C         23.2860   14.3860   -4.5690 C.2    48  ASP48       0.2293
    126  O         23.7660   15.2510   -5.3320 O.2    48  ASP48      -0.2864
    127  CB        22.7530   12.1130   -5.4070 C.3    48  ASP48       0.1436
    128  CG        23.2790   10.8370   -6.0050 C.2    48  ASP48       0.3671
    129  OD1       24.3620   10.3560   -5.6110 O.co2  48  ASP48      -0.2456
    130  OD2       22.5590   10.2510   -6.8320 O.co2  48  ASP48      -0.2456
    131  N         26.1120   16.8880   -3.5800 N.3    51  TYR51      -0.1241
    132  CA        26.9490   17.2460   -4.7360 C.3    51  TYR51       0.1605
    133  C         26.1140   18.2150   -5.5750 C.2    51  TYR51       0.2264
    134  O         26.6290   19.1780   -6.0960 O.2    51  TYR51      -0.2867
    135  CB        27.2900   15.9620   -5.5650 C.3    51  TYR51       0.0534
    136  CG        28.5210   15.1360   -5.1000 C.ar   51  TYR51      -0.0201
    137  CD1       29.2510   15.4840   -3.9390 C.ar   51  TYR51      -0.0009
    138  CD2       28.9810   14.0620   -5.8480 C.ar   51  TYR51      -0.0009
    139  CE1       30.3600   14.7830   -3.5420 C.ar   51  TYR51       0.0417
    140  CE2       30.1010   13.3590   -5.4390 C.ar   51  TYR51       0.0417
    141  CZ        30.7490   13.7200   -4.2640 C.ar   51  TYR51       0.1957
    142  OH        31.8620   12.9950   -3.8430 O.3    51  TYR51      -0.2866
    143  N         34.0420   14.5660   -8.3230 N.3    60  LYS60      -0.1245
    144  CA        34.6970   13.3300   -8.7260 C.3    60  LYS60       0.1561
    145  C         36.2010   13.4810   -8.9830 C.2    60  LYS60       0.2260
    146  O         36.9510   12.5240   -8.7920 O.2    60  LYS60      -0.2867
    147  CB        34.0140   12.7480   -9.9670 C.3    60  LYS60       0.0271
    148  CG        32.6790   12.0790   -9.6840 C.3    60  LYS60       0.0035
    149  CD        32.1040   11.4420  -10.9380 C.3    60  LYS60       0.0206
    150  CE        33.1940   11.1370  -11.9530 C.3    60  LYS60       0.1093
    151  NZ        32.9540    9.8460  -12.6540 N.3    60  LYS60      -0.1314
    152  N         26.8560    5.6340    5.9430 N.3    96  PHE96      -0.1241
    153  CA        27.0360    4.2290    5.5440 C.3    96  PHE96       0.1605
    154  C         27.3650    3.3800    6.7980 C.2    96  PHE96       0.2264
    155  O         26.8430    2.2820    6.9630 O.2    96  PHE96      -0.2867
    156  CB        28.1860    4.0850    4.5200 C.3    96  PHE96       0.0534
    157  CG        27.8740    4.5630    3.1240 C.ar   96  PHE96      -0.0203
    158  CD1       26.5920    4.5510    2.6280 C.ar   96  PHE96      -0.0042
    159  CD2       28.9060    4.9380    2.2920 C.ar   96  PHE96      -0.0042
    160  CE1       26.3470    4.9630    1.3260 C.ar   96  PHE96      -0.0003
    161  CE2       28.6680    5.3450    0.9980 C.ar   96  PHE96      -0.0003
    162  CZ        27.3800    5.3480    0.5060 C.ar   96  PHE96      -0.0000
@<TRIPOS>BOND
     1   106   105   ar
     2   106   104   ar
     3   105   103   ar
     4   104   102   ar
     5   102   100   ar
     6   102   101   ar
     7   103   100   ar
     8   100    98   ar
     9   101    99   ar
    10    98    99   ar
    11    98    97    1
    12   151   150    1
    13    97    94    1
    14   150   149    1
    15    96    95    2
    16    95    94    1
    17    94    93    1
    18   149   148    1
    19    93    91   am
    20   147   148    1
    21   147   144    1
    22    92    91    2
    23    91    90    1
    24     7     6    1
    25   145   146    2
    26   145   144    1
    27   144   143    1
    28    68    67    2
    29    52    50    1
    30    90    89    2
    31    51    49    1
    32     6     8    1
    33     6     5    1
    34    70    69    1
    35    67    66    1
    36    69    66    1
    37    50    49    1
    38     5     2    1
    39    89    85    1
    40    15    14    1
    41   130   128   ar
    42    49    46    1
    43    86    85    2
    44    66    65    1
    45    82    81    1
    46    80    81   ar
    47    80    78   ar
    48    85    84    1
    49    14    16    1
    50    14    13    1
    51    81    79   ar
    52     1     2    1
    53   134   133    2
    54    78    76   ar
    55   128   129   ar
    56   128   127    1
    57    71    72    1
    58    74    73    2
    59    72    73    1
    60    72    75    1
    61   138   140   ar
    62   138   136   ar
    63     2     3    1
    64    73    83   am
    65    46    47    1
    66    46    45    1
    67   133   132    1
    68   135   136    1
    69   135   132    1
    70   140   141   ar
    71   127   124    1
    72    79    77   ar
    73    65    55   am
    74   126   125    2
    75    47    48    2
    76    76    77   ar
    77    76    75    1
    78     9     3   am
    79     9    10    1
    80    83    84    1
    81   136   137   ar
    82     3     4    2
    83    84    87    1
    84    13    10    1
    85   132   131    1
    86   124   125    1
    87   124   123    1
    88    10    11    1
    89    45    42   am
    90    56    55    2
    91    55    54    1
    92   141   142    1
    93   141   139   ar
    94    87    88    1
    95   137   139   ar
    96    43    42    2
    97    42    41    1
    98   123   115   am
    99    11    12    2
   100    54    53    1
   101    54    57    1
   102   110   109    2
   103    44    41    1
   104   116   115    2
   105   119   121   ar
   106   119   118   ar
   107   121   122   ar
   108   115   114    1
   109    24    26   ar
   110    24    22   ar
   111    88   112    1
   112   111   112    1
   113   111   108    1
   114    41    40    1
   115   109   108    1
   116    21    22    1
   117    21    18    1
   118    26    27   ar
   119    57    58    1
   120    28    29    1
   121    28    19   am
   122    29    30    1
   123    22    23   ar
   124   108   107    1
   125   122   120   ar
   126   118   117    1
   127   118   120   ar
   128    17    18    1
   129   117   114    1
   130   114   113    1
   131    18    19    1
   132    19    20    2
   133    27    25   ar
   134    39    37    1
   135    30    31    2
   136    58    59   ar
   137    58    60   ar
   138    23    25   ar
   139    59    61   ar
   140    60    62   ar
   141   162   161   ar
   142   162   160   ar
   143    37    36    1
   144   161   159   ar
   145   160   158   ar
   146    36    38    1
   147    36    33    1
   148    61    63   ar
   149    62    63   ar
   150    63    64    1
   151   159   157   ar
   152   158   157   ar
   153    32    33    1
   154    33    34    1
   155   157   156    1
   156    34    35    2
   157   156   153    1
   158   153   152    1
   159   153   154    1
   160   154   155    2
