@<TRIPOS>MOLECULE
tmp/4fggA00.pdb
 208 202 0 0 0
SMALL
GASTEIGER

@<TRIPOS>ATOM
      1  N         -2.4820   24.9440    0.5720 N.3     6  LEU6       -0.1231
      2  CA        -3.7600   25.3220   -0.0420 C.3     6  LEU6        0.1693
      3  C         -3.4600   25.5340   -1.5140 C.2     6  LEU6        0.2592
      4  O         -2.6320   26.3690   -1.8330 O.2     6  LEU6       -0.2718
      5  CB        -4.2900   26.6120    0.6000 C.3     6  LEU6        0.0284
      6  CG        -5.6160   27.2270    0.1220 C.3     6  LEU6        0.0019
      7  CD1       -6.7870   26.2310    0.0800 C.3     6  LEU6        0.0001
      8  CD2       -5.9890   28.4460    0.9880 C.3     6  LEU6        0.0001
      9  N         -4.0970   24.7640   -2.3990 N.am    7  VAL7       -0.1966
     10  CA        -3.7360   24.7670   -3.8170 C.3     7  VAL7        0.1727
     11  C         -4.8520   24.3040   -4.7640 C.2     7  VAL7        0.2616
     12  O         -5.6920   23.4840   -4.4120 O.2     7  VAL7       -0.2715
     13  CB        -2.4990   23.8670   -4.0760 C.3     7  VAL7        0.0290
     14  CG1       -2.8410   22.3960   -3.8400 C.3     7  VAL7        0.0023
     15  CG2       -1.9810   24.0590   -5.4960 C.3     7  VAL7        0.0023
     16  N         -4.8480   24.8350   -5.9780 N.am    8  ALA8       -0.1977
     17  CA        -5.6910   24.3200   -7.0420 C.3     8  ALA8        0.1597
     18  C         -4.7850   23.7320   -8.1080 C.2     8  ALA8        0.2287
     19  O         -3.8990   24.4280   -8.6210 O.2     8  ALA8       -0.2864
     20  CB        -6.5270   25.4200   -7.6310 C.3     8  ALA8        0.0319
     21  N          2.5450   33.1540  -14.9190 N.3    19  ASN19      -0.1225
     22  CA         2.2660   33.8300  -13.6520 C.3    19  ASN19       0.1785
     23  C          0.7870   34.1650  -13.4240 C.2    19  ASN19       0.2597
     24  O          0.4420   35.1370  -12.7450 O.2    19  ASN19      -0.2718
     25  CB         3.1730   35.0540  -13.4810 C.3    19  ASN19       0.1169
     26  CG         4.6430   34.6660  -13.3540 C.2    19  ASN19       0.2627
     27  OD1        4.9920   33.7200  -12.6290 O.2    19  ASN19      -0.2716
     28  ND2        5.5090   35.3750  -14.0710 N.am   19  ASN19      -0.0877
     29  N         -0.0740   33.3280  -13.9870 N.am   20  GLN20      -0.1965
     30  CA        -1.5120   33.4400  -13.8030 C.3    20  GLN20       0.1733
     31  C         -2.1050   32.0500  -13.6400 C.2    20  GLN20       0.2616
     32  O         -1.4610   31.0600  -13.9860 O.2    20  GLN20      -0.2715
     33  CB        -2.1390   34.1290  -15.0090 C.3    20  GLN20       0.0408
     34  CG        -1.9700   35.6180  -14.9880 C.3    20  GLN20       0.0908
     35  CD        -3.0100   36.3120  -15.8290 C.2    20  GLN20       0.2608
     36  OE1       -2.8680   36.4030  -17.0520 O.2    20  GLN20      -0.2717
     37  NE2       -4.0740   36.8060  -15.1800 N.am   20  GLN20      -0.0878
     38  N         -3.3170   31.9730  -13.0970 N.am   21  LEU21      -0.1977
     39  CA        -4.0340   30.7020  -13.0660 C.3    21  LEU21       0.1596
     40  C         -4.5500   30.4430  -14.4580 C.2    21  LEU21       0.2287
     41  O         -5.0490   31.3590  -15.1060 O.2    21  LEU21      -0.2864
     42  CB        -5.2390   30.7650  -12.1410 C.3    21  LEU21       0.0297
     43  CG        -5.0090   31.0310  -10.6650 C.3    21  LEU21       0.0022
     44  CD1       -6.3760   31.3000  -10.0170 C.3    21  LEU21       0.0001
     45  CD2       -4.3090   29.8440  -10.0380 C.3    21  LEU21       0.0001
     46  N         -7.1920   28.7930  -15.2800 N.3    23  TRP23      -0.1241
     47  CA        -8.6380   28.6270  -15.3480 C.3    23  TRP23       0.1605
     48  C         -9.3280   29.7520  -14.6120 C.2    23  TRP23       0.2264
     49  O         -8.7360   30.3670  -13.7350 O.2    23  TRP23      -0.2867
     50  CB        -9.0440   27.3190  -14.6770 C.3    23  TRP23       0.0550
     51  CG        -8.3090   27.1290  -13.3780 C.ar   23  TRP23       0.0003
     52  CD1       -8.5630   27.7550  -12.1720 C.ar   23  TRP23       0.0946
     53  CD2       -7.1640   26.2960  -13.1610 C.ar   23  TRP23       0.0152
     54  NE1       -7.6540   27.3420  -11.2290 N.ar   23  TRP23      -0.2442
     55  CE2       -6.7880   26.4450  -11.8080 C.ar   23  TRP23       0.0810
     56  CE3       -6.4320   25.4260  -13.9710 C.ar   23  TRP23       0.0012
     57  CZ2       -5.7230   25.7430  -11.2560 C.ar   23  TRP23       0.0191
     58  CZ3       -5.3720   24.7350  -13.4160 C.ar   23  TRP23       0.0001
     59  CH2       -5.0260   24.9040  -12.0780 C.ar   23  TRP23       0.0015
     60  N        -12.4100   30.2020  -12.1160 N.3    25  LEU25      -0.1245
     61  CA       -13.3190   29.4120  -11.2880 C.3    25  LEU25       0.1561
     62  C        -13.6600   30.1310   -9.9810 C.2    25  LEU25       0.2260
     63  O        -12.9700   29.9500   -8.9780 O.2    25  LEU25      -0.2867
     64  CB       -12.6930   28.0570  -10.9860 C.3    25  LEU25       0.0270
     65  CG       -13.6390   26.9560  -10.5010 C.3    25  LEU25       0.0019
     66  CD1      -14.6800   26.6400  -11.5690 C.3    25  LEU25       0.0001
     67  CD2      -12.8540   25.7050  -10.1120 C.3    25  LEU25       0.0001
     68  N        -13.7280   28.4780   -6.4520 N.3    28  ASP28      -0.1225
     69  CA       -12.4780   28.1420   -5.7800 C.3    28  ASP28       0.1805
     70  C        -11.9330   29.3580   -5.0360 C.2    28  ASP28       0.2598
     71  O        -11.3860   29.2370   -3.9510 O.2    28  ASP28      -0.2718
     72  CB       -11.4170   27.5800   -6.7400 C.3    28  ASP28       0.1424
     73  CG       -10.2030   27.0110   -5.9910 C.2    28  ASP28       0.3668
     74  OD1      -10.4060   26.2700   -4.9980 O.co2  28  ASP28      -0.2456
     75  OD2       -9.0500   27.3100   -6.3820 O.co2  28  ASP28      -0.2456
     76  N        -12.0880   30.5250   -5.6400 N.am   29  LEU29      -0.1966
     77  CA       -11.7630   31.7730   -4.9760 C.3    29  LEU29       0.1728
     78  C        -12.5740   31.8990   -3.6860 C.2    29  LEU29       0.2616
     79  O        -12.0630   32.3460   -2.6550 O.2    29  LEU29      -0.2715
     80  CB       -12.0710   32.9550   -5.8960 C.3    29  LEU29       0.0311
     81  CG       -11.6260   34.3110   -5.3620 C.3    29  LEU29       0.0022
     82  CD1      -10.0990   34.3360   -5.2960 C.3    29  LEU29       0.0001
     83  CD2      -12.1760   35.4710   -6.2040 C.3    29  LEU29       0.0001
     84  N        -13.8390   31.4950   -3.7500 N.am   30  LYS30      -0.1963
     85  CA       -14.7160   31.5310   -2.5890 C.3    30  LYS30       0.1728
     86  C        -14.2930   30.5080   -1.5280 C.2    30  LYS30       0.2616
     87  O        -14.3690   30.7650   -0.3240 O.2    30  LYS30      -0.2715
     88  CB       -16.1600   31.2960   -3.0270 C.3    30  LYS30       0.0311
     89  CG       -17.1580   31.3890   -1.9030 C.3    30  LYS30       0.0038
     90  CD       -18.5130   31.8810   -2.3990 C.3    30  LYS30       0.0206
     91  CE       -19.4460   32.1490   -1.2160 C.3    30  LYS30       0.1093
     92  NZ       -18.8570   33.0980   -0.2090 N.3    30  LYS30      -0.1314
     93  N        -13.8470   29.3480   -1.9910 N.am   31  HIS31      -0.1959
     94  CA       -13.2960   28.3050   -1.1350 C.3    31  HIS31       0.1787
     95  C        -12.0430   28.8000   -0.3950 C.2    31  HIS31       0.2620
     96  O        -11.8820   28.5850    0.8000 O.2    31  HIS31      -0.2715
     97  CB       -12.9670   27.1100   -2.0220 C.3    31  HIS31       0.0785
     98  CG       -12.2470   25.9990   -1.3270 C.ar   31  HIS31       0.0821
     99  ND1      -12.8630   25.1620   -0.4210 N.ar   31  HIS31      -0.2267
    100  CD2      -10.9720   25.5610   -1.4430 C.ar   31  HIS31       0.1154
    101  CE1      -11.9930   24.2630    0.0070 C.ar   31  HIS31       0.1986
    102  NE2      -10.8420   24.4780   -0.6040 N.ar   31  HIS31      -0.2212
    103  N        -11.1700   29.4920   -1.1110 N.am   32  VAL32      -0.1963
    104  CA        -9.9430   30.0120   -0.5280 C.3    32  VAL32       0.1727
    105  C        -10.2200   31.0760    0.5310 C.2    32  VAL32       0.2616
    106  O         -9.5810   31.1000    1.5840 O.2    32  VAL32      -0.2715
    107  CB        -9.0370   30.6190   -1.6320 C.3    32  VAL32       0.0290
    108  CG1       -7.9400   31.4810   -1.0200 C.3    32  VAL32       0.0023
    109  CG2       -8.4530   29.5040   -2.4910 C.3    32  VAL32       0.0023
    110  N        -11.1650   31.9650    0.2340 N.am   33  LYS33      -0.1977
    111  CA       -11.5250   33.0460    1.1290 C.3    33  LYS33       0.1596
    112  C        -12.0700   32.4850    2.4320 C.2    33  LYS33       0.2287
    113  O        -11.6940   32.9230    3.5150 O.2    33  LYS33      -0.2864
    114  CB       -12.5540   33.9600    0.4490 C.3    33  LYS33       0.0298
    115  CG       -13.0430   35.1270    1.3100 C.3    33  LYS33       0.0038
    116  CD       -13.6870   36.2300    0.4630 C.3    33  LYS33       0.0206
    117  CE       -13.9690   37.4790    1.3150 C.3    33  LYS33       0.1093
    118  NZ       -14.3430   38.6870    0.4990 N.3    33  LYS33      -0.1314
    119  N         -9.1570   30.5150    4.6010 N.3    36  SER36      -0.1217
    120  CA        -8.0100   31.2600    5.1250 C.3    36  SER36       0.1889
    121  C         -8.4060   32.5080    5.9010 C.2    36  SER36       0.2288
    122  O         -7.5580   33.1600    6.5070 O.2    36  SER36      -0.2866
    123  CB        -7.0880   31.6640    3.9930 C.3    36  SER36       0.2089
    124  OG        -7.7680   32.5560    3.1430 O.3    36  SER36      -0.2183
    125  N          4.0650   34.6570   -6.8270 N.3    47  THR47      -0.1218
    126  CA         2.6610   34.5080   -6.5020 C.3    47  THR47       0.1862
    127  C          2.1100   35.8400   -6.0030 C.2    47  THR47       0.2287
    128  O          1.0150   36.2560   -6.3950 O.2    47  THR47      -0.2866
    129  CB         2.4300   33.4530   -5.4290 C.3    47  THR47       0.1770
    130  OG1        2.8570   32.1740   -5.9140 O.3    47  THR47      -0.2211
    131  CG2        0.9550   33.3970   -5.0590 C.3    47  THR47       0.0375
    132  N          1.7190   38.2910   -8.8220 N.3    50  SER50      -0.1202
    133  CA         0.5860   37.8770   -9.6390 C.3    50  SER50       0.2020
    134  C         -0.7270   38.4180   -9.0910 C.2    50  SER50       0.2618
    135  O         -1.5540   38.9580   -9.8350 O.2    50  SER50      -0.2717
    136  CB         0.4900   36.3600   -9.7020 C.3    50  SER50       0.2103
    137  OG        -0.7370   35.9850  -10.3070 O.3    50  SER50      -0.2182
    138  N         -0.9290   38.2450   -7.7920 N.am   51  ILE51      -0.1979
    139  CA        -2.0940   38.8070   -7.1250 C.3    51  ILE51       0.1595
    140  C         -1.9990   40.3390   -7.1040 C.2    51  ILE51       0.2287
    141  O         -2.9930   41.0400   -7.3170 O.2    51  ILE51      -0.2864
    142  CB        -2.2460   38.2380   -5.7050 C.3    51  ILE51       0.0276
    143  CG1       -2.3270   36.7140   -5.7720 C.3    51  ILE51       0.0022
    144  CG2       -3.4740   38.8090   -5.0340 C.3    51  ILE51       0.0022
    145  CD1       -2.5010   36.0450   -4.4250 C.3    51  ILE51       0.0001
    146  N         -4.2650   40.2090    0.3250 N.3    55  LEU55      -0.1231
    147  CA        -5.6580   39.7970    0.4140 C.3    55  LEU55       0.1678
    148  C         -6.1950   40.3080    1.7440 C.2    55  LEU55       0.2434
    149  O         -5.5600   40.1250    2.7800 O.2    55  LEU55      -0.2733
    150  CB        -5.7910   38.2780    0.2950 C.3    55  LEU55       0.0284
    151  CG        -5.1160   37.7360   -0.9730 C.3    55  LEU55       0.0019
    152  CD1       -4.9870   36.2410   -0.9320 C.3    55  LEU55       0.0001
    153  CD2       -5.8750   38.1680   -2.2200 C.3    55  LEU55       0.0001
    154  N         -7.3460   40.9970    1.7040 N.am   56  PRO56      -0.2718
    155  CA        -7.9020   41.6280    2.9080 C.3    56  PRO56       0.1535
    156  C         -8.2650   40.6310    4.0020 C.2    56  PRO56       0.2599
    157  O         -8.6410   39.4990    3.7040 O.2    56  PRO56      -0.2715
    158  CB        -9.1570   42.3570    2.3930 C.3    56  PRO56       0.0310
    159  CG        -9.3860   41.8670    0.9960 C.3    56  PRO56       0.0237
    160  CD        -8.0750   41.3720    0.4770 C.3    56  PRO56       0.0939
    161  N         -8.1230   41.0580    5.2530 N.am   57  ASN57      -0.1959
    162  CA        -8.6410   40.3180    6.4010 C.3    57  ASN57       0.1819
    163  C         -7.8790   39.0280    6.7090 C.2    57  ASN57       0.2621
    164  O         -8.3910   38.1330    7.3900 O.2    57  ASN57      -0.2715
    165  CB       -10.1260   40.0180    6.2050 C.3    57  ASN57       0.1195
    166  CG       -10.9270   41.2550    5.8480 C.2    57  ASN57       0.2630
    167  OD1      -10.6710   42.3500    6.3630 O.2    57  ASN57      -0.2716
    168  ND2      -11.8960   41.0910    4.9510 N.am   57  ASN57      -0.0877
    169  N         -6.6630   38.9460    6.1810 N.am   58  ARG58      -0.1977
    170  CA        -5.7570   37.8380    6.4200 C.3    58  ARG58       0.1597
    171  C         -4.4020   38.4420    6.7030 C.2    58  ARG58       0.2287
    172  O         -4.0850   39.5100    6.1910 O.2    58  ARG58      -0.2864
    173  CB        -5.6110   36.9640    5.1650 C.3    58  ARG58       0.0334
    174  CG        -6.8260   36.1730    4.7840 C.3    58  ARG58       0.0492
    175  CD        -7.5120   36.7500    3.5720 C.3    58  ARG58       0.2205
    176  NE        -8.8270   36.1440    3.3910 N.pl3  58  ARG58      -0.0865
    177  CZ        -9.7540   36.0790    4.3430 C.cat  58  ARG58       0.5346
    178  NH1       -9.5080   36.5850    5.5410 N.pl3  58  ARG58       0.1354
    179  NH2      -10.9270   35.5100    4.1050 N.pl3  58  ARG58       0.1354
    180  N          0.5310   28.9470    0.3270 N.3    93  PHE93      -0.1241
    181  CA        -0.4080   29.4600   -0.6480 C.3    93  PHE93       0.1605
    182  C          0.1510   29.4140   -2.0650 C.2    93  PHE93       0.2264
    183  O         -0.5750   29.6560   -3.0240 O.2    93  PHE93      -0.2867
    184  CB        -0.7560   30.9010   -0.2660 C.3    93  PHE93       0.0534
    185  CG        -2.0090   31.4280   -0.9150 C.ar   93  PHE93      -0.0203
    186  CD1       -3.2260   30.8020   -0.7080 C.ar   93  PHE93      -0.0042
    187  CD2       -1.9700   32.5680   -1.7050 C.ar   93  PHE93      -0.0042
    188  CE1       -4.3820   31.2870   -1.2880 C.ar   93  PHE93      -0.0003
    189  CE2       -3.1290   33.0650   -2.2880 C.ar   93  PHE93      -0.0003
    190  CZ        -4.3350   32.4240   -2.0820 C.ar   93  PHE93      -0.0000
    191  N          5.5410   25.1910   -2.7430 N.3    99  PHE99      -0.1241
    192  CA         4.9530   23.8640   -2.6180 C.3    99  PHE99       0.1605
    193  C          6.0660   22.8050   -2.5250 C.2    99  PHE99       0.2264
    194  O          6.0470   21.9590   -1.6270 O.2    99  PHE99      -0.2867
    195  CB         3.9880   23.5740   -3.7780 C.3    99  PHE99       0.0534
    196  CG         2.7310   24.4230   -3.7500 C.ar   99  PHE99      -0.0203
    197  CD1        2.0840   24.6780   -2.5620 C.ar   99  PHE99      -0.0042
    198  CD2        2.2160   24.9700   -4.9110 C.ar   99  PHE99      -0.0042
    199  CE1        0.9510   25.4560   -2.5260 C.ar   99  PHE99      -0.0003
    200  CE2        1.0750   25.7490   -4.8810 C.ar   99  PHE99      -0.0003
    201  CZ         0.4340   25.9910   -3.6860 C.ar   99  PHE99      -0.0000
    202  N         -7.8410   21.7210   -4.5210 N.3   112  THR112     -0.1218
    203  CA        -8.9710   21.7200   -5.4280 C.3   112  THR112      0.1862
    204  C         -8.4770   21.0770   -6.7340 C.2   112  THR112      0.2287
    205  O         -7.6520   21.6570   -7.4390 O.2   112  THR112     -0.2866
    206  CB        -9.4820   23.1510   -5.6770 C.3   112  THR112      0.1770
    207  OG1       -9.8100   23.7860   -4.4220 O.3   112  THR112     -0.2211
    208  CG2      -10.7090   23.1270   -6.5770 C.3   112  THR112      0.0375
@<TRIPOS>BOND
     1    36    35    2
     2    35    37   am
     3    35    34    1
     4    47    46    1
     5    47    50    1
     6    47    48    1
     7    41    40    2
     8    33    34    1
     9    33    30    1
    10    21    22    1
    11    50    51    1
    12    48    49    2
    13    40    39    1
    14    28    26   am
    15    29    30    1
    16    29    23   am
    17    32    31    2
    18    56    58   ar
    19    56    53   ar
    20    30    31    1
    21    22    25    1
    22    22    23    1
    23    31    38   am
    24    25    26    1
    25    23    24    2
    26    58    59   ar
    27    51    53   ar
    28    51    52   ar
    29    26    27    2
    30    53    55   ar
    31    38    39    1
    32    39    42    1
    33    52    54   ar
    34    42    43    1
    35    60    61    1
    36    59    57   ar
    37    55    57   ar
    38    55    54   ar
    39    66    65    1
    40    61    64    1
    41    61    62    1
    42    64    65    1
    43    43    45    1
    44    43    44    1
    45    65    67    1
    46   137   136    1
    47    62    63    2
    48   135   134    2
    49   136   133    1
    50   133   134    1
    51   133   132    1
    52   134   138   am
    53    19    18    2
    54    18    17    1
    55   138   139    1
    56    20    17    1
    57   205   204    2
    58   141   140    2
    59   139   140    1
    60   139   142    1
    61    17    16    1
    62   125   126    1
    63    72    73    1
    64    72    69    1
    65   204   203    1
    66   208   206    1
    67   126   127    1
    68   126   129    1
    69    68    69    1
    70   128   127    2
    71    75    73   ar
    72    83    81    1
    73    73    74   ar
    74    16    11   am
    75   130   129    1
    76    80    81    1
    77    80    77    1
    78    69    70    1
    79   143   142    1
    80   143   145    1
    81   142   144    1
    82   206   203    1
    83   206   207    1
    84    76    70   am
    85    76    77    1
    86    15    13    1
    87   129   131    1
    88   203   202    1
    89    81    82    1
    90    70    71    2
    91    77    78    1
    92   198   200   ar
    93   198   196   ar
    94   200   201   ar
    95    11    12    2
    96    11    10    1
    97    13    14    1
    98    13    10    1
    99    10     9    1
   100   195   196    1
   101   195   192    1
   102    84    78   am
   103    84    85    1
   104   196   197   ar
   105    78    79    2
   106   201   199   ar
   107    88    85    1
   108    88    89    1
   109   183   182    2
   110   191   192    1
   111   192   193    1
   112    85    86    1
   113   197   199   ar
   114   193   194    2
   115   109   107    1
   116     9     3   am
   117    90    89    1
   118    90    91    1
   119   189   190   ar
   120   189   187   ar
   121   153   151    1
   122   190   188   ar
   123   182   181    1
   124    97    98    1
   125    97    94    1
   126    93    86   am
   127    93    94    1
   128     4     3    2
   129   187   185   ar
   130   107   108    1
   131   107   104    1
   132    86    87    2
   133     3     2    1
   134   100    98   ar
   135   100   102   ar
   136    98    99   ar
   137   188   186   ar
   138    91    92    1
   139    94    95    1
   140   103   104    1
   141   103    95   am
   142   151   152    1
   143   151   150    1
   144   185   186   ar
   145   185   184    1
   146   181   184    1
   147   181   180    1
   148   102   101   ar
   149   104   105    1
   150    99   101   ar
   151    95    96    2
   152     2     1    1
   153     2     5    1
   154     7     6    1
   155     6     5    1
   156     6     8    1
   157   110   105   am
   158   110   111    1
   159   150   147    1
   160   146   147    1
   161   147   148    1
   162   114   111    1
   163   114   115    1
   164   116   115    1
   165   116   117    1
   166   160   159    1
   167   160   154    1
   168   118   117    1
   169   105   106    2
   170   159   158    1
   171   111   112    1
   172   154   148   am
   173   154   155    1
   174   148   149    2
   175   158   155    1
   176   112   113    2
   177   155   156    1
   178   124   123    1
   179   176   175    1
   180   176   177    2
   181   175   174    1
   182   157   156    2
   183   123   120    1
   184   156   161   am
   185   179   177    1
   186   177   178    1
   187   119   120    1
   188   174   173    1
   189   168   166   am
   190   120   121    1
   191   173   170    1
   192   161   162    1
   193   166   165    1
   194   166   167    2
   195   121   122    2
   196   169   170    1
   197   169   163   am
   198   172   171    2
   199   165   162    1
   200   162   163    1
   201   170   171    1
   202   163   164    2
