@<TRIPOS>MOLECULE
tmp/4fgjA02.pdb
 80 76 0 0 0
SMALL
GASTEIGER

@<TRIPOS>ATOM
      1  N         28.1860   -7.9580  -16.9120 N.3    68  GLY68      -0.1210
      2  CA        28.4020   -8.9940  -15.9130 C.3    68  GLY68       0.1956
      3  C         29.8480   -9.0610  -15.4670 C.2    68  GLY68       0.2611
      4  O         30.1420   -9.1040  -14.2640 O.2    68  GLY68      -0.2717
      5  N         30.7650   -9.0630  -16.4280 N.am   69  VAL69      -0.1979
      6  CA        32.1810   -9.1420  -16.0940 C.3    69  VAL69       0.1595
      7  C         32.6280   -7.8820  -15.3610 C.2    69  VAL69       0.2287
      8  O         33.3220   -7.9510  -14.3390 O.2    69  VAL69      -0.2864
      9  CB        33.0550   -9.3530  -17.3430 C.3    69  VAL69       0.0276
     10  CG1       34.5350   -9.1850  -17.0050 C.3    69  VAL69       0.0022
     11  CG2       32.7820  -10.7190  -17.9250 C.3    69  VAL69       0.0022
     12  N         22.3240   -7.2870   -7.2480 N.3   120  LEU120     -0.1231
     13  CA        22.6720   -8.6850   -7.0440 C.3   120  LEU120      0.1693
     14  C         23.7480   -9.1500   -8.0310 C.2   120  LEU120      0.2592
     15  O         23.5190  -10.0240   -8.8600 O.2   120  LEU120     -0.2718
     16  CB        21.4140   -9.5450   -7.1630 C.3   120  LEU120      0.0284
     17  CG        20.2740   -9.1800   -6.2040 C.3   120  LEU120      0.0019
     18  CD1       19.0430   -9.9980   -6.5080 C.3   120  LEU120      0.0001
     19  CD2       20.6980   -9.3660   -4.7560 C.3   120  LEU120      0.0001
     20  N         24.9330   -8.5560   -7.9400 N.am  121  CYS121     -0.1956
     21  CA        25.9920   -8.8700   -8.8930 C.3   121  CYS121      0.1843
     22  C         26.8070  -10.1160   -8.4910 C.2   121  CYS121      0.2625
     23  O         26.7710  -10.5660   -7.3360 O.2   121  CYS121     -0.2714
     24  CB        26.9040   -7.6550   -9.0630 C.3   121  CYS121      0.0997
     25  SG        27.9590   -7.3120   -7.6340 S.3   121  CYS121     -0.0797
     26  N         27.5150  -10.6980   -9.4560 N.am  122  GLN122     -0.1977
     27  CA        28.3750  -11.8310   -9.1550 C.3   122  GLN122      0.1601
     28  C         29.4600  -11.4030   -8.1610 C.2   122  GLN122      0.2287
     29  O         29.9900  -10.2970   -8.2490 O.2   122  GLN122     -0.2864
     30  CB        29.0000  -12.3970  -10.4310 C.3   122  GLN122      0.0394
     31  CG        29.7420  -13.6980  -10.2060 C.3   122  GLN122      0.0908
     32  CD        30.2240  -14.3310  -11.4870 C.2   122  GLN122      0.2608
     33  OE1       29.8670  -13.9070  -12.5950 O.2   122  GLN122     -0.2717
     34  NE2       31.0630  -15.3410  -11.3480 N.am  122  GLN122     -0.0878
     35  N         25.9720  -14.1930   -5.8200 N.3   126  PHE126     -0.1241
     36  CA        26.1860  -15.5580   -6.2990 C.3   126  PHE126      0.1605
     37  C         27.5730  -15.6030   -6.8880 C.2   126  PHE126      0.2264
     38  O         28.1370  -14.5590   -7.2050 O.2   126  PHE126     -0.2867
     39  CB        25.1720  -15.8950   -7.3930 C.3   126  PHE126      0.0534
     40  CG        25.4150  -15.1460   -8.6610 C.ar  126  PHE126     -0.0203
     41  CD1       24.8940  -13.8660   -8.8320 C.ar  126  PHE126     -0.0042
     42  CD2       26.1840  -15.6990   -9.6790 C.ar  126  PHE126     -0.0042
     43  CE1       25.1210  -13.1480   -9.9870 C.ar  126  PHE126     -0.0003
     44  CE2       26.4210  -14.9790  -10.8520 C.ar  126  PHE126     -0.0003
     45  CZ        25.8810  -13.7060  -11.0050 C.ar  126  PHE126     -0.0000
     46  N         30.7020  -18.5330   -9.0160 N.3   128  ILE128     -0.1245
     47  CA        31.1230  -19.8660   -9.4120 C.3   128  ILE128      0.1561
     48  C         32.2870  -20.2080   -8.4990 C.2   128  ILE128      0.2260
     49  O         33.4060  -19.7320   -8.7140 O.2   128  ILE128     -0.2867
     50  CB        31.6350  -19.9430  -10.8700 C.3   128  ILE128      0.0252
     51  CG1       30.6120  -19.3460  -11.8300 C.3   128  ILE128      0.0019
     52  CG2       31.9770  -21.4130  -11.2500 C.3   128  ILE128      0.0019
     53  CD1       29.2070  -19.8570  -11.6010 C.3   128  ILE128      0.0001
     54  N         22.0920  -21.2530   -6.2710 N.3   132  TYR132     -0.1241
     55  CA        20.9960  -22.0440   -5.7190 C.3   132  TYR132      0.1605
     56  C         21.2810  -22.3200   -4.2310 C.2   132  TYR132      0.2264
     57  O         21.5050  -21.3640   -3.4880 O.2   132  TYR132     -0.2867
     58  CB        20.7240  -23.2720   -6.5950 C.3   132  TYR132      0.0534
     59  CG        20.0110  -22.8570   -7.8940 C.ar  132  TYR132     -0.0201
     60  CD1       18.8520  -22.0830   -7.8580 C.ar  132  TYR132     -0.0009
     61  CD2       20.5100  -23.2140   -9.1420 C.ar  132  TYR132     -0.0009
     62  CE1       18.2030  -21.6880   -9.0270 C.ar  132  TYR132      0.0417
     63  CE2       19.8590  -22.8360  -10.3160 C.ar  132  TYR132      0.0417
     64  CZ        18.7080  -22.0740  -10.2470 C.ar  132  TYR132      0.1957
     65  OH        18.0470  -21.6720  -11.3850 O.3   132  TYR132     -0.2866
     66  N         14.5320  -18.2380  -10.0660 N.3   174  GLY174     -0.1225
     67  CA        15.5710  -17.7060  -10.9220 C.3   174  GLY174      0.1811
     68  C         16.4110  -16.6070  -10.3000 C.2   174  GLY174      0.2280
     69  O         17.5510  -16.3830  -10.7070 O.2   174  GLY174     -0.2866
     70  N         18.3710  -18.5890   -6.5430 N.3   178  PHE178     -0.1241
     71  CA        19.6560  -18.6080   -7.2140 C.3   178  PHE178      0.1605
     72  C         20.7310  -17.9840   -6.3290 C.2   178  PHE178      0.2264
     73  O         21.8500  -18.4700   -6.2740 O.2   178  PHE178     -0.2867
     74  CB        19.5900  -17.9070   -8.5770 C.3   178  PHE178      0.0534
     75  CG        20.8280  -18.1000   -9.4040 C.ar  178  PHE178     -0.0203
     76  CD1       21.0420  -19.2890  -10.0780 C.ar  178  PHE178     -0.0042
     77  CD2       21.7780  -17.1030   -9.4980 C.ar  178  PHE178     -0.0042
     78  CE1       22.1800  -19.4610  -10.8410 C.ar  178  PHE178     -0.0003
     79  CE2       22.9080  -17.2750  -10.2510 C.ar  178  PHE178     -0.0003
     80  CZ        23.1110  -18.4550  -10.9210 C.ar  178  PHE178     -0.0000
@<TRIPOS>BOND
     1    11     9    1
     2     9    10    1
     3     9     6    1
     4     1     2    1
     5     5     6    1
     6     5     3   am
     7     6     7    1
     8     2     3    1
     9     3     4    2
    10     7     8    2
    11    33    32    2
    12    51    53    1
    13    51    50    1
    14    32    34   am
    15    32    31    1
    16    65    64    1
    17    52    50    1
    18    45    44   ar
    19    45    43   ar
    20    67    68    1
    21    67    66    1
    22    80    78   ar
    23    80    79   ar
    24    50    47    1
    25    44    42   ar
    26    78    76   ar
    27    69    68    2
    28    30    31    1
    29    30    27    1
    30    63    64   ar
    31    63    61   ar
    32    79    77   ar
    33    64    62   ar
    34    76    75   ar
    35    43    41   ar
    36    42    40   ar
    37    77    75   ar
    38    26    27    1
    39    26    22   am
    40    47    46    1
    41    47    48    1
    42    75    74    1
    43    27    28    1
    44    61    59   ar
    45    24    21    1
    46    24    25    1
    47    62    60   ar
    48    21    22    1
    49    21    20    1
    50    15    14    2
    51    41    40   ar
    52    49    48    2
    53    40    39    1
    54    74    71    1
    55    22    23    2
    56    29    28    2
    57    14    20   am
    58    14    13    1
    59    59    60   ar
    60    59    58    1
    61    39    36    1
    62    12    13    1
    63    71    70    1
    64    71    72    1
    65    38    37    2
    66    16    13    1
    67    16    17    1
    68    37    36    1
    69    58    55    1
    70    18    17    1
    71    72    73    2
    72    36    35    1
    73    54    55    1
    74    17    19    1
    75    55    56    1
    76    56    57    2
