@<TRIPOS>MOLECULE
tmp/4fgkA01.pdb
 100 97 0 0 0
SMALL
GASTEIGER

@<TRIPOS>ATOM
      1  N         28.0380   -7.9960  -16.9900 N.3    68  GLY68      -0.1225
      2  CA        28.2490   -9.0280  -15.9890 C.3    68  GLY68       0.1811
      3  C         29.6970   -9.1250  -15.5460 C.2    68  GLY68       0.2280
      4  O         29.9980   -9.1590  -14.3500 O.2    68  GLY68      -0.2866
      5  N         18.7560   -6.3300  -11.0050 N.3   117  ASP117     -0.1239
      6  CA        19.8130   -6.3970  -12.0110 C.3   117  ASP117      0.1674
      7  C         21.1340   -5.8190  -11.5190 C.2   117  ASP117      0.2266
      8  O         22.2030   -6.3760  -11.7920 O.2   117  ASP117     -0.2867
      9  CB        19.4290   -5.6220  -13.2750 C.3   117  ASP117      0.1410
     10  CG        18.2290   -6.2000  -14.0100 C.2   117  ASP117      0.3668
     11  OD1       17.8040   -7.3510  -13.7560 O.co2 117  ASP117     -0.2456
     12  OD2       17.7160   -5.4700  -14.8760 O.co2 117  ASP117     -0.2456
     13  N         22.2940   -7.3030   -7.2930 N.3   120  LEU120     -0.1231
     14  CA        22.6480   -8.7090   -7.1100 C.3   120  LEU120      0.1693
     15  C         23.7040   -9.1660   -8.1180 C.2   120  LEU120      0.2592
     16  O         23.4450  -10.0310   -8.9600 O.2   120  LEU120     -0.2718
     17  CB        21.3960   -9.5750   -7.2190 C.3   120  LEU120      0.0284
     18  CG        20.2390   -9.2150   -6.2760 C.3   120  LEU120      0.0019
     19  CD1       19.0210  -10.0530   -6.5810 C.3   120  LEU120      0.0001
     20  CD2       20.6310   -9.3530   -4.8040 C.3   120  LEU120      0.0001
     21  N         24.8920   -8.5760   -8.0460 N.am  121  CYS121     -0.1956
     22  CA        25.9570   -8.9200   -8.9860 C.3   121  CYS121      0.1843
     23  C         26.7310  -10.1880   -8.5690 C.2   121  CYS121      0.2625
     24  O         26.6880  -10.5960   -7.4090 O.2   121  CYS121     -0.2714
     25  CB        26.9060   -7.7340   -9.1460 C.3   121  CYS121      0.0997
     26  SG        27.9300   -7.4010   -7.6990 S.3   121  CYS121     -0.0797
     27  N         27.4030  -10.8270   -9.5270 N.am  122  GLN122     -0.1977
     28  CA        28.2440  -11.9770   -9.2060 C.3   122  GLN122      0.1601
     29  C         29.3510  -11.5080   -8.2730 C.2   122  GLN122      0.2287
     30  O         29.8130  -10.3690   -8.3620 O.2   122  GLN122     -0.2864
     31  CB        28.8250  -12.6270  -10.4700 C.3   122  GLN122      0.0394
     32  CG        29.5220  -13.9550  -10.2290 C.3   122  GLN122      0.0908
     33  CD        29.7800  -14.7260  -11.5000 C.2   122  GLN122      0.2608
     34  OE1       29.1240  -14.5140  -12.5230 O.2   122  GLN122     -0.2717
     35  NE2       30.7460  -15.6240  -11.4460 N.am  122  GLN122     -0.0878
     36  N         25.9970  -14.2300   -5.8980 N.3   126  PHE126     -0.1227
     37  CA        26.2890  -15.5740   -6.3810 C.3   126  PHE126      0.1736
     38  C         27.6290  -15.5210   -7.1230 C.2   126  PHE126      0.2595
     39  O         28.1700  -14.4580   -7.3720 O.2   126  PHE126     -0.2718
     40  CB        25.2020  -15.9800   -7.3570 C.3   126  PHE126      0.0547
     41  CG        25.3330  -15.2910   -8.6550 C.ar  126  PHE126     -0.0202
     42  CD1       24.8070  -14.0190   -8.8370 C.ar  126  PHE126     -0.0042
     43  CD2       26.0540  -15.8790   -9.6720 C.ar  126  PHE126     -0.0042
     44  CE1       24.9660  -13.3530  -10.0320 C.ar  126  PHE126     -0.0003
     45  CE2       26.2220  -15.2340  -10.8680 C.ar  126  PHE126     -0.0003
     46  CZ        25.6780  -13.9650  -11.0610 C.ar  126  PHE126     -0.0000
     47  N         28.1570  -16.7220   -7.3690 N.am  127  ASP127     -0.1960
     48  CA        29.4810  -16.9270   -7.9110 C.3   127  ASP127      0.1840
     49  C         29.5590  -18.3710   -8.3900 C.2   127  ASP127      0.2621
     50  O         28.5830  -19.1300   -8.2890 O.2   127  ASP127     -0.2715
     51  CB        30.5390  -16.6850   -6.8360 C.3   127  ASP127      0.1450
     52  CG        31.7030  -15.9120   -7.3470 C.2   127  ASP127      0.3671
     53  OD1       31.9650  -16.0080   -8.5650 O.co2 127  ASP127     -0.2456
     54  OD2       32.3610  -15.2340   -6.5290 O.co2 127  ASP127     -0.2456
     55  N         30.7130  -18.7460   -8.9200 N.am  128  ILE128     -0.1977
     56  CA        31.0190  -20.1460   -9.1430 C.3   128  ILE128      0.1596
     57  C         31.8280  -20.5210   -7.9090 C.2   128  ILE128      0.2287
     58  O         32.9010  -19.9550   -7.6880 O.2   128  ILE128     -0.2864
     59  CB        31.8340  -20.3260  -10.4300 C.3   128  ILE128      0.0276
     60  CG1       31.1370  -19.6090  -11.5900 C.3   128  ILE128      0.0022
     61  CG2       32.0130  -21.8070  -10.7720 C.3   128  ILE128      0.0022
     62  CD1       32.0790  -19.0850  -12.6430 C.3   128  ILE128      0.0001
     63  N         25.5030  -21.0980   -5.7710 N.3   131  PHE131     -0.1227
     64  CA        24.1980  -20.6980   -6.3100 C.3   131  PHE131      0.1736
     65  C         23.1300  -21.7260   -5.9340 C.2   131  PHE131      0.2595
     66  O         23.4480  -22.8210   -5.4580 O.2   131  PHE131     -0.2718
     67  CB        24.2510  -20.5060   -7.8310 C.3   131  PHE131      0.0547
     68  CG        24.6520  -21.7410   -8.5800 C.ar  131  PHE131     -0.0202
     69  CD1       25.9840  -22.0700   -8.7270 C.ar  131  PHE131     -0.0042
     70  CD2       23.6940  -22.5800   -9.1220 C.ar  131  PHE131     -0.0042
     71  CE1       26.3590  -23.2170   -9.4050 C.ar  131  PHE131     -0.0003
     72  CE2       24.0600  -23.7220   -9.8030 C.ar  131  PHE131     -0.0003
     73  CZ        25.3930  -24.0430   -9.9430 C.ar  131  PHE131     -0.0000
     74  N         21.8660  -21.3740   -6.1520 N.am  132  TYR132     -0.1976
     75  CA        20.7390  -22.1170   -5.5770 C.3   132  TYR132      0.1639
     76  C         21.0010  -22.3870   -4.0850 C.2   132  TYR132      0.2290
     77  O         21.2240  -21.4340   -3.3440 O.2   132  TYR132     -0.2864
     78  CB        20.3610  -23.3450   -6.4210 C.3   132  TYR132      0.0560
     79  CG        19.6490  -22.9050   -7.6900 C.ar  132  TYR132     -0.0198
     80  CD1       18.5120  -22.1070   -7.6210 C.ar  132  TYR132     -0.0009
     81  CD2       20.1320  -23.2410   -8.9480 C.ar  132  TYR132     -0.0009
     82  CE1       17.8690  -21.6720   -8.7740 C.ar  132  TYR132      0.0417
     83  CE2       19.4890  -22.8220  -10.0990 C.ar  132  TYR132      0.0417
     84  CZ        18.3630  -22.0270  -10.0030 C.ar  132  TYR132      0.1957
     85  OH        17.7230  -21.5840  -11.1430 O.3   132  TYR132     -0.2866
     86  N         14.4760  -18.2440  -10.1010 N.3   174  GLY174     -0.1225
     87  CA        15.5350  -17.7410  -10.9500 C.3   174  GLY174      0.1811
     88  C         16.3440  -16.6020  -10.3400 C.2   174  GLY174      0.2280
     89  O         17.4790  -16.3660  -10.7480 O.2   174  GLY174     -0.2866
     90  N         18.2790  -18.5950   -6.5790 N.3   178  PHE178     -0.1241
     91  CA        19.5640  -18.6140   -7.2630 C.3   178  PHE178      0.1605
     92  C         20.6480  -17.9900   -6.3910 C.2   178  PHE178      0.2264
     93  O         21.7750  -18.4600   -6.3570 O.2   178  PHE178     -0.2867
     94  CB        19.4790  -17.9030   -8.6130 C.3   178  PHE178      0.0534
     95  CG        20.7050  -18.0580   -9.4510 C.ar  178  PHE178     -0.0203
     96  CD1       20.9130  -19.2180  -10.1720 C.ar  178  PHE178     -0.0042
     97  CD2       21.6490  -17.0530   -9.5270 C.ar  178  PHE178     -0.0042
     98  CE1       22.0340  -19.3740  -10.9560 C.ar  178  PHE178     -0.0003
     99  CE2       22.7750  -17.2000  -10.3070 C.ar  178  PHE178     -0.0003
    100  CZ        22.9680  -18.3640  -11.0280 C.ar  178  PHE178     -0.0000
@<TRIPOS>BOND
     1     1     2    1
     2     2     3    1
     3     3     4    2
     4    12    10   ar
     5    10    11   ar
     6    10     9    1
     7     9     6    1
     8    62    60    1
     9    34    33    2
    10     6     7    1
    11     6     5    1
    12     8     7    2
    13    60    59    1
    14    33    35   am
    15    33    32    1
    16    85    84    1
    17    46    45   ar
    18    46    44   ar
    19   100    98   ar
    20   100    99   ar
    21    98    96   ar
    22    87    88    1
    23    87    86    1
    24    45    43   ar
    25    61    59    1
    26    89    88    2
    27    31    32    1
    28    31    28    1
    29    59    56    1
    30    99    97   ar
    31    96    95   ar
    32    83    84   ar
    33    83    81   ar
    34    44    42   ar
    35    84    82   ar
    36    73    72   ar
    37    73    71   ar
    38    72    70   ar
    39    43    41   ar
    40    27    28    1
    41    27    23   am
    42    97    95   ar
    43    95    94    1
    44    71    69   ar
    45    28    29    1
    46    25    22    1
    47    25    26    1
    48    56    55    1
    49    56    57    1
    50    70    68   ar
    51    22    23    1
    52    22    21    1
    53    16    15    2
    54    81    79   ar
    55    55    49   am
    56    42    41   ar
    57    82    80   ar
    58    69    68   ar
    59    41    40    1
    60    94    91    1
    61    68    67    1
    62    23    24    2
    63    53    52   ar
    64    49    50    2
    65    49    48    1
    66    30    29    2
    67    15    21   am
    68    15    14    1
    69    48    47    1
    70    48    51    1
    71    57    58    2
    72    67    64    1
    73    79    80   ar
    74    79    78    1
    75    39    38    2
    76    47    38   am
    77    40    37    1
    78    52    51    1
    79    52    54   ar
    80    13    14    1
    81    91    90    1
    82    91    92    1
    83    17    14    1
    84    17    18    1
    85    38    37    1
    86    19    18    1
    87    78    75    1
    88    92    93    2
    89    37    36    1
    90    64    65    1
    91    64    63    1
    92    18    20    1
    93    74    65   am
    94    74    75    1
    95    65    66    2
    96    75    76    1
    97    76    77    2
