@<TRIPOS>MOLECULE
tmp/4fglD00.pdb
 79 75 0 0 0
SMALL
GASTEIGER

@<TRIPOS>ATOM
      1  N         45.7260   -4.5780   50.4790 N.3    67  VAL67      -0.1245
      2  CA        45.1940   -4.5060   49.1130 C.3    67  VAL67       0.1561
      3  C         44.8870   -5.9250   48.6110 C.2    67  VAL67       0.2260
      4  O         45.7890   -6.7100   48.3340 O.2    67  VAL67      -0.2867
      5  CB        46.2000   -3.7960   48.1920 C.3    67  VAL67       0.0252
      6  CG1       45.7020   -3.7770   46.7630 C.3    67  VAL67       0.0019
      7  CG2       46.4660   -2.3720   48.6840 C.3    67  VAL67       0.0019
      8  N         43.9140   -8.9370   46.3190 N.3    69  ASN69      -0.1225
      9  CA        43.9650   -9.3840   44.9370 C.3    69  ASN69       0.1785
     10  C         43.5320  -10.8470   44.8910 C.2    69  ASN69       0.2597
     11  O         44.2680  -11.7170   45.3500 O.2    69  ASN69      -0.2718
     12  CB        45.3980   -9.2210   44.4250 C.3    69  ASN69       0.1169
     13  CG        45.5560   -9.6390   42.9800 C.2    69  ASN69       0.2627
     14  OD1       45.0700  -10.6830   42.5550 O.2    69  ASN69      -0.2716
     15  ND2       46.2550   -8.8110   42.2090 N.am   69  ASN69      -0.0877
     16  N         42.3350  -11.1130   44.3740 N.am   70  TYR70      -0.1962
     17  CA        41.7290  -12.4350   44.4760 C.3    70  TYR70       0.1771
     18  C         42.5990  -13.5330   43.8480 C.2    70  TYR70       0.2620
     19  O         42.8270  -14.5810   44.4530 O.2    70  TYR70      -0.2715
     20  CB        40.3310  -12.4500   43.8310 C.3    70  TYR70       0.0574
     21  CG        39.6170  -13.7700   44.0170 C.ar   70  TYR70      -0.0198
     22  CD1       39.0210  -14.0810   45.2350 C.ar   70  TYR70      -0.0009
     23  CD2       39.6210  -14.7410   43.0230 C.ar   70  TYR70      -0.0009
     24  CE1       38.3880  -15.2770   45.4340 C.ar   70  TYR70       0.0417
     25  CE2       38.9880  -15.9540   43.2190 C.ar   70  TYR70       0.0417
     26  CZ        38.3860  -16.2270   44.4400 C.ar   70  TYR70       0.1957
     27  OH        37.7660  -17.4340   44.6610 O.3    70  TYR70      -0.2866
     28  N         43.0910  -13.2900   42.6390 N.am   71  GLY71      -0.1954
     29  CA        43.9350  -14.2530   41.9500 C.3    71  GLY71       0.1869
     30  C         45.1960  -14.5920   42.7160 C.2    71  GLY71       0.2309
     31  O         45.5530  -15.7560   42.8620 O.2    71  GLY71      -0.2863
     32  N         34.9150  -19.6850   38.2720 N.3   120  ASP120     -0.1239
     33  CA        35.7600  -18.6390   38.8110 C.3   120  ASP120      0.1674
     34  C         36.5620  -19.1020   40.0390 C.2   120  ASP120      0.2266
     35  O         37.7000  -18.6870   40.2360 O.2   120  ASP120     -0.2867
     36  CB        34.9190  -17.4200   39.2590 C.3   120  ASP120      0.1410
     37  CG        34.2120  -16.6790   38.1110 C.2   120  ASP120      0.3668
     38  OD1       34.5080  -16.9440   36.9210 O.co2 120  ASP120     -0.2456
     39  OD2       33.3660  -15.8080   38.4590 O.co2 120  ASP120     -0.2456
     40  N         38.5220  -23.2660   39.4750 N.3   123  LEU123     -0.1231
     41  CA        39.6150  -23.3840   38.5220 C.3   123  LEU123      0.1693
     42  C         40.6880  -22.3600   38.8280 C.2   123  LEU123      0.2592
     43  O         41.0000  -21.4730   38.0140 O.2   123  LEU123     -0.2718
     44  CB        39.0910  -23.2410   37.0910 C.3   123  LEU123      0.0284
     45  CG        38.0220  -24.2570   36.7110 C.3   123  LEU123      0.0019
     46  CD1       37.5170  -23.9340   35.3060 C.3   123  LEU123      0.0001
     47  CD2       38.5650  -25.6660   36.7600 C.3   123  LEU123      0.0001
     48  N         41.2830  -22.4630   40.0150 N.am  124  CYS124     -0.1970
     49  CA        42.1620  -21.4120   40.4600 C.3   124  CYS124      0.1712
     50  C         43.5910  -21.6040   39.9800 C.2   124  CYS124      0.2296
     51  O         44.0100  -22.6840   39.5510 O.2   124  CYS124     -0.2864
     52  CB        42.1420  -21.2710   41.9860 C.3   124  CYS124      0.0983
     53  SG        43.0690  -22.5180   42.8980 S.3   124  CYS124     -0.0798
     54  N         45.5430  -23.9030   36.1390 N.3   129  PHE129     -0.1241
     55  CA        46.4370  -23.2470   35.2020 C.3   129  PHE129      0.1605
     56  C         47.4970  -22.5440   36.0080 C.2   129  PHE129      0.2264
     57  O         47.3490  -22.3270   37.2090 O.2   129  PHE129     -0.2867
     58  CB        45.6830  -22.1960   34.3860 C.3   129  PHE129      0.0534
     59  CG        45.2170  -21.0140   35.2000 C.ar  129  PHE129     -0.0203
     60  CD1       44.0190  -21.0560   35.8930 C.ar  129  PHE129     -0.0042
     61  CD2       45.9910  -19.8690   35.2980 C.ar  129  PHE129     -0.0042
     62  CE1       43.5960  -19.9840   36.6510 C.ar  129  PHE129     -0.0003
     63  CE2       45.5670  -18.7920   36.0690 C.ar  129  PHE129     -0.0003
     64  CZ        44.3680  -18.8460   36.7430 C.ar  129  PHE129     -0.0000
     65  N         38.1830  -20.1620   26.2340 N.3   177  GLY177     -0.1225
     66  CA        38.6900  -19.2660   27.2550 C.3   177  GLY177      0.1811
     67  C         38.7850  -19.9010   28.6320 C.2   177  GLY177      0.2280
     68  O         39.5780  -19.4760   29.4460 O.2   177  GLY177     -0.2866
     69  N         41.8870  -23.3630   28.1420 N.3   181  PHE181     -0.1241
     70  CA        42.8830  -22.6070   28.8710 C.3   181  PHE181      0.1605
     71  C         43.4480  -23.4370   30.0300 C.2   181  PHE181      0.2264
     72  O         44.6340  -23.3630   30.3250 O.2   181  PHE181     -0.2867
     73  CB        42.2530  -21.3360   29.4140 C.3   181  PHE181      0.0534
     74  CG        43.2410  -20.3820   30.0240 C.ar  181  PHE181     -0.0203
     75  CD1       43.8570  -19.4050   29.2460 C.ar  181  PHE181     -0.0042
     76  CD2       43.5610  -20.4540   31.3780 C.ar  181  PHE181     -0.0042
     77  CE1       44.7640  -18.5060   29.8120 C.ar  181  PHE181     -0.0003
     78  CE2       44.4620  -19.5570   31.9370 C.ar  181  PHE181     -0.0003
     79  CZ        45.0660  -18.5890   31.1440 C.ar  181  PHE181     -0.0000
@<TRIPOS>BOND
     1    65    66    1
     2    66    67    1
     3    69    70    1
     4    67    68    2
     5    70    73    1
     6    70    71    1
     7    75    77   ar
     8    75    74   ar
     9    73    74    1
    10    77    79   ar
    11    74    76   ar
    12    71    72    2
    13    79    78   ar
    14    76    78   ar
    15    58    59    1
    16    58    55    1
    17    59    61   ar
    18    59    60   ar
    19    55    56    1
    20    55    54    1
    21    61    63   ar
    22    46    45    1
    23    60    62   ar
    24    56    57    2
    25    63    64   ar
    26    62    64   ar
    27    45    47    1
    28    45    44    1
    29    38    37   ar
    30    44    41    1
    31    43    42    2
    32    37    39   ar
    33    37    36    1
    34    32    33    1
    35    41    42    1
    36    41    40    1
    37    33    36    1
    38    33    34    1
    39    42    48   am
    40    51    50    2
    41    50    49    1
    42    48    49    1
    43    34    35    2
    44    49    52    1
    45    29    28    1
    46    29    30    1
    47    52    53    1
    48    15    13   am
    49    14    13    2
    50    28    18   am
    51    30    31    2
    52    13    12    1
    53    23    25   ar
    54    23    21   ar
    55    25    26   ar
    56    20    21    1
    57    20    17    1
    58    18    19    2
    59    18    17    1
    60    21    22   ar
    61    16    17    1
    62    16    10   am
    63    12     9    1
    64    26    27    1
    65    26    24   ar
    66    10     9    1
    67    10    11    2
    68     9     8    1
    69    22    24   ar
    70     6     5    1
    71     5     7    1
    72     5     2    1
    73     4     3    2
    74     3     2    1
    75     2     1    1
