@<TRIPOS>MOLECULE
tmp/4fglD02.pdb
 196 194 0 0 0
SMALL
GASTEIGER

@<TRIPOS>ATOM
      1  N         20.7940  -26.7280   37.4980 N.3    14  HIS14      -0.1241
      2  CA        19.3760  -26.4610   37.2950 C.3    14  HIS14       0.1621
      3  C         18.6690  -26.6450   38.6170 C.2    14  HIS14       0.2264
      4  O         18.9960  -27.5610   39.3780 O.2    14  HIS14      -0.2867
      5  CB        18.7650  -27.3580   36.2280 C.3    14  HIS14       0.0745
      6  CG        17.4940  -26.8140   35.6590 C.ar   14  HIS14       0.0817
      7  ND1       16.3300  -26.7260   36.3810 N.ar   14  HIS14      -0.2268
      8  CD2       17.2120  -26.3030   34.4380 C.ar   14  HIS14       0.1154
      9  CE1       15.3810  -26.1870   35.6370 C.ar   14  HIS14       0.1986
     10  NE2       15.8920  -25.9120   34.4510 N.ar   14  HIS14      -0.2212
     11  N         12.8010  -32.2010   37.7930 N.3    18  LYS18      -0.1231
     12  CA        11.8870  -32.6290   36.7450 C.3    18  LYS18       0.1693
     13  C         12.0940  -31.8590   35.4340 C.2    18  LYS18       0.2593
     14  O         11.4200  -32.1220   34.4320 O.2    18  LYS18      -0.2718
     15  CB        10.4440  -32.4420   37.2200 C.3    18  LYS18       0.0285
     16  CG        10.0920  -33.2970   38.4410 C.3    18  LYS18       0.0035
     17  CD         8.7470  -32.9250   39.0440 C.3    18  LYS18       0.0206
     18  CE         8.4860  -33.7100   40.3200 C.3    18  LYS18       0.1093
     19  NZ         7.2630  -33.2320   41.0260 N.3    18  LYS18      -0.1314
     20  N         13.0460  -30.9290   35.4310 N.am   19  SER19      -0.1938
     21  CA        13.3210  -30.1330   34.2470 C.3    19  SER19       0.2055
     22  C         13.9380  -30.9660   33.1310 C.2    19  SER19       0.2643
     23  O         14.3810  -32.1020   33.3400 O.2    19  SER19      -0.2714
     24  CB        14.2700  -28.9910   34.5880 C.3    19  SER19       0.2130
     25  OG        15.5640  -29.5120   34.8910 O.3    19  SER19      -0.2179
     26  N         13.9810  -30.3980   31.9300 N.am   20  PHE20      -0.1959
     27  CA        14.6720  -31.0370   30.8200 C.3    20  PHE20       0.1771
     28  C         16.1460  -31.2600   31.1600 C.2    20  PHE20       0.2619
     29  O         16.7140  -32.3100   30.8730 O.2    20  PHE20      -0.2715
     30  CB        14.5360  -30.2230   29.5310 C.3    20  PHE20       0.0574
     31  CG        14.8020  -31.0180   28.2740 C.ar   20  PHE20      -0.0200
     32  CD1       13.8380  -31.8600   27.7650 C.ar   20  PHE20      -0.0042
     33  CD2       16.0060  -30.9170   27.5950 C.ar   20  PHE20      -0.0042
     34  CE1       14.0620  -32.5870   26.6230 C.ar   20  PHE20      -0.0003
     35  CE2       16.2270  -31.6530   26.4320 C.ar   20  PHE20      -0.0003
     36  CZ        15.2530  -32.4810   25.9580 C.ar   20  PHE20      -0.0000
     37  N         16.7630  -30.2650   31.7840 N.am   21  ASN21      -0.1972
     38  CA        18.1360  -30.4220   32.2640 C.3    21  ASN21       0.1688
     39  C         18.2730  -31.5820   33.2530 C.2    21  ASN21       0.2292
     40  O         19.2100  -32.3530   33.1760 O.2    21  ASN21      -0.2864
     41  CB        18.6430  -29.1330   32.9100 C.3    21  ASN21       0.1181
     42  CG        19.2910  -28.2040   31.9090 C.2    21  ASN21       0.2629
     43  OD1       20.4980  -28.2380   31.6960 O.2    21  ASN21      -0.2716
     44  ND2       18.4780  -27.3890   31.2610 N.am   21  ASN21      -0.0877
     45  N         16.4400  -34.1910   33.4040 N.3    23  SER23      -0.1217
     46  CA        16.3190  -35.4200   32.6300 C.3    23  SER23       0.1889
     47  C         17.6050  -35.7690   31.9050 C.2    23  SER23       0.2288
     48  O         18.0090  -36.9390   31.8810 O.2    23  SER23      -0.2866
     49  CB        15.1790  -35.3090   31.6290 C.3    23  SER23       0.2089
     50  OG        13.9280  -35.3250   32.2970 O.3    23  SER23      -0.2183
     51  N         21.2600  -24.9610   31.4960 N.3   105  PRO105     -0.2102
     52  CA        20.5390  -24.0980   30.5550 C.3   105  PRO105      0.1504
     53  C         21.3600  -22.8600   30.2280 C.2   105  PRO105      0.2576
     54  O         22.0080  -22.3130   31.1030 O.2   105  PRO105     -0.2718
     55  CB        19.2910  -23.7040   31.3410 C.3   105  PRO105      0.0282
     56  CG        19.7450  -23.6680   32.7550 C.3   105  PRO105      0.0208
     57  CD        20.7940  -24.7740   32.8810 C.3   105  PRO105      0.0893
     58  N         21.3020  -22.4270   28.9780 N.am  106  LEU106     -0.1966
     59  CA        21.9680  -21.2070   28.5590 C.3   106  LEU106      0.1728
     60  C         21.2660  -20.0180   29.2030 C.2   106  LEU106      0.2616
     61  O         20.0660  -19.8390   29.0290 O.2   106  LEU106     -0.2715
     62  CB        21.9120  -21.1180   27.0390 C.3   106  LEU106      0.0311
     63  CG        22.8950  -20.1460   26.3940 C.3   106  LEU106      0.0022
     64  CD1       24.3010  -20.6160   26.5280 C.3   106  LEU106      0.0001
     65  CD2       22.5760  -19.9620   24.9340 C.3   106  LEU106      0.0001
     66  N         22.0330  -19.2300   29.9550 N.am  107  TYR107     -0.1960
     67  CA        21.5680  -17.9680   30.5280 C.3   107  TYR107      0.1771
     68  C         22.4390  -16.8660   29.9470 C.2   107  TYR107      0.2620
     69  O         23.6480  -16.8400   30.1650 O.2   107  TYR107     -0.2715
     70  CB        21.7090  -17.9260   32.0550 C.3   107  TYR107      0.0574
     71  CG        20.6820  -18.6160   32.9170 C.ar  107  TYR107     -0.0198
     72  CD1       19.7800  -19.5490   32.4240 C.ar  107  TYR107     -0.0009
     73  CD2       20.6460  -18.3390   34.2680 C.ar  107  TYR107     -0.0009
     74  CE1       18.8650  -20.1780   33.2750 C.ar  107  TYR107      0.0417
     75  CE2       19.7540  -18.9700   35.1040 C.ar  107  TYR107      0.0417
     76  CZ        18.8730  -19.8790   34.6030 C.ar  107  TYR107      0.1957
     77  OH        17.9880  -20.4850   35.4770 O.3   107  TYR107     -0.2866
     78  N         21.8200  -15.9720   29.1850 N.am  108  TRP108     -0.1960
     79  CA        22.5350  -14.8480   28.5990 C.3   108  TRP108      0.1771
     80  C         23.7750  -15.3020   27.8060 C.2   108  TRP108      0.2619
     81  O         24.8850  -14.7890   27.9780 O.2   108  TRP108     -0.2715
     82  CB        22.8780  -13.7910   29.6590 C.3   108  TRP108      0.0590
     83  CG        21.6510  -13.1560   30.2330 C.ar  108  TRP108      0.0006
     84  CD1       21.2700  -13.1230   31.5410 C.ar  108  TRP108      0.0946
     85  CD2       20.6400  -12.4640   29.5060 C.ar  108  TRP108      0.0152
     86  NE1       20.0800  -12.4560   31.6650 N.ar  108  TRP108     -0.2442
     87  CE2       19.6690  -12.0420   30.4240 C.ar  108  TRP108      0.0810
     88  CE3       20.4630  -12.1600   28.1640 C.ar  108  TRP108      0.0012
     89  CZ2       18.5340  -11.3150   30.0480 C.ar  108  TRP108      0.0191
     90  CZ3       19.3340  -11.4170   27.7820 C.ar  108  TRP108      0.0001
     91  CH2       18.3810  -11.0280   28.7230 C.ar  108  TRP108      0.0015
     92  N         23.5410  -16.2350   26.8850 N.am  109  PHE109     -0.1974
     93  CA        24.5820  -16.7410   25.9900 C.3   109  PHE109      0.1639
     94  C         25.7560  -17.3400   26.7810 C.2   109  PHE109      0.2290
     95  O         26.8680  -17.4050   26.2640 O.2   109  PHE109     -0.2864
     96  CB        25.1150  -15.6330   25.0660 C.3   109  PHE109      0.0560
     97  CG        24.2920  -15.3660   23.8210 C.ar  109  PHE109     -0.0200
     98  CD1       22.9130  -15.3620   23.8530 C.ar  109  PHE109     -0.0042
     99  CD2       24.9210  -15.0600   22.6140 C.ar  109  PHE109     -0.0042
    100  CE1       22.1740  -15.0510   22.6900 C.ar  109  PHE109     -0.0003
    101  CE2       24.1860  -14.7610   21.4670 C.ar  109  PHE109     -0.0003
    102  CZ        22.8200  -14.7510   21.5120 C.ar  109  PHE109     -0.0000
    103  N         21.2150  -26.6250   27.1210 N.3   150  THR150     -0.1203
    104  CA        19.8770  -26.4470   26.5740 C.3   150  THR150      0.1994
    105  C         19.6220  -24.9640   26.3050 C.2   150  THR150      0.2619
    106  O         20.1710  -24.1060   26.9810 O.2   150  THR150     -0.2717
    107  CB        18.7960  -26.9720   27.5330 C.3   150  THR150      0.1784
    108  OG1       18.7980  -26.2100   28.7320 O.3   150  THR150     -0.2211
    109  CG2       19.0650  -28.4080   27.9250 C.3   150  THR150      0.0376
    110  N         18.8010  -24.6620   25.3020 N.am  151  THR151     -0.1938
    111  CA        18.5470  -23.2570   24.9540 C.3   151  THR151      0.2028
    112  C         17.0580  -22.9220   24.9040 C.2   151  THR151      0.2643
    113  O         16.2180  -23.7990   24.7120 O.2   151  THR151     -0.2714
    114  CB        19.0940  -22.9120   23.5750 C.3   151  THR151      0.1808
    115  OG1       18.3600  -23.6390   22.5860 O.3   151  THR151     -0.2208
    116  CG2       20.5680  -23.2370   23.4820 C.3   151  THR151      0.0379
    117  N         16.7400  -21.6340   25.0190 N.am  152  GLY152     -0.1939
    118  CA        15.4220  -21.1240   24.6610 C.3   152  GLY152      0.2014
    119  C         15.3120  -20.9380   23.1560 C.2   152  GLY152      0.2639
    120  O         14.2890  -21.2440   22.5390 O.2   152  GLY152     -0.2714
    121  N         16.3810  -20.4240   22.5630 N.am  153  GLY153     -0.1954
    122  CA        16.4110  -20.1110   21.1480 C.3   153  GLY153      0.1869
    123  C         16.4830  -21.3560   20.2780 C.2   153  GLY153      0.2309
    124  O         17.0200  -22.4010   20.6750 O.2   153  GLY153     -0.2863
    125  N         20.3840  -19.7870   16.1000 N.3   158  TYR158     -0.1241
    126  CA        21.8010  -19.9730   16.3970 C.3   158  TYR158      0.1605
    127  C         22.6020  -20.4350   15.1730 C.2   158  TYR158      0.2264
    128  O         23.3650  -21.3900   15.2320 O.2   158  TYR158     -0.2867
    129  CB        21.9860  -20.9360   17.5830 C.3   158  TYR158      0.0534
    130  CG        21.6310  -20.3010   18.9090 C.ar  158  TYR158     -0.0201
    131  CD1       22.4190  -19.3020   19.4470 C.ar  158  TYR158     -0.0009
    132  CD2       20.4970  -20.6830   19.6010 C.ar  158  TYR158     -0.0009
    133  CE1       22.0830  -18.7080   20.6560 C.ar  158  TYR158      0.0417
    134  CE2       20.1560  -20.1100   20.7870 C.ar  158  TYR158      0.0417
    135  CZ        20.9410  -19.1290   21.3190 C.ar  158  TYR158      0.1957
    136  OH        20.6010  -18.5340   22.5010 O.3   158  TYR158     -0.2866
    137  N         20.8080  -14.8130   16.4510 N.3   164  ASN164     -0.1240
    138  CA        21.6690  -14.9960   17.6140 C.3   164  ASN164      0.1653
    139  C         23.0940  -15.3750   17.2400 C.2   164  ASN164      0.2266
    140  O         23.9240  -15.5060   18.1330 O.2   164  ASN164     -0.2867
    141  CB        21.0870  -16.0540   18.5460 C.3   164  ASN164      0.1155
    142  CG        19.9570  -15.5270   19.4100 C.2   164  ASN164      0.2627
    143  OD1       19.5940  -14.3530   19.3710 O.2   164  ASN164     -0.2716
    144  ND2       19.3870  -16.4140   20.2110 N.am  164  ASN164     -0.0877
    145  N         13.8640  -26.9650   23.9400 N.3   195  PRO195     -0.2102
    146  CA        12.9130  -27.9760   24.4210 C.3   195  PRO195      0.1504
    147  C         11.5790  -27.3840   24.8690 C.2   195  PRO195      0.2575
    148  O         10.5570  -28.0800   24.7960 O.2   195  PRO195     -0.2718
    149  CB        13.6450  -28.6070   25.6210 C.3   195  PRO195      0.0282
    150  CG        14.6570  -27.5630   26.0410 C.3   195  PRO195      0.0208
    151  CD        15.0900  -26.9220   24.7630 C.3   195  PRO195      0.0893
    152  N         11.5770  -26.1350   25.3220 N.am  196  GLU196     -0.1980
    153  CA        10.3610  -25.5260   25.8630 C.3   196  GLU196      0.1602
    154  C          9.2640  -25.3060   24.8290 C.2   196  GLU196      0.2287
    155  O          8.0990  -25.1380   25.1990 O.2   196  GLU196     -0.2864
    156  CB        10.6640  -24.1900   26.5230 C.3   196  GLU196      0.0415
    157  CG        11.1930  -24.3070   27.9170 C.3   196  GLU196      0.1163
    158  CD        11.7620  -23.0030   28.3980 C.2   196  GLU196      0.3649
    159  OE1       12.7420  -22.5310   27.7810 O.co2 196  GLU196     -0.2457
    160  OE2       11.2180  -22.4480   29.3780 O.co2 196  GLU196     -0.2457
    161  N          6.2440  -33.1520   22.3780 N.3   200  GLU200     -0.1245
    162  CA         6.5810  -34.3340   23.1650 C.3   200  GLU200      0.1567
    163  C          7.5830  -35.2090   22.4220 C.2   200  GLU200      0.2260
    164  O          8.6230  -35.5860   22.9650 O.2   200  GLU200     -0.2867
    165  CB         5.3170  -35.1490   23.4390 C.3   200  GLU200      0.0388
    166  CG         5.5250  -36.3390   24.3630 C.3   200  GLU200      0.1160
    167  CD         5.5610  -35.9380   25.8230 C.2   200  GLU200      0.3649
    168  OE1        5.4620  -34.7250   26.1080 O.co2 200  GLU200     -0.2457
    169  OE2        5.6810  -36.8330   26.6860 O.co2 200  GLU200     -0.2457
    170  N         11.0730  -33.6510   22.1930 N.3   203  ARG203     -0.1231
    171  CA        11.7640  -33.6000   23.4720 C.3   203  ARG203      0.1694
    172  C         12.3050  -34.9760   23.8320 C.2   203  ARG203      0.2591
    173  O         13.4580  -35.1120   24.2250 O.2   203  ARG203     -0.2718
    174  CB        10.8320  -33.0760   24.5640 C.3   203  ARG203      0.0321
    175  CG        10.4260  -31.6210   24.3530 C.3   203  ARG203      0.0489
    176  CD         9.8350  -30.9950   25.6000 C.3   203  ARG203      0.2205
    177  NE         8.8240  -31.8330   26.2310 N.pl3 203  ARG203     -0.0865
    178  CZ         7.5490  -31.9000   25.8610 C.cat 203  ARG203      0.5346
    179  NH1        7.1030  -31.1900   24.8320 N.pl3 203  ARG203      0.1354
    180  NH2        6.7160  -32.6960   26.5220 N.pl3 203  ARG203      0.1354
    181  N         11.4700  -35.9990   23.6840 N.am  204  LYS204     -0.1980
    182  CA        11.8980  -37.3650   23.9580 C.3   204  LYS204      0.1596
    183  C         13.0500  -37.7370   23.0310 C.2   204  LYS204      0.2287
    184  O         14.0010  -38.4040   23.4470 O.2   204  LYS204     -0.2864
    185  CB        10.7270  -38.3350   23.7790 C.3   204  LYS204      0.0298
    186  CG         9.6460  -38.2180   24.8440 C.3   204  LYS204      0.0038
    187  CD        10.1580  -38.5560   26.2390 C.3   204  LYS204      0.0206
    188  CE         9.0070  -38.5860   27.2400 C.3   204  LYS204      0.1093
    189  NZ         9.4550  -38.7750   28.6490 N.3   204  LYS204     -0.1314
    190  N         16.3340  -36.2530   24.2610 N.3   207  VAL207     -0.1245
    191  CA        16.8480  -37.0080   25.3970 C.3   207  VAL207      0.1561
    192  C         17.4520  -38.3220   24.9290 C.2   207  VAL207      0.2260
    193  O         18.5310  -38.7090   25.3690 O.2   207  VAL207     -0.2867
    194  CB        15.7630  -37.3090   26.4460 C.3   207  VAL207      0.0252
    195  CG1       16.3310  -38.1870   27.5610 C.3   207  VAL207      0.0019
    196  CG2       15.1980  -36.0210   27.0160 C.3   207  VAL207      0.0019
@<TRIPOS>BOND
     1   127   128    2
     2   127   126    1
     3   125   126    1
     4   126   129    1
     5   137   138    1
     6   139   138    1
     7   139   140    2
     8   129   130    1
     9   138   141    1
    10   141   142    1
    11   130   131   ar
    12   130   132   ar
    13   143   142    2
    14   142   144   am
    15   131   133   ar
    16   132   134   ar
    17   123   124    2
    18   123   122    1
    19   133   135   ar
    20   134   135   ar
    21   122   121    1
    22   135   136    1
    23   101   102   ar
    24   101    99   ar
    25   102   100   ar
    26   170   171    1
    27   161   162    1
    28   163   164    2
    29   163   162    1
    30   120   119    2
    31   121   119   am
    32   115   114    1
    33    99    97   ar
    34   100    98   ar
    35   183   184    2
    36   183   182    1
    37   119   118    1
    38   162   165    1
    39   165   166    1
    40   171   172    1
    41   171   174    1
    42   116   114    1
    43   114   111    1
    44   181   172   am
    45   181   182    1
    46   185   182    1
    47   185   186    1
    48    97    98   ar
    49    97    96    1
    50   172   173    2
    51   145   146    1
    52   145   151    1
    53   190   191    1
    54   175   174    1
    55   175   176    1
    56   166   167    1
    57   146   147    1
    58   146   149    1
    59   118   117    1
    60   113   112    2
    61   151   150    1
    62   148   147    2
    63   154   155    2
    64   154   153    1
    65   179   178    1
    66   186   187    1
    67   147   152   am
    68   112   111    1
    69   112   117   am
    70   192   193    2
    71   192   191    1
    72    65    63    1
    73   111   110    1
    74    96    93    1
    75   110   105   am
    76   152   153    1
    77   191   194    1
    78   176   177    1
    79   149   150    1
    80   167   168   ar
    81   167   169   ar
    82   178   177    2
    83   178   180    1
    84   153   156    1
    85    36    35   ar
    86    36    34   ar
    87    93    94    1
    88    93    92    1
    89   187   188    1
    90    95    94    2
    91   105   104    1
    92   105   106    2
    93    63    64    1
    94    63    62    1
    95    35    33   ar
    96   194   196    1
    97   194   195    1
    98   156   157    1
    99   104   103    1
   100   104   107    1
   101    34    32   ar
   102    92    80   am
   103    62    59    1
   104   188   189    1
   105   107   109    1
   106   107   108    1
   107    33    31   ar
   108    32    31   ar
   109   159   158   ar
   110    90    88   ar
   111    90    91   ar
   112    80    81    2
   113    80    79    1
   114   157   158    1
   115    88    85   ar
   116    31    30    1
   117   158   160   ar
   118    59    58    1
   119    59    60    1
   120    79    78    1
   121    79    82    1
   122    91    89   ar
   123    58    53   am
   124    61    60    2
   125    78    68   am
   126    60    66   am
   127    85    83   ar
   128    85    87   ar
   129    30    27    1
   130    82    83    1
   131    68    69    2
   132    68    67    1
   133    66    67    1
   134    89    87   ar
   135    53    52    1
   136    53    54    2
   137    83    84   ar
   138    87    86   ar
   139    67    70    1
   140    52    55    1
   141    52    51    1
   142    27    28    1
   143    27    26    1
   144    29    28    2
   145    28    37   am
   146    44    42   am
   147    55    56    1
   148    51    57    1
   149    84    86   ar
   150    49    50    1
   151    49    46    1
   152    43    42    2
   153    37    38    1
   154    48    47    2
   155    47    46    1
   156    42    41    1
   157    26    22   am
   158    70    71    1
   159    38    41    1
   160    38    39    1
   161    72    71   ar
   162    72    74   ar
   163    46    45    1
   164    56    57    1
   165    71    73   ar
   166    22    23    2
   167    22    21    1
   168    40    39    2
   169    74    76   ar
   170    21    24    1
   171    21    20    1
   172    73    75   ar
   173    14    13    2
   174     8    10   ar
   175     8     6   ar
   176    10     9   ar
   177    24    25    1
   178    76    75   ar
   179    76    77    1
   180    20    13   am
   181    13    12    1
   182     9     7   ar
   183     6     5    1
   184     6     7   ar
   185     5     2    1
   186    12    15    1
   187    12    11    1
   188    15    16    1
   189     2     1    1
   190     2     3    1
   191    16    17    1
   192     3     4    2
   193    17    18    1
   194    18    19    1
