@<TRIPOS>MOLECULE
tmp/4fglD01.pdb
 86 83 0 0 0
SMALL
GASTEIGER

@<TRIPOS>ATOM
      1  N         43.9140   -8.9370   46.3190 N.3    69  ASN69      -0.1240
      2  CA        43.9650   -9.3840   44.9370 C.3    69  ASN69       0.1653
      3  C         43.5320  -10.8470   44.8910 C.2    69  ASN69       0.2266
      4  O         44.2680  -11.7170   45.3500 O.2    69  ASN69      -0.2867
      5  CB        45.3980   -9.2210   44.4250 C.3    69  ASN69       0.1155
      6  CG        45.5560   -9.6390   42.9800 C.2    69  ASN69       0.2627
      7  OD1       45.0700  -10.6830   42.5550 O.2    69  ASN69      -0.2716
      8  ND2       46.2550   -8.8110   42.2090 N.am   69  ASN69      -0.0877
      9  N         43.0910  -13.2900   42.6390 N.3    71  GLY71      -0.1210
     10  CA        43.9350  -14.2530   41.9500 C.3    71  GLY71       0.1956
     11  C         45.1960  -14.5920   42.7160 C.2    71  GLY71       0.2611
     12  O         45.5530  -15.7560   42.8620 O.2    71  GLY71      -0.2717
     13  N         45.8780  -13.5660   43.2040 N.am   72  VAL72      -0.1979
     14  CA        47.1290  -13.7580   43.9270 C.3    72  VAL72       0.1595
     15  C         46.8720  -14.5150   45.2280 C.2    72  VAL72       0.2287
     16  O         47.6010  -15.4310   45.5730 O.2    72  VAL72      -0.2864
     17  CB        47.8300  -12.4170   44.2490 C.3    72  VAL72       0.0276
     18  CG1       48.9220  -12.6230   45.2930 C.3    72  VAL72       0.0022
     19  CG2       48.4120  -11.7880   42.9820 C.3    72  VAL72       0.0022
     20  N         45.8310  -18.1470   44.6700 N.3    75  HIS75      -0.1241
     21  CA        46.9680  -18.9220   44.2000 C.3    75  HIS75       0.1621
     22  C         47.8250  -19.3740   45.3850 C.2    75  HIS75       0.2264
     23  O         48.2030  -20.5330   45.4770 O.2    75  HIS75      -0.2867
     24  CB        47.8060  -18.0860   43.2340 C.3    75  HIS75       0.0745
     25  CG        48.9330  -18.8380   42.6030 C.ar   75  HIS75       0.0817
     26  ND1       49.9670  -18.2010   41.9570 N.ar   75  HIS75      -0.2268
     27  CD2       49.1830  -20.1630   42.4990 C.ar   75  HIS75       0.1154
     28  CE1       50.8150  -19.1020   41.4940 C.ar   75  HIS75       0.1986
     29  NE2       50.3570  -20.3010   41.7980 N.ar   75  HIS75      -0.2212
     30  N         44.3440  -20.5240   40.0380 N.3   125  GLN125     -0.1245
     31  CA        45.7380  -20.5780   39.6810 C.3   125  GLN125      0.1566
     32  C         46.4770  -21.5530   40.6080 C.2   125  GLN125      0.2260
     33  O         46.2440  -21.5720   41.8230 O.2   125  GLN125     -0.2867
     34  CB        46.3280  -19.1650   39.7390 C.3   125  GLN125      0.0367
     35  CG        47.6760  -19.0310   39.0610 C.3   125  GLN125      0.0905
     36  CD        48.1920  -17.5960   38.9700 C.2   125  GLN125      0.2608
     37  OE1       49.3550  -17.3630   38.6340 O.2   125  GLN125     -0.2717
     38  NE2       47.3400  -16.6380   39.2690 N.am  125  GLN125     -0.0878
     39  N         45.5430  -23.9030   36.1390 N.3   129  PHE129     -0.1241
     40  CA        46.4370  -23.2470   35.2020 C.3   129  PHE129      0.1605
     41  C         47.4970  -22.5440   36.0080 C.2   129  PHE129      0.2264
     42  O         47.3490  -22.3270   37.2090 O.2   129  PHE129     -0.2867
     43  CB        45.6830  -22.1960   34.3860 C.3   129  PHE129      0.0534
     44  CG        45.2170  -21.0140   35.2000 C.ar  129  PHE129     -0.0203
     45  CD1       44.0190  -21.0560   35.8930 C.ar  129  PHE129     -0.0042
     46  CD2       45.9910  -19.8690   35.2980 C.ar  129  PHE129     -0.0042
     47  CE1       43.5960  -19.9840   36.6510 C.ar  129  PHE129     -0.0003
     48  CE2       45.5670  -18.7920   36.0690 C.ar  129  PHE129     -0.0003
     49  CZ        44.3680  -18.8460   36.7430 C.ar  129  PHE129     -0.0000
     50  N         50.4130  -19.0990   35.2540 N.3   131  ILE131     -0.1231
     51  CA        50.7900  -18.0370   34.3300 C.3   131  ILE131      0.1678
     52  C         52.3120  -17.8840   34.3690 C.2   131  ILE131      0.2434
     53  O         52.8470  -17.2860   35.2990 O.2   131  ILE131     -0.2733
     54  CB        50.1510  -16.6870   34.7050 C.3   131  ILE131      0.0265
     55  CG1       48.6180  -16.7930   34.8220 C.3   131  ILE131      0.0019
     56  CG2       50.5400  -15.6310   33.6690 C.3   131  ILE131      0.0020
     57  CD1       47.8650  -16.9990   33.4960 C.3   131  ILE131      0.0001
     58  N         53.0200  -18.4370   33.3730 N.am  132  PRO132     -0.2729
     59  CA        52.4840  -19.1930   32.2380 C.3   132  PRO132      0.1401
     60  C         52.1370  -20.6140   32.6510 C.2   132  PRO132      0.2269
     61  O         52.4410  -21.0020   33.7820 O.2   132  PRO132     -0.2865
     62  CB        53.6480  -19.2010   31.2480 C.3   132  PRO132      0.0296
     63  CG        54.8600  -19.1680   32.1130 C.3   132  PRO132      0.0237
     64  CD        54.4930  -18.3400   33.3150 C.3   132  PRO132      0.0939
     65  N         49.2200  -22.6110   30.5000 N.3   134  PHE134     -0.1241
     66  CA        47.8190  -22.5910   30.1110 C.3   134  PHE134      0.1605
     67  C         47.6740  -23.0810   28.6630 C.2   134  PHE134      0.2264
     68  O         48.6660  -23.3720   27.9860 O.2   134  PHE134     -0.2867
     69  CB        47.1790  -21.2000   30.3510 C.3   134  PHE134      0.0534
     70  CG        47.9330  -20.0250   29.7480 C.ar  134  PHE134     -0.0203
     71  CD1       47.7470  -19.6680   28.4260 C.ar  134  PHE134     -0.0042
     72  CD2       48.7720  -19.2390   30.5310 C.ar  134  PHE134     -0.0042
     73  CE1       48.4160  -18.5700   27.8780 C.ar  134  PHE134     -0.0003
     74  CE2       49.4550  -18.1520   29.9850 C.ar  134  PHE134     -0.0003
     75  CZ        49.2710  -17.8190   28.6620 C.ar  134  PHE134     -0.0000
     76  N         41.8870  -23.3630   28.1420 N.3   181  PHE181     -0.1241
     77  CA        42.8830  -22.6070   28.8710 C.3   181  PHE181      0.1605
     78  C         43.4480  -23.4370   30.0300 C.2   181  PHE181      0.2264
     79  O         44.6340  -23.3630   30.3250 O.2   181  PHE181     -0.2867
     80  CB        42.2530  -21.3360   29.4140 C.3   181  PHE181      0.0534
     81  CG        43.2410  -20.3820   30.0240 C.ar  181  PHE181     -0.0203
     82  CD1       43.8570  -19.4050   29.2460 C.ar  181  PHE181     -0.0042
     83  CD2       43.5610  -20.4540   31.3780 C.ar  181  PHE181     -0.0042
     84  CE1       44.7640  -18.5060   29.8120 C.ar  181  PHE181     -0.0003
     85  CE2       44.4620  -19.5570   31.9370 C.ar  181  PHE181     -0.0003
     86  CZ        45.0660  -18.5890   31.1440 C.ar  181  PHE181     -0.0000
@<TRIPOS>BOND
     1    73    71   ar
     2    73    75   ar
     3    68    67    2
     4    76    77    1
     5    71    70   ar
     6    75    74   ar
     7    67    66    1
     8    77    80    1
     9    77    78    1
    10    82    84   ar
    11    82    81   ar
    12    80    81    1
    13    70    69    1
    14    70    72   ar
    15    84    86   ar
    16    74    72   ar
    17    81    83   ar
    18    78    79    2
    19    66    69    1
    20    66    65    1
    21    86    85   ar
    22    62    63    1
    23    62    59    1
    24    83    85   ar
    25    63    64    1
    26    59    60    1
    27    59    58    1
    28    60    61    2
    29    64    58    1
    30    58    52   am
    31    57    55    1
    32    56    54    1
    33    51    52    1
    34    51    54    1
    35    51    50    1
    36    52    53    2
    37    43    44    1
    38    43    40    1
    39    54    55    1
    40    44    46   ar
    41    44    45   ar
    42    40    41    1
    43    40    39    1
    44    46    48   ar
    45    45    47   ar
    46    41    42    2
    47    48    49   ar
    48    47    49   ar
    49    37    36    2
    50    36    35    1
    51    36    38   am
    52    35    34    1
    53    31    34    1
    54    31    30    1
    55    31    32    1
    56    32    33    2
    57    28    29   ar
    58    28    26   ar
    59    29    27   ar
    60    10     9    1
    61    10    11    1
    62    26    25   ar
    63     8     6   am
    64    27    25   ar
    65     7     6    2
    66    25    24    1
    67    11    12    2
    68    11    13   am
    69     6     5    1
    70    19    17    1
    71    13    14    1
    72    24    21    1
    73    14    17    1
    74    14    15    1
    75    21    20    1
    76    21    22    1
    77    17    18    1
    78     5     2    1
    79     3     2    1
    80     3     4    2
    81     2     1    1
    82    15    16    2
    83    22    23    2
