@<TRIPOS>MOLECULE
tmp/4fgmA00.pdb
 115 111 0 0 0
SMALL
GASTEIGER

@<TRIPOS>ATOM
      1  N         46.3660   36.2100  101.5100 N.3    38  GLY38      -0.1210
      2  CA        45.5820   35.0170  101.7590 C.3    38  GLY38       0.1956
      3  C         46.2540   34.0100  102.6700 C.2    38  GLY38       0.2612
      4  O         45.6030   33.1080  103.1520 O.2    38  GLY38      -0.2717
      5  N         47.5520   34.1610  102.9040 N.am   39  SER39      -0.1952
      6  CA        48.2930   33.2500  103.7690 C.3    39  SER39       0.1924
      7  C         49.1100   34.1470  104.6890 C.2    39  SER39       0.2314
      8  O         50.2060   34.6030  104.3410 O.2    39  SER39      -0.2863
      9  CB        49.2070   32.3580  102.9310 C.3    39  SER39       0.2116
     10  OG        49.7510   31.3170  103.7140 O.3    39  SER39      -0.2180
     11  N         50.3050   25.5790   97.4410 N.3    93  VAL93      -0.1231
     12  CA        49.5830   26.5710   96.6230 C.3    93  VAL93       0.1692
     13  C         50.1000   27.9510   96.8870 C.2    93  VAL93       0.2591
     14  O         49.6200   28.9510   96.3680 O.2    93  VAL93      -0.2718
     15  CB        48.1020   26.5360   96.9550 C.3    93  VAL93       0.0266
     16  CG1       47.5560   25.1650   96.6670 C.3    93  VAL93       0.0020
     17  CG2       47.8690   26.9080   98.4360 C.3    93  VAL93       0.0020
     18  N         51.1170   27.9800   97.7180 N.am   94  ARG94      -0.1980
     19  CA        51.6770   29.2340   98.1530 C.3    94  ARG94       0.1597
     20  C         52.9590   29.7680   97.4810 C.2    94  ARG94       0.2287
     21  O         53.0330   30.9430   97.2830 O.2    94  ARG94      -0.2864
     22  CB        51.8080   29.1340   99.6770 C.3    94  ARG94       0.0334
     23  CG        50.3830   29.1520  100.3250 C.3    94  ARG94       0.0492
     24  CD        50.2420   28.7590  101.7950 C.3    94  ARG94       0.2205
     25  NE        50.4190   27.3250  101.9960 N.pl3  94  ARG94      -0.0865
     26  CZ        51.5520   26.7630  102.4040 C.cat  94  ARG94       0.5346
     27  NH1       52.6090   27.5170  102.6660 N.pl3  94  ARG94       0.1354
     28  NH2       51.6350   25.4450  102.5290 N.pl3  94  ARG94       0.1354
     29  N         44.9980   21.8320  100.6810 N.3   232  GLY232     -0.1210
     30  CA        45.3080   23.2440  100.7000 C.3   232  GLY232      0.1956
     31  C         44.7790   23.9780   99.4890 C.2   232  GLY232      0.2612
     32  O         44.6020   23.3930   98.4120 O.2   232  GLY232     -0.2717
     33  N         44.5230   25.2680   99.6800 N.am  233  GLY233     -0.1942
     34  CA        44.0240   26.1030   98.6070 C.3   233  GLY233      0.2014
     35  C         44.2630   27.5660   98.9160 C.2   233  GLY233      0.2639
     36  O         44.3660   27.9540  100.0780 O.2   233  GLY233     -0.2714
     37  N         44.3790   28.3750   97.8700 N.am  234  LEU234     -0.1963
     38  CA        44.5860   29.8090   98.0290 C.3   234  LEU234      0.1728
     39  C         43.6810   30.5210   97.0340 C.2   234  LEU234      0.2616
     40  O         43.7340   30.2690   95.8350 O.2   234  LEU234     -0.2715
     41  CB        46.0530   30.1870   97.7840 C.3   234  LEU234      0.0311
     42  CG        46.3910   31.6600   98.0570 C.3   234  LEU234      0.0022
     43  CD1       45.9040   32.0500   99.4510 C.3   234  LEU234      0.0001
     44  CD2       47.8840   31.8840   97.9280 C.3   234  LEU234      0.0001
     45  N         42.8340   31.3980   97.5510 N.am  235  GLU235     -0.1977
     46  CA        41.8910   32.1380   96.7300 C.3   235  GLU235      0.1602
     47  C         42.5420   33.2470   95.9200 C.2   235  GLU235      0.2287
     48  O         43.5800   33.7860   96.3010 O.2   235  GLU235     -0.2864
     49  CB        40.8090   32.7590   97.6110 C.3   235  GLU235      0.0415
     50  CG        41.3190   33.8710   98.5090 C.3   235  GLU235      0.1163
     51  CD        41.9920   33.3590   99.7650 C.2   235  GLU235      0.3649
     52  OE1       42.3640   32.1670   99.8080 O.co2 235  GLU235     -0.2457
     53  OE2       42.1570   34.1560  100.7090 O.co2 235  GLU235     -0.2457
     54  N         34.8330   26.7010   99.0930 N.3   269  HIS269     -0.1226
     55  CA        35.4740   27.6330  100.0070 C.3   269  HIS269      0.1752
     56  C         36.2830   28.7060   99.2520 C.2   269  HIS269      0.2595
     57  O         36.1530   29.9100   99.5160 O.2   269  HIS269     -0.2718
     58  CB        36.3920   26.8520  100.9580 C.3   269  HIS269      0.0759
     59  CG        37.0440   27.6930  102.0090 C.ar  269  HIS269      0.0818
     60  ND1       36.5630   27.7740  103.2990 N.ar  269  HIS269     -0.2268
     61  CD2       38.1350   28.4930  101.9630 C.ar  269  HIS269      0.1154
     62  CE1       37.3310   28.5860  104.0050 C.ar  269  HIS269      0.1986
     63  NE2       38.2920   29.0360  103.2180 N.ar  269  HIS269     -0.2212
     64  N         37.1180   28.2760   98.3100 N.am  270  GLU270     -0.1979
     65  CA        37.9330   29.2300   97.5680 C.3   270  GLU270      0.1602
     66  C         37.0770   30.1240   96.6720 C.2   270  GLU270      0.2287
     67  O         37.3190   31.3270   96.5660 O.2   270  GLU270     -0.2864
     68  CB        38.9790   28.4880   96.7340 C.3   270  GLU270      0.0415
     69  CG        39.8970   27.5540   97.5310 C.3   270  GLU270      0.1163
     70  CD        40.4840   28.1970   98.7770 C.2   270  GLU270      0.3649
     71  OE1       40.6610   29.4300   98.7950 O.co2 270  GLU270     -0.2457
     72  OE2       40.7850   27.4680   99.7430 O.co2 270  GLU270     -0.2457
     73  N         35.4340   32.8540   98.4460 N.3   273  HIS273     -0.1241
     74  CA        36.4520   33.8620   98.7500 C.3   273  HIS273      0.1621
     75  C         36.5340   34.9090   97.6280 C.2   273  HIS273      0.2264
     76  O         37.0330   36.0280   97.8500 O.2   273  HIS273     -0.2867
     77  CB        37.8300   33.2110   98.9470 C.3   273  HIS273      0.0745
     78  CG        38.1350   32.8530  100.3700 C.ar  273  HIS273      0.0817
     79  ND1       37.8800   33.7010  101.4310 N.ar  273  HIS273     -0.2268
     80  CD2       38.7360   31.7650  100.9010 C.ar  273  HIS273      0.1154
     81  CE1       38.3140   33.1520  102.5490 C.ar  273  HIS273      0.1986
     82  NE2       38.8390   31.9770  102.2530 N.ar  273  HIS273     -0.2212
     83  N         37.2910   34.5230  107.2050 N.3   303  GLU303     -0.1245
     84  CA        37.5630   33.0950  107.1850 C.3   303  GLU303      0.1567
     85  C         36.3780   32.3600  107.8070 C.2   303  GLU303      0.2260
     86  O         35.9640   31.3110  107.3100 O.2   303  GLU303     -0.2867
     87  CB        38.8540   32.7660  107.9400 C.3   303  GLU303      0.0388
     88  CG        40.1310   33.1410  107.1900 C.3   303  GLU303      0.1160
     89  CD        40.1950   32.5420  105.7930 C.2   303  GLU303      0.3649
     90  OE1       39.3560   31.6830  105.4750 O.co2 303  GLU303     -0.2457
     91  OE2       41.0880   32.9270  105.0150 O.co2 303  GLU303     -0.2457
     92  N         49.4450   30.7230  112.6250 N.3   358  TYR358     -0.1241
     93  CA        50.3120   30.1310  111.6030 C.3   358  TYR358      0.1605
     94  C         51.6090   29.5080  112.1150 C.2   358  TYR358      0.2264
     95  O         52.2520   28.7470  111.4060 O.2   358  TYR358     -0.2867
     96  CB        50.6360   31.1540  110.5050 C.3   358  TYR358      0.0534
     97  CG        49.5510   31.2610  109.4580 C.ar  358  TYR358     -0.0201
     98  CD1       48.4450   32.0880  109.6480 C.ar  358  TYR358     -0.0009
     99  CD2       49.6170   30.5060  108.2860 C.ar  358  TYR358     -0.0009
    100  CE1       47.4340   32.1580  108.6950 C.ar  358  TYR358      0.0417
    101  CE2       48.6170   30.5670  107.3310 C.ar  358  TYR358      0.0417
    102  CZ        47.5250   31.3950  107.5360 C.ar  358  TYR358      0.1957
    103  OH        46.5370   31.4610  106.5750 O.3   358  TYR358     -0.2866
    104  N         38.6810   30.2020  112.2740 N.3   372  TYR372     -0.1241
    105  CA        38.0290   29.4870  111.1830 C.3   372  TYR372      0.1605
    106  C         36.8120   28.7820  111.7650 C.2   372  TYR372      0.2264
    107  O         35.6750   29.0430  111.3730 O.2   372  TYR372     -0.2867
    108  CB        38.9490   28.4110  110.6010 C.3   372  TYR372      0.0534
    109  CG        39.9580   28.8910  109.5970 C.ar  372  TYR372     -0.0201
    110  CD1       39.6090   29.0650  108.2570 C.ar  372  TYR372     -0.0009
    111  CD2       41.2740   29.1430  109.9750 C.ar  372  TYR372     -0.0009
    112  CE1       40.5510   29.4730  107.3170 C.ar  372  TYR372      0.0417
    113  CE2       42.2210   29.5510  109.0440 C.ar  372  TYR372      0.0417
    114  CZ        41.8510   29.7090  107.7200 C.ar  372  TYR372      0.1957
    115  OH        42.7910   30.0740  106.7960 O.3   372  TYR372     -0.2866
@<TRIPOS>BOND
     1    40    39    2
     2    47    48    2
     3    47    46    1
     4    14    13    2
     5    67    66    2
     6    12    13    1
     7    12    15    1
     8    12    11    1
     9    16    15    1
    10    66    65    1
    11    46    45    1
    12    46    49    1
    13    68    69    1
    14    68    65    1
    15    13    18   am
    16    15    17    1
    17    39    45   am
    18    39    38    1
    19    21    20    2
    20    20    19    1
    21    69    70    1
    22    65    64    1
    23    49    50    1
    24    75    76    2
    25    75    74    1
    26    18    19    1
    27    41    38    1
    28    41    42    1
    29    37    38    1
    30    37    35   am
    31    44    42    1
    32    42    43    1
    33    19    22    1
    34    64    56   am
    35    32    31    2
    36    73    74    1
    37    50    51    1
    38    34    35    1
    39    34    33    1
    40    74    77    1
    41    70    71   ar
    42    70    72   ar
    43    35    36    2
    44    77    78    1
    45    54    55    1
    46    56    57    2
    47    56    55    1
    48    31    33   am
    49    31    30    1
    50    22    23    1
    51    51    52   ar
    52    51    53   ar
    53    55    58    1
    54    23    24    1
    55    78    80   ar
    56    78    79   ar
    57    29    30    1
    58    80    82   ar
    59    58    59    1
    60    79    81   ar
    61     1     2    1
    62     2     3    1
    63    24    25    1
    64    61    59   ar
    65    61    63   ar
    66    25    26    2
    67    59    60   ar
    68    82    81   ar
    69    26    28    1
    70    26    27    1
    71     3     5   am
    72     3     4    2
    73     5     6    1
    74     9    10    1
    75     9     6    1
    76    63    62   ar
    77    60    62   ar
    78     6     7    1
    79     8     7    2
    80    91    89   ar
    81    90    89   ar
    82    89    88    1
    83   103   102    1
    84   115   114    1
    85    84    83    1
    86    84    85    1
    87    84    87    1
    88    88    87    1
    89    86    85    2
    90   112   114   ar
    91   112   110   ar
    92   101   102   ar
    93   101    99   ar
    94   102   100   ar
    95   114   113   ar
    96   110   109   ar
    97    99    97   ar
    98   100    98   ar
    99   113   111   ar
   100    97    98   ar
   101    97    96    1
   102   109   111   ar
   103   109   108    1
   104    96    93    1
   105   108   105    1
   106   105   106    1
   107   105   104    1
   108   107   106    2
   109    95    94    2
   110    93    94    1
   111    93    92    1
