@<TRIPOS>MOLECULE
tmp/4fgrA00.pdb
 155 145 0 0 0
SMALL
GASTEIGER

@<TRIPOS>ATOM
      1  N          5.5600  -15.2890   11.2440 N.3     7  TYR7       -0.1241
      2  CA         4.5030  -14.3050   10.9930 C.3     7  TYR7        0.1605
      3  C          4.4480  -13.7170    9.5880 C.2     7  TYR7        0.2264
      4  O          5.4750  -13.5230    8.9290 O.2     7  TYR7       -0.2867
      5  CB         4.4270  -13.1810   12.0420 C.3     7  TYR7        0.0534
      6  CG         5.7060  -12.6940   12.6950 C.ar    7  TYR7       -0.0201
      7  CD1        6.6660  -12.0010   11.9700 C.ar    7  TYR7       -0.0009
      8  CD2        5.9110  -12.8560   14.0770 C.ar    7  TYR7       -0.0009
      9  CE1        7.8190  -11.5270   12.5900 C.ar    7  TYR7        0.0417
     10  CE2        7.0530  -12.3740   14.7020 C.ar    7  TYR7        0.0417
     11  CZ         8.0050  -11.7070   13.9550 C.ar    7  TYR7        0.1957
     12  OH         9.1450  -11.2140   14.5540 O.3     7  TYR7       -0.2866
     13  N          3.6700  -10.5530    7.2330 N.3     9  GLY9       -0.1210
     14  CA         3.6620   -9.0890    7.2380 C.3     9  GLY9        0.1956
     15  C          2.9220   -8.5460    6.0270 C.2     9  GLY9        0.2612
     16  O          2.2870   -9.3010    5.2860 O.2     9  GLY9       -0.2717
     17  N          2.9810   -7.2330    5.8230 N.am   10  LYS10      -0.1965
     18  CA         2.4320   -6.6400    4.6020 C.3    10  LYS10       0.1728
     19  C          3.3850   -6.8480    3.4310 C.2    10  LYS10       0.2616
     20  O          2.9350   -6.9620    2.3010 O.2    10  LYS10      -0.2715
     21  CB         2.1540   -5.1420    4.7650 C.3    10  LYS10       0.0311
     22  CG         1.2640   -4.7720    5.9340 C.3    10  LYS10       0.0038
     23  CD         0.7170   -3.3550    5.7730 C.3    10  LYS10       0.0206
     24  CE         0.5980   -2.6410    7.1040 C.3    10  LYS10       0.1093
     25  NZ         1.9770   -2.3760    7.5880 N.3    10  LYS10      -0.1314
     26  N          4.6910   -6.8870    3.7040 N.am   11  ALA11      -0.1963
     27  CA         5.7200   -7.0540    2.6530 C.3    11  ALA11       0.1728
     28  C          6.4830   -8.3950    2.6970 C.2    11  ALA11       0.2616
     29  O          7.0130   -8.8680    1.6770 O.2    11  ALA11      -0.2715
     30  CB         6.7080   -5.8920    2.6920 C.3    11  ALA11       0.0334
     31  N          6.5280   -9.0010    3.8810 N.am   12  LYS12      -0.1977
     32  CA         7.3780  -10.1680    4.1140 C.3    12  LYS12       0.1596
     33  C          6.7150  -11.2970    4.9240 C.2    12  LYS12       0.2287
     34  O          6.1720  -11.0630    6.0160 O.2    12  LYS12      -0.2864
     35  CB         8.6730   -9.7240    4.8050 C.3    12  LYS12       0.0298
     36  CG         9.3370   -8.5230    4.1490 C.3    12  LYS12       0.0038
     37  CD        10.8440   -8.5520    4.3460 C.3    12  LYS12       0.0206
     38  CE        11.2460   -8.1700    5.7690 C.3    12  LYS12       0.1093
     39  NZ        10.8300   -6.7780    6.1460 N.3    12  LYS12      -0.1314
     40  N          7.8660  -14.4900    6.9530 N.3    14  ILE14      -0.1245
     41  CA         9.1400  -14.9940    7.4620 C.3    14  ILE14       0.1561
     42  C          8.9910  -16.4370    7.9750 C.2    14  ILE14       0.2260
     43  O          8.1090  -16.7150    8.8050 O.2    14  ILE14      -0.2867
     44  CB         9.7710  -14.0650    8.5290 C.3    14  ILE14       0.0252
     45  CG1        9.2100  -14.3780    9.9070 C.3    14  ILE14       0.0019
     46  CG2        9.6010  -12.5870    8.1780 C.3    14  ILE14       0.0019
     47  CD1       10.2900  -14.4700   10.9500 C.3    14  ILE14       0.0001
     48  N         16.3770  -17.4510   10.2210 N.3    23  ILE23      -0.1245
     49  CA        15.0500  -17.1370    9.6880 C.3    23  ILE23       0.1561
     50  C         15.2490  -17.1030    8.1800 C.2    23  ILE23       0.2260
     51  O         16.2500  -16.5640    7.7170 O.2    23  ILE23      -0.2867
     52  CB        14.6390  -15.6670   10.1020 C.3    23  ILE23       0.0252
     53  CG1       14.3310  -15.5210   11.6010 C.3    23  ILE23       0.0019
     54  CG2       13.4960  -15.0980    9.2680 C.3    23  ILE23       0.0019
     55  CD1       13.3350  -16.5140   12.1760 C.3    23  ILE23       0.0001
     56  N         13.6290  -15.1350    5.1820 N.3    25  SER25      -0.1217
     57  CA        12.6920  -14.0970    4.7590 C.3    25  SER25       0.1889
     58  C         12.3640  -14.1540    3.2680 C.2    25  SER25       0.2288
     59  O         13.2560  -14.2340    2.3860 O.2    25  SER25      -0.2866
     60  CB        13.1940  -12.6870    5.0960 C.3    25  SER25       0.2089
     61  OG        13.4710  -12.5160    6.4730 O.3    25  SER25      -0.2183
     62  N         21.3110   -8.7100   10.1920 N.3    68  HIS68      -0.1241
     63  CA        20.6770  -10.0150   10.3060 C.3    68  HIS68       0.1621
     64  C         20.9360  -10.8150    9.0620 C.2    68  HIS68       0.2264
     65  O         20.3890  -11.9190    8.8940 O.2    68  HIS68      -0.2867
     66  CB        19.1890   -9.9010   10.5580 C.3    68  HIS68       0.0745
     67  CG        18.4050   -9.4310    9.3660 C.ar   68  HIS68       0.0817
     68  ND1       18.9250   -8.5950    8.4370 N.ar   68  HIS68      -0.2268
     69  CD2       17.0750   -9.6620    8.9890 C.ar   68  HIS68       0.1154
     70  CE1       17.9810   -8.3250    7.4950 C.ar   68  HIS68       0.1986
     71  NE2       16.8500   -8.9720    7.8390 N.ar   68  HIS68      -0.2212
     72  N         18.3330  -14.8920    7.1670 N.3    80  ASN80      -0.1225
     73  CA        18.5460  -13.8680    8.1490 C.3    80  ASN80       0.1785
     74  C         18.6730  -14.4900    9.5180 C.2    80  ASN80       0.2597
     75  O         18.0430  -15.5250    9.7790 O.2    80  ASN80      -0.2718
     76  CB        17.3500  -12.9300    8.1570 C.3    80  ASN80       0.1169
     77  CG        17.1630  -12.1980    6.8470 C.2    80  ASN80       0.2627
     78  OD1       18.0980  -11.5740    6.3260 O.2    80  ASN80      -0.2716
     79  ND2       15.9360  -12.2270    6.3260 N.am   80  ASN80      -0.0877
     80  N         19.4750  -13.8550   10.3830 N.am   81  LYS81      -0.1966
     81  CA        19.5490  -14.1880   11.8180 C.3    81  LYS81       0.1728
     82  C         18.2450  -13.8060   12.4990 C.2    81  LYS81       0.2616
     83  O         17.7470  -12.7090   12.2520 O.2    81  LYS81      -0.2715
     84  CB        20.7100  -13.4480   12.4590 C.3    81  LYS81       0.0311
     85  CG        22.0330  -13.8470   11.8140 C.3    81  LYS81       0.0038
     86  CD        23.1560  -12.8200   11.9840 C.3    81  LYS81       0.0206
     87  CE        23.9020  -13.0040   13.3040 C.3    81  LYS81       0.1093
     88  NZ        25.3900  -13.0010   13.1560 N.3    81  LYS81      -0.1314
     89  N         17.6800  -14.7200   13.3070 N.am   82  LYS82      -0.1963
     90  CA        16.4710  -14.4660   14.1030 C.3    82  LYS82       0.1728
     91  C         16.7680  -13.4450   15.1580 C.2    82  LYS82       0.2616
     92  O         17.7700  -13.5530   15.8750 O.2    82  LYS82      -0.2715
     93  CB        15.9590  -15.7480   14.7790 C.3    82  LYS82       0.0311
     94  CG        15.3520  -15.5860   16.1880 C.3    82  LYS82       0.0038
     95  CD        15.3150  -16.9220   16.9330 C.3    82  LYS82       0.0206
     96  CE        15.1590  -16.7680   18.4390 C.3    82  LYS82       0.1093
     97  NZ        13.7450  -16.9900   18.8890 N.3    82  LYS82      -0.1314
     98  N         15.9090  -12.4370   15.2590 N.am   83  VAL83      -0.1977
     99  CA        16.0950  -11.4380   16.3020 C.3    83  VAL83       0.1596
    100  C         14.7980  -11.2990   17.0500 C.2    83  VAL83       0.2287
    101  O         13.7230  -11.5690   16.5330 O.2    83  VAL83      -0.2864
    102  CB        16.6400  -10.0500   15.7890 C.3    83  VAL83       0.0276
    103  CG1       17.9970  -10.1870   15.0780 C.3    83  VAL83       0.0022
    104  CG2       15.6370   -9.3200   14.8950 C.3    83  VAL83       0.0022
    105  N         12.7680   -8.6780   17.5500 N.3    85  ILE85      -0.1245
    106  CA        12.6000   -7.3080   17.0260 C.3    85  ILE85       0.1561
    107  C         12.3200   -6.3010   18.1290 C.2    85  ILE85       0.2260
    108  O         11.7120   -6.6360   19.1510 O.2    85  ILE85      -0.2867
    109  CB        11.5340   -7.1910   15.8940 C.3    85  ILE85       0.0252
    110  CG1       12.0780   -7.7240   14.5580 C.3    85  ILE85       0.0019
    111  CG2       11.0870   -5.7430   15.6810 C.3    85  ILE85       0.0019
    112  CD1       13.1990   -6.9290   13.9340 C.3    85  ILE85       0.0001
    113  N          6.3310    0.5360   16.6690 N.3   122  LYS122     -0.1245
    114  CA         5.8840   -0.4340   15.6690 C.3   122  LYS122      0.1561
    115  C          4.7380   -1.2510   16.2280 C.2   122  LYS122      0.2260
    116  O          4.9590   -2.3080   16.8320 O.2   122  LYS122     -0.2867
    117  CB         7.0240   -1.3450   15.2320 C.3   122  LYS122      0.0271
    118  CG         6.6960   -2.1640   14.0040 C.3   122  LYS122      0.0035
    119  CD         7.8440   -3.0710   13.6130 C.3   122  LYS122      0.0206
    120  CE         7.4340   -4.0190   12.5040 C.3   122  LYS122      0.1093
    121  NZ         7.1020   -3.2910   11.2450 N.3   122  LYS122     -0.1314
    122  N          0.7650   -1.7810   14.7360 N.3   124  ASP124     -0.1239
    123  CA        -0.1380   -1.4170   13.6630 C.3   124  ASP124      0.1674
    124  C         -1.5450   -1.0180   14.1020 C.2   124  ASP124      0.2266
    125  O         -2.2290   -0.2830   13.3900 O.2   124  ASP124     -0.2867
    126  CB        -0.1520   -2.5270   12.6260 C.3   124  ASP124      0.1410
    127  CG         1.2490   -2.9030   12.1890 C.2   124  ASP124      0.3668
    128  OD1        1.9040   -2.0640   11.5340 O.co2 124  ASP124     -0.2456
    129  OD2        1.7020   -4.0240   12.5270 O.co2 124  ASP124     -0.2456
    130  N         14.9150   -0.9230   11.2560 N.3   178  GLU178     -0.1245
    131  CA        14.4080   -1.6640   12.4070 C.3   178  GLU178      0.1567
    132  C         15.5690   -2.4820   12.9410 C.2   178  GLU178      0.2260
    133  O         16.2610   -3.1450   12.1550 O.2   178  GLU178     -0.2867
    134  CB        13.2350   -2.5770   12.0500 C.3   178  GLU178      0.0388
    135  CG        12.0860   -1.8830   11.3530 C.3   178  GLU178      0.1160
    136  CD        10.9280   -2.8210   11.1510 C.2   178  GLU178      0.3649
    137  OE1       10.1340   -2.6690   10.1750 O.co2 178  GLU178     -0.2457
    138  OE2       10.8310   -3.7380   11.9830 O.co2 178  GLU178     -0.2457
    139  N         15.4970   -6.3810    9.5400 N.3   191  ASP191     -0.1225
    140  CA        14.4050   -6.1010    8.5880 C.3   191  ASP191      0.1805
    141  C         14.9120   -5.9940    7.1490 C.2   191  ASP191      0.2597
    142  O         15.4440   -6.9490    6.6060 O.2   191  ASP191     -0.2718
    143  CB        13.5950   -4.8610    8.9660 C.3   191  ASP191      0.1424
    144  CG        12.1660   -4.9150    8.4340 C.2   191  ASP191      0.3668
    145  OD1       11.4560   -5.8810    8.7530 O.co2 191  ASP191     -0.2456
    146  OD2       11.7310   -3.9970    7.7020 O.co2 191  ASP191     -0.2456
    147  N         14.7550   -4.8400    6.5240 N.am  192  GLU192     -0.1979
    148  CA        15.1000   -4.7080    5.1240 C.3   192  GLU192      0.1602
    149  C         15.4480   -3.2690    4.8280 C.2   192  GLU192      0.2287
    150  O         14.9600   -2.3620    5.4980 O.2   192  GLU192     -0.2864
    151  CB        13.9430   -5.1860    4.2270 C.3   192  GLU192      0.0415
    152  CG        13.0970   -4.0930    3.5820 C.3   192  GLU192      0.1163
    153  CD        11.8560   -4.6370    2.8860 C.2   192  GLU192      0.3649
    154  OE1       10.8440   -4.9650    3.5670 O.co2 192  GLU192     -0.2457
    155  OE2       11.8830   -4.7220    1.6420 O.co2 192  GLU192     -0.2457
@<TRIPOS>BOND
     1   155   153   ar
     2    29    28    2
     3    20    19    2
     4    59    58    2
     5    27    30    1
     6    27    28    1
     7    27    26    1
     8    28    31   am
     9   153   154   ar
    10   153   152    1
    11    58    57    1
    12    19    26   am
    13    19    18    1
    14   152   151    1
    15    31    32    1
    16    32    35    1
    17    32    33    1
    18    36    37    1
    19    36    35    1
    20   151   148    1
    21    37    38    1
    22    18    21    1
    23    18    17    1
    24    57    60    1
    25    57    56    1
    26    21    22    1
    27   149   148    1
    28   149   150    2
    29    33    34    2
    30    60    61    1
    31   148   147    1
    32    16    15    2
    33    38    39    1
    34    23    22    1
    35    23    24    1
    36    17    15   am
    37    15    14    1
    38    79    77   am
    39    78    77    2
    40   147   141   am
    41   142   141    2
    42    77    76    1
    43    40    41    1
    44    24    25    1
    45   141   140    1
    46    72    73    1
    47    13    14    1
    48    41    42    1
    49    41    44    1
    50    70    71   ar
    51    70    68   ar
    52   146   144   ar
    53    51    50    2
    54    71    69   ar
    55    42    43    2
    56    73    76    1
    57    73    74    1
    58    46    44    1
    59    50    49    1
    60   144   145   ar
    61   144   143    1
    62    68    67   ar
    63    44    45    1
    64   140   143    1
    65   140   139    1
    66    65    64    2
    67     4     3    2
    68    69    67   ar
    69    64    63    1
    70    54    52    1
    71    67    66    1
    72    74    75    2
    73    74    80   am
    74     3     2    1
    75    49    52    1
    76    49    48    1
    77    45    47    1
    78    52    53    1
    79   137   136   ar
    80    62    63    1
    81    63    66    1
    82    80    81    1
    83     2     1    1
    84     2     5    1
    85   136   135    1
    86   136   138   ar
    87   121   120    1
    88   130   131    1
    89   135   134    1
    90   128   127   ar
    91    53    55    1
    92    85    86    1
    93    85    84    1
    94    81    84    1
    95    81    82    1
    96     7     9   ar
    97     7     6   ar
    98    86    87    1
    99     5     6    1
   100   134   131    1
   101   133   132    2
   102   127   129   ar
   103   127   126    1
   104    83    82    2
   105   131   132    1
   106    82    89   am
   107   120   119    1
   108     9    11   ar
   109   126   123    1
   110     6     8   ar
   111    88    87    1
   112    89    90    1
   113   125   124    2
   114   119   118    1
   115   123   124    1
   116   123   122    1
   117   112   110    1
   118    11    12    1
   119    11    10   ar
   120   118   117    1
   121     8    10   ar
   122    90    93    1
   123    90    91    1
   124   110   109    1
   125    93    94    1
   126   104   102    1
   127   103   102    1
   128    91    98   am
   129    91    92    2
   130   117   114    1
   131    98    99    1
   132   114   115    1
   133   114   113    1
   134   111   109    1
   135   102    99    1
   136   109   106    1
   137    94    95    1
   138   115   116    2
   139    99   100    1
   140   101   100    2
   141    95    96    1
   142   106   105    1
   143   106   107    1
   144   107   108    2
   145    96    97    1
