@<TRIPOS>MOLECULE
tmp/4fgxA00.pdb
 167 160 0 0 0
SMALL
GASTEIGER

@<TRIPOS>ATOM
      1  N         19.9130   13.2080    6.8670 N.3    15  GLY15      -0.1210
      2  CA        20.4290   13.7690    5.6340 C.3    15  GLY15       0.1956
      3  C         19.4470   14.6390    4.8690 C.2    15  GLY15       0.2612
      4  O         19.7490   15.0990    3.7690 O.2    15  GLY15      -0.2717
      5  N         18.2700   14.8730    5.4430 N.am   16  GLN16      -0.1965
      6  CA        17.2620   15.6750    4.7520 C.3    16  GLN16       0.1733
      7  C         16.8070   16.8740    5.5750 C.2    16  GLN16       0.2616
      8  O         15.7340   17.4230    5.3500 O.2    16  GLN16      -0.2715
      9  CB        16.0730   14.8140    4.3340 C.3    16  GLN16       0.0408
     10  CG        16.4620   13.6690    3.4150 C.3    16  GLN16       0.0908
     11  CD        15.2670   13.0100    2.7630 C.2    16  GLN16       0.2608
     12  OE1       14.1220   13.2920    3.1090 O.2    16  GLN16      -0.2717
     13  NE2       15.5300   12.1280    1.8090 N.am   16  GLN16      -0.0878
     14  N         17.6490   17.2900    6.5120 N.am   17  GLY17      -0.1955
     15  CA        17.3730   18.4780    7.2940 C.3    17  GLY17       0.1869
     16  C         16.4670   18.2120    8.4820 C.2    17  GLY17       0.2309
     17  O         15.9740   17.1020    8.6770 O.2    17  GLY17      -0.2863
     18  N         11.7160   23.4410    7.3240 N.3    34  LEU34      -0.1245
     19  CA        13.1230   23.1360    7.5630 C.3    34  LEU34       0.1561
     20  C         13.8250   24.3350    8.2060 C.2    34  LEU34       0.2260
     21  O         13.6760   25.4660    7.7550 O.2    34  LEU34      -0.2867
     22  CB        13.7820   22.7440    6.2320 C.3    34  LEU34       0.0270
     23  CG        15.2670   22.3940    6.3140 C.3    34  LEU34       0.0019
     24  CD1       15.6240   21.3580    5.2440 C.3    34  LEU34       0.0001
     25  CD2       16.1030   23.6510    6.1590 C.3    34  LEU34       0.0001
     26  N         21.5970   28.9540    7.5860 N.3    38  GLY38      -0.1210
     27  CA        22.4350   29.3970    6.4790 C.3    38  GLY38       0.1956
     28  C         21.7770   30.3440    5.4860 C.2    38  GLY38       0.2613
     29  O         22.3960   30.7260    4.4930 O.2    38  GLY38      -0.2717
     30  N         20.5280   30.7290    5.7350 N.am   39  SER39      -0.1938
     31  CA        19.8470   31.6950    4.8710 C.3    39  SER39       0.2055
     32  C         18.8930   32.5470    5.7200 C.2    39  SER39       0.2644
     33  O         18.7890   32.3400    6.9310 O.2    39  SER39      -0.2714
     34  CB        19.0630   30.9830    3.7660 C.3    39  SER39       0.2130
     35  OG        18.0090   30.2260    4.3340 O.3    39  SER39      -0.2179
     36  N         18.2020   33.4960    5.0930 N.am   40  SER40      -0.1935
     37  CA        17.4430   34.4780    5.8650 C.3    40  SER40       0.2055
     38  C         16.0440   34.7300    5.3420 C.2    40  SER40       0.2643
     39  O         15.4080   35.6970    5.7600 O.2    40  SER40      -0.2714
     40  CB        18.2130   35.7990    5.9490 C.3    40  SER40       0.2130
     41  OG        19.5410   35.5610    6.4070 O.3    40  SER40      -0.2179
     42  N         15.5770   33.8680    4.4390 N.am   41  ASN41      -0.1971
     43  CA        14.2050   33.9350    3.9250 C.3    41  ASN41       0.1688
     44  C         13.2990   32.8550    4.5010 C.2    41  ASN41       0.2292
     45  O         13.6700   31.6850    4.5520 O.2    41  ASN41      -0.2864
     46  CB        14.2060   33.8240    2.3970 C.3    41  ASN41       0.1181
     47  CG        14.5980   35.1090    1.7320 C.2    41  ASN41       0.2629
     48  OD1       15.7840   35.3880    1.5460 O.2    41  ASN41      -0.2716
     49  ND2       13.5970   35.9200    1.3710 N.am   41  ASN41      -0.0877
     50  N         15.1840   32.8470   -4.6570 N.3    73  VAL73      -0.1231
     51  CA        16.3380   32.5010   -3.8370 C.3    73  VAL73       0.1678
     52  C         17.0670   31.2870   -4.3990 C.2    73  VAL73       0.2434
     53  O         16.4870   30.2180   -4.5530 O.2    73  VAL73      -0.2733
     54  CB        15.9410   32.2110   -2.3760 C.3    73  VAL73       0.0265
     55  CG1       17.1830   31.8130   -1.5580 C.3    73  VAL73       0.0020
     56  CG2       15.3000   33.4340   -1.7510 C.3    73  VAL73       0.0020
     57  N         18.3580   31.4550   -4.6990 N.am   74  PRO74      -0.2718
     58  CA        19.2350   30.3780   -5.1440 C.3    74  PRO74       0.1535
     59  C         20.0200   29.8090   -3.9670 C.2    74  PRO74       0.2599
     60  O         20.5530   30.5640   -3.1510 O.2    74  PRO74      -0.2715
     61  CB        20.1780   31.0970   -6.1170 C.3    74  PRO74       0.0310
     62  CG        20.2870   32.4760   -5.5630 C.3    74  PRO74       0.0237
     63  CD        19.0010   32.7740   -4.8030 C.3    74  PRO74       0.0939
     64  N         20.0590   28.4870   -3.8810 N.am   75  TYR75      -0.1960
     65  CA        20.8460   27.7990   -2.8740 C.3    75  TYR75       0.1771
     66  C         21.9800   27.0970   -3.6070 C.2    75  TYR75       0.2620
     67  O         22.1760   27.3230   -4.8040 O.2    75  TYR75      -0.2715
     68  CB        19.9720   26.8110   -2.1020 C.3    75  TYR75       0.0574
     69  CG        18.8120   27.4790   -1.3790 C.ar   75  TYR75      -0.0198
     70  CD1       18.9400   27.9260   -0.0680 C.ar   75  TYR75      -0.0009
     71  CD2       17.5930   27.6740   -2.0160 C.ar   75  TYR75      -0.0009
     72  CE1       17.8800   28.5420    0.5950 C.ar   75  TYR75       0.0417
     73  CE2       16.5310   28.2890   -1.3610 C.ar   75  TYR75       0.0417
     74  CZ        16.6780   28.7140   -0.0590 C.ar   75  TYR75       0.1957
     75  OH        15.6170   29.3150    0.5790 O.3    75  TYR75      -0.2866
     76  N         22.7340   26.2510   -2.9160 N.am   76  THR76      -0.1937
     77  CA        23.9170   25.6580   -3.5520 C.3    76  THR76       0.2028
     78  C         23.6180   24.8290   -4.8030 C.2    76  THR76       0.2642
     79  O         24.3870   24.8640   -5.7670 O.2    76  THR76      -0.2714
     80  CB        24.7470   24.8230   -2.5720 C.3    76  THR76       0.1808
     81  OG1       24.0790   23.5870   -2.3070 O.3    76  THR76      -0.2208
     82  CG2       24.9700   25.5830   -1.2820 C.3    76  THR76       0.0379
     83  N         22.5060   24.0950   -4.8010 N.am   77  GLN77      -0.1963
     84  CA        22.1540   23.2580   -5.9460 C.3    77  GLN77       0.1733
     85  C         20.7980   23.6410   -6.5280 C.2    77  GLN77       0.2616
     86  O         20.5850   23.5880   -7.7440 O.2    77  GLN77      -0.2715
     87  CB        22.1270   21.7840   -5.5310 C.3    77  GLN77       0.0408
     88  CG        22.0110   20.8620   -6.7130 C.3    77  GLN77       0.0908
     89  CD        23.2740   20.8530   -7.5480 C.2    77  GLN77       0.2608
     90  OE1       24.4170   20.7080   -7.0620 O.2    77  GLN77      -0.2717
     91  NE2       23.1130   21.0370   -8.8580 N.am   77  GLN77      -0.0878
     92  N         19.8930   24.0290   -5.6410 N.am   78  GLY78      -0.1955
     93  CA        18.5090   24.2680   -6.0030 C.3    78  GLY78       0.1869
     94  C         18.1190   25.7240   -5.8860 C.2    78  GLY78       0.2309
     95  O         18.9240   26.5630   -5.4830 O.2    78  GLY78      -0.2863
     96  N         14.9570   21.5120   -7.8860 N.3   111  LYS111     -0.1245
     97  CA        15.8140   20.7430   -6.9870 C.3   111  LYS111      0.1561
     98  C         15.8390   21.3260   -5.5770 C.2   111  LYS111      0.2260
     99  O         16.8860   21.4230   -4.9360 O.2   111  LYS111     -0.2867
    100  CB        17.2270   20.6250   -7.5610 C.3   111  LYS111      0.0271
    101  CG        17.2970   19.8640   -8.8810 C.3   111  LYS111      0.0035
    102  CD        18.7170   19.8450   -9.4400 C.3   111  LYS111      0.0206
    103  CE        19.0920   21.1740  -10.1180 C.3   111  LYS111      0.1093
    104  NZ        19.1110   22.3750   -9.2100 N.3   111  LYS111     -0.1314
    105  N         12.2750   17.7510   -1.5890 N.3   114  ILE114     -0.1245
    106  CA        12.8180   16.4050   -1.6520 C.3   114  ILE114      0.1561
    107  C         11.7090   15.3760   -1.5420 C.2   114  ILE114      0.2260
    108  O         10.8620   15.4590   -0.6510 O.2   114  ILE114     -0.2867
    109  CB        13.8180   16.1730   -0.5160 C.3   114  ILE114      0.0252
    110  CG1       14.9860   17.1510   -0.6470 C.3   114  ILE114      0.0019
    111  CG2       14.3000   14.7260   -0.5100 C.3   114  ILE114      0.0019
    112  CD1       15.9710   17.0920    0.5060 C.3   114  ILE114      0.0001
    113  N         21.7440   39.1080    4.0910 N.3   130  ILE130     -0.1245
    114  CA        21.7000   38.1220    3.0200 C.3   130  ILE130      0.1561
    115  C         20.2890   37.7050    2.5810 C.2   130  ILE130      0.2260
    116  O         20.1270   36.7450    1.8340 O.2   130  ILE130     -0.2867
    117  CB        22.5470   36.8730    3.3430 C.3   130  ILE130      0.0252
    118  CG1       22.0710   36.1860    4.6240 C.3   130  ILE130      0.0019
    119  CG2       24.0340   37.2430    3.4500 C.3   130  ILE130      0.0019
    120  CD1       22.7630   34.8530    4.8590 C.3   130  ILE130      0.0001
    121  N         16.8460   37.8790    0.4160 N.3   132  ARG132     -0.1245
    122  CA        16.3700   38.3210   -0.8970 C.3   132  ARG132      0.1563
    123  C         14.9580   38.8890   -0.7400 C.2   132  ARG132      0.2260
    124  O         14.1860   38.4010    0.0730 O.2   132  ARG132     -0.2867
    125  CB        16.3490   37.1570   -1.8920 C.3   132  ARG132      0.0307
    126  CG        17.7300   36.5740   -2.2260 C.3   132  ARG132      0.0489
    127  CD        18.5390   37.5270   -3.1110 C.3   132  ARG132      0.2205
    128  NE        19.8110   36.9460   -3.5510 N.pl3 132  ARG132     -0.0865
    129  CZ        20.0470   36.4760   -4.7780 C.cat 132  ARG132      0.5346
    130  NH1       19.0970   36.5040   -5.7080 N.pl3 132  ARG132      0.1354
    131  NH2       21.2390   35.9720   -5.0810 N.pl3 132  ARG132      0.1354
    132  N         25.6880   35.7870    7.3480 N.3   191  TYR191     -0.1241
    133  CA        25.6240   34.3950    7.7950 C.3   191  TYR191      0.1605
    134  C         26.0220   34.4040    9.2620 C.2   191  TYR191      0.2264
    135  O         26.4320   35.4420    9.7780 O.2   191  TYR191     -0.2867
    136  CB        26.6440   33.5300    7.0460 C.3   191  TYR191      0.0534
    137  CG        26.4560   33.5250    5.5560 C.ar  191  TYR191     -0.0201
    138  CD1       25.5490   32.6630    4.9670 C.ar  191  TYR191     -0.0009
    139  CD2       27.1830   34.3860    4.7400 C.ar  191  TYR191     -0.0009
    140  CE1       25.3620   32.6510    3.6060 C.ar  191  TYR191      0.0417
    141  CE2       27.0000   34.3820    3.3670 C.ar  191  TYR191      0.0417
    142  CZ        26.0760   33.5120    2.8160 C.ar  191  TYR191      0.1957
    143  OH        25.8780   33.4850    1.4500 O.3   191  TYR191     -0.2866
    144  N         22.6940   25.0680    9.5300 N.3   222  SER222     -0.1202
    145  CA        21.8740   23.9040    9.8610 C.3   222  SER222      0.2020
    146  C         21.1380   23.3070    8.6550 C.2   222  SER222      0.2619
    147  O         20.6300   22.1920    8.7280 O.2   222  SER222     -0.2717
    148  CB        20.8670   24.2670   10.9480 C.3   222  SER222      0.2103
    149  OG        19.9560   25.2420   10.4620 O.3   222  SER222     -0.2182
    150  N         21.0900   24.0490    7.5560 N.am  223  GLY223     -0.1942
    151  CA        20.4610   23.5890    6.3350 C.3   223  GLY223      0.2014
    152  C         21.3890   22.8470    5.3940 C.2   223  GLY223      0.2640
    153  O         20.9820   22.4870    4.2860 O.2   223  GLY223     -0.2714
    154  N         22.6360   22.6320    5.8260 N.am  224  THR224     -0.1936
    155  CA        23.5930   21.8490    5.0390 C.3   224  THR224      0.2028
    156  C         23.9730   20.6030    5.8200 C.2   224  THR224      0.2642
    157  O         24.2710   20.6740    7.0130 O.2   224  THR224     -0.2714
    158  CB        24.8490   22.6810    4.6890 C.3   224  THR224      0.1808
    159  OG1       24.5080   23.6380    3.6810 O.3   224  THR224     -0.2208
    160  CG2       25.9810   21.7860    4.1670 C.3   224  THR224      0.0379
    161  N         23.9300   19.4500    5.1620 N.am  225  THR225     -0.1950
    162  CA        24.2080   18.1980    5.8450 C.3   225  THR225      0.1897
    163  C         25.6870   18.0660    6.1910 C.2   225  THR225      0.2313
    164  O         26.0390   17.7460    7.3170 O.2   225  THR225     -0.2863
    165  CB        23.7750   17.0090    4.9830 C.3   225  THR225      0.1794
    166  OG1       22.3470   17.0530    4.8380 O.3   225  THR225     -0.2208
    167  CG2       24.1580   15.6990    5.6350 C.3   225  THR225      0.0378
@<TRIPOS>BOND
     1   103   102    1
     2   103   104    1
     3   102   101    1
     4   101   100    1
     5    91    89   am
     6    96    97    1
     7    86    85    2
     8   100    97    1
     9    89    90    2
    10    89    88    1
    11    97    98    1
    12    88    87    1
    13    85    84    1
    14    85    92   am
    15    61    62    1
    16    61    58    1
    17    93    94    1
    18    93    92    1
    19    84    87    1
    20    84    83    1
    21    94    95    2
    22    79    78    2
    23   130   129    1
    24    98    99    2
    25    62    63    1
    26    58    57    1
    27    58    59    1
    28   131   129    1
    29    67    66    2
    30    78    83   am
    31    78    77    1
    32    63    57    1
    33   129   128    2
    34    57    52   am
    35    50    51    1
    36    53    52    2
    37    52    51    1
    38    59    64   am
    39    59    60    2
    40    64    65    1
    41    51    54    1
    42    66    76   am
    43    66    65    1
    44    77    76    1
    45    77    80    1
    46   128   127    1
    47   127   126    1
    48    65    68    1
    49    80    81    1
    50    80    82    1
    51    54    56    1
    52    54    55    1
    53   126   125    1
    54    68    69    1
    55    71    69   ar
    56    71    73   ar
    57   125   122    1
    58   106   105    1
    59   106   107    1
    60   106   109    1
    61   107   108    2
    62    69    70   ar
    63    73    74   ar
    64   122   123    1
    65   122   121    1
    66   123   124    2
    67   110   109    1
    68   110   112    1
    69   109   111    1
    70    70    72   ar
    71    74    75    1
    72    74    72   ar
    73    49    47   am
    74   143   142    1
    75    48    47    2
    76    47    46    1
    77    13    11   am
    78   116   115    2
    79    46    43    1
    80   115   114    1
    81    11    12    2
    82    11    10    1
    83   142   141   ar
    84   142   140   ar
    85   114   117    1
    86   114   113    1
    87   117   119    1
    88   117   118    1
    89   141   139   ar
    90    10     9    1
    91   140   138   ar
    92   159   158    1
    93    34    35    1
    94    34    31    1
    95     4     3    2
    96    43    42    1
    97    43    44    1
    98   160   158    1
    99   153   152    2
   100     9     6    1
   101    42    38   am
   102    29    28    2
   103    44    45    2
   104   118   120    1
   105   158   155    1
   106   139   137   ar
   107     6     5    1
   108     6     7    1
   109   166   165    1
   110     3     5   am
   111     3     2    1
   112    31    32    1
   113    31    30    1
   114   138   137   ar
   115   165   167    1
   116   165   162    1
   117   155   156    1
   118   155   154    1
   119    36    32   am
   120    36    37    1
   121   161   156   am
   122   161   162    1
   123    24    23    1
   124    38    39    2
   125    38    37    1
   126     8     7    2
   127   152   154   am
   128   152   151    1
   129    28    30   am
   130    28    27    1
   131   137   136    1
   132     7    14   am
   133     2     1    1
   134    32    33    2
   135   156   157    2
   136   162   163    1
   137    37    40    1
   138    40    41    1
   139    25    23    1
   140   163   164    2
   141    22    23    1
   142    22    19    1
   143   151   150    1
   144    27    26    1
   145    14    15    1
   146   136   133    1
   147    15    16    1
   148    18    19    1
   149   132   133    1
   150   150   146   am
   151    19    20    1
   152    21    20    2
   153   133   134    1
   154    16    17    2
   155   146   147    2
   156   146   145    1
   157   134   135    2
   158   144   145    1
   159   145   148    1
   160   149   148    1
