@<TRIPOS>MOLECULE
tmp/4fgzA00.pdb
 95 92 0 0 0
SMALL
GASTEIGER

@<TRIPOS>ATOM
      1  N         26.8260   41.0440   18.6010 N.3    21  PHE21      -0.1227
      2  CA        27.4330   42.0730   19.4450 C.3    21  PHE21       0.1736
      3  C         27.5900   41.5650   20.8760 C.2    21  PHE21       0.2595
      4  O         28.5810   41.8520   21.5510 O.2    21  PHE21      -0.2718
      5  CB        26.5880   43.3540   19.4300 C.3    21  PHE21       0.0547
      6  CG        27.1380   44.4620   20.2910 C.ar   21  PHE21      -0.0202
      7  CD1       26.8450   44.5240   21.6520 C.ar   21  PHE21      -0.0042
      8  CD2       27.9390   45.4530   19.7400 C.ar   21  PHE21      -0.0042
      9  CE1       27.3530   45.5460   22.4430 C.ar   21  PHE21      -0.0003
     10  CE2       28.4480   46.4810   20.5260 C.ar   21  PHE21      -0.0003
     11  CZ        28.1560   46.5270   21.8780 C.ar   21  PHE21      -0.0000
     12  N         26.6100   40.7920   21.3250 N.am   22  ILE22      -0.1966
     13  CA        26.5480   40.3870   22.7170 C.3    22  ILE22       0.1727
     14  C         27.1850   39.0140   22.9790 C.2    22  ILE22       0.2616
     15  O         27.7450   38.7910   24.0580 O.2    22  ILE22      -0.2715
     16  CB        25.0870   40.5040   23.2670 C.3    22  ILE22       0.0290
     17  CG1       25.0880   40.6660   24.7870 C.3    22  ILE22       0.0022
     18  CG2       24.2150   39.3390   22.8230 C.3    22  ILE22       0.0023
     19  CD1       23.7060   40.8690   25.3870 C.3    22  ILE22       0.0001
     20  N         27.1360   38.1150   21.9930 N.am   23  PHE23      -0.1960
     21  CA        27.7280   36.7780   22.1430 C.3    23  PHE23       0.1771
     22  C         29.1640   36.7180   21.6290 C.2    23  PHE23       0.2620
     23  O         29.9360   35.8200   21.9960 O.2    23  PHE23      -0.2715
     24  CB        26.9120   35.7200   21.3930 C.3    23  PHE23       0.0574
     25  CG        25.5060   35.5360   21.9180 C.ar   23  PHE23      -0.0200
     26  CD1       25.2860   35.1710   23.2420 C.ar   23  PHE23      -0.0042
     27  CD2       24.4080   35.7140   21.0800 C.ar   23  PHE23      -0.0042
     28  CE1       23.9970   34.9920   23.7270 C.ar   23  PHE23      -0.0003
     29  CE2       23.1040   35.5450   21.5580 C.ar   23  PHE23      -0.0003
     30  CZ        22.8920   35.1840   22.8870 C.ar   23  PHE23      -0.0000
     31  N         29.5080   37.6650   20.7610 N.am   24  GLY24      -0.1954
     32  CA        30.7930   37.6710   20.0710 C.3    24  GLY24       0.1869
     33  C         30.6830   37.2440   18.6170 C.2    24  GLY24       0.2309
     34  O         29.6990   36.6300   18.1990 O.2    24  GLY24      -0.2863
     35  N         26.7320   32.4420   25.5140 N.3    31  GLY31      -0.1225
     36  CA        28.1310   32.3270   25.8950 C.3    31  GLY31       0.1811
     37  C         29.1430   32.3460   24.7490 C.2    31  GLY31       0.2280
     38  O         30.3380   32.2490   25.0070 O.2    31  GLY31      -0.2866
     39  N         33.3880   31.2640   24.3700 N.3    34  GLU34      -0.1245
     40  CA        33.7730   30.7550   25.6950 C.3    34  GLU34       0.1567
     41  C         32.9450   29.5390   26.1220 C.2    34  GLU34       0.2260
     42  O         33.5000   28.5370   26.5860 O.2    34  GLU34      -0.2867
     43  CB        33.6960   31.8650   26.7470 C.3    34  GLU34       0.0388
     44  CG        34.7420   32.9780   26.5870 C.3    34  GLU34       0.1160
     45  CD        34.3070   34.0630   25.5990 C.2    34  GLU34       0.3649
     46  OE1       33.3490   33.8210   24.8100 O.co2  34  GLU34      -0.2457
     47  OE2       34.9210   35.1600   25.6150 O.co2  34  GLU34      -0.2457
     48  N         24.9920   27.9140   35.4330 N.3   201  TYR201     -0.1241
     49  CA        26.0090   28.3840   34.4920 C.3   201  TYR201      0.1605
     50  C         25.3910   29.3300   33.4550 C.2   201  TYR201      0.2264
     51  O         25.9570   30.3850   33.1610 O.2   201  TYR201     -0.2867
     52  CB        26.7100   27.1820   33.8490 C.3   201  TYR201      0.0534
     53  CG        27.7750   27.4750   32.7920 C.ar  201  TYR201     -0.0201
     54  CD1       28.8800   28.2710   33.0660 C.ar  201  TYR201     -0.0009
     55  CD2       27.6910   26.8910   31.5320 C.ar  201  TYR201     -0.0009
     56  CE1       29.8740   28.5060   32.0780 C.ar  201  TYR201      0.0417
     57  CE2       28.6690   27.1110   30.5550 C.ar  201  TYR201      0.0417
     58  CZ        29.7470   27.9160   30.8260 C.ar  201  TYR201      0.1957
     59  OH        30.6900   28.1140   29.8380 O.3   201  TYR201     -0.2866
     60  N         26.4050   33.2140   32.3440 N.3   205  LEU205     -0.1245
     61  CA        26.6450   33.7080   30.9810 C.3   205  LEU205      0.1561
     62  C         25.7850   34.9450   30.6900 C.2   205  LEU205      0.2260
     63  O         26.2710   35.9540   30.1570 O.2   205  LEU205     -0.2867
     64  CB        26.3510   32.6230   29.9300 C.3   205  LEU205      0.0270
     65  CG        27.1420   31.3190   30.0110 C.3   205  LEU205      0.0019
     66  CD1       26.5940   30.2900   29.0210 C.3   205  LEU205      0.0001
     67  CD2       28.6670   31.5680   29.7980 C.3   205  LEU205      0.0001
     68  N         27.1650   38.0530   32.4640 N.3   208  VAL208     -0.1231
     69  CA        28.2910   38.6340   31.7360 C.3   208  VAL208      0.1692
     70  C         27.7970   39.3990   30.4990 C.2   208  VAL208      0.2591
     71  O         28.1790   40.5480   30.2640 O.2   208  VAL208     -0.2718
     72  CB        29.3120   37.5520   31.3290 C.3   208  VAL208      0.0266
     73  CG1       30.3020   38.1020   30.2950 C.3   208  VAL208      0.0020
     74  CG2       30.0480   37.0280   32.5700 C.3   208  VAL208      0.0020
     75  N         26.9160   38.7710   29.7270 N.am  209  GLU209     -0.1979
     76  CA        26.3620   39.4080   28.5360 C.3   209  GLU209      0.1602
     77  C         25.6230   40.7110   28.8490 C.2   209  GLU209      0.2287
     78  O         25.7980   41.7220   28.1640 O.2   209  GLU209     -0.2864
     79  CB        25.4390   38.4280   27.7940 C.3   209  GLU209      0.0415
     80  CG        26.2170   37.4070   26.9860 C.3   209  GLU209      0.1163
     81  CD        25.5720   36.0370   26.9310 C.2   209  GLU209      0.3649
     82  OE1       24.4060   35.9050   27.3350 O.co2 209  GLU209     -0.2457
     83  OE2       26.2440   35.0820   26.4850 O.co2 209  GLU209     -0.2457
     84  N         28.0540   43.3830   29.8960 N.3   212  TYR212     -0.1241
     85  CA        28.7940   43.7850   28.7060 C.3   212  TYR212      0.1605
     86  C         27.9860   44.7550   27.8610 C.2   212  TYR212      0.2264
     87  O         28.5290   45.7200   27.3200 O.2   212  TYR212     -0.2867
     88  CB        29.1550   42.5570   27.8750 C.3   212  TYR212      0.0534
     89  CG        29.9600   42.8600   26.6280 C.ar  212  TYR212     -0.0201
     90  CD1       29.3280   43.1110   25.4120 C.ar  212  TYR212     -0.0009
     91  CD2       31.3540   42.8780   26.6620 C.ar  212  TYR212     -0.0009
     92  CE1       30.0500   43.3770   24.2840 C.ar  212  TYR212      0.0417
     93  CE2       32.0940   43.1370   25.5200 C.ar  212  TYR212      0.0417
     94  CZ        31.4380   43.3860   24.3400 C.ar  212  TYR212      0.1957
     95  OH        32.1630   43.6470   23.2070 O.3   212  TYR212     -0.2866
@<TRIPOS>BOND
     1    34    33    2
     2     1     2    1
     3    33    32    1
     4     5     2    1
     5     5     6    1
     6     2     3    1
     7     8     6   ar
     8     8    10   ar
     9    32    31    1
    10     6     7   ar
    11    10    11   ar
    12    31    22   am
    13     3    12   am
    14     3     4    2
    15    27    29   ar
    16    27    25   ar
    17    12    13    1
    18    24    25    1
    19    24    21    1
    20    29    30   ar
    21    22    23    2
    22    22    21    1
    23     7     9   ar
    24    11     9   ar
    25    25    26   ar
    26    20    21    1
    27    20    14   am
    28    13    14    1
    29    13    16    1
    30    18    16    1
    31    30    28   ar
    32    14    15    2
    33    95    94    1
    34    26    28   ar
    35    16    17    1
    36    92    94   ar
    37    92    90   ar
    38    94    93   ar
    39    39    40    1
    40    37    38    2
    41    37    36    1
    42    17    19    1
    43    46    45   ar
    44    90    89   ar
    45    35    36    1
    46    93    91   ar
    47    45    47   ar
    48    45    44    1
    49    40    41    1
    50    40    43    1
    51    41    42    2
    52    83    81   ar
    53    44    43    1
    54    89    91   ar
    55    89    88    1
    56    81    80    1
    57    81    82   ar
    58    80    79    1
    59    87    86    2
    60    79    76    1
    61    86    85    1
    62    88    85    1
    63    78    77    2
    64    76    77    1
    65    76    75    1
    66    85    84    1
    67    66    65    1
    68    75    70   am
    69    67    65    1
    70    59    58    1
    71    64    65    1
    72    64    61    1
    73    63    62    2
    74    71    70    2
    75    73    72    1
    76    70    69    1
    77    57    58   ar
    78    57    55   ar
    79    62    61    1
    80    58    56   ar
    81    61    60    1
    82    72    69    1
    83    72    74    1
    84    55    53   ar
    85    69    68    1
    86    56    54   ar
    87    53    54   ar
    88    53    52    1
    89    51    50    2
    90    50    49    1
    91    52    49    1
    92    49    48    1
