@<TRIPOS>MOLECULE
tmp/4fgzA01.pdb
 130 126 0 0 0
SMALL
GASTEIGER

@<TRIPOS>ATOM
      1  N          3.6710   36.2930   31.0840 N.3   163  GLU163     -0.1231
      2  CA         4.7190   36.8490   30.2410 C.3   163  GLU163      0.1699
      3  C          5.5530   35.7620   29.5920 C.2   163  GLU163      0.2592
      4  O          5.9060   35.8740   28.4190 O.2   163  GLU163     -0.2718
      5  CB         5.5700   37.8590   31.0100 C.3   163  GLU163      0.0402
      6  CG         4.8040   39.1610   31.2530 C.3   163  GLU163      0.1161
      7  CD         5.5890   40.1890   32.0460 C.2   163  GLU163      0.3649
      8  OE1        5.0870   41.3270   32.1930 O.co2 163  GLU163     -0.2457
      9  OE2        6.7000   39.8620   32.5220 O.co2 163  GLU163     -0.2457
     10  N          5.8350   34.6940   30.3330 N.am  164  PHE164     -0.1976
     11  CA         6.6180   33.5890   29.7780 C.3   164  PHE164      0.1639
     12  C          5.8230   32.8200   28.7150 C.2   164  PHE164      0.2290
     13  O          6.3750   32.3890   27.7080 O.2   164  PHE164     -0.2864
     14  CB         7.1160   32.6560   30.8920 C.3   164  PHE164      0.0560
     15  CG         8.1570   31.6620   30.4350 C.ar  164  PHE164     -0.0200
     16  CD1        9.4650   32.0640   30.1890 C.ar  164  PHE164     -0.0042
     17  CD2        7.8260   30.3250   30.2610 C.ar  164  PHE164     -0.0042
     18  CE1       10.4280   31.1450   29.7620 C.ar  164  PHE164     -0.0003
     19  CE2        8.7680   29.4010   29.8560 C.ar  164  PHE164     -0.0003
     20  CZ        10.0840   29.8100   29.5910 C.ar  164  PHE164     -0.0000
     21  N          3.6370   34.1320   26.8210 N.3   166  GLU166     -0.1231
     22  CA         3.5040   35.0090   25.6630 C.3   166  GLU166      0.1699
     23  C          4.7850   34.9640   24.8330 C.2   166  GLU166      0.2592
     24  O          4.7290   34.8520   23.6210 O.2   166  GLU166     -0.2718
     25  CB         3.1800   36.4430   26.0960 C.3   166  GLU166      0.0402
     26  CG         3.0610   37.4420   24.9520 C.3   166  GLU166      0.1161
     27  CD         1.7670   37.2990   24.1480 C.2   166  GLU166      0.3649
     28  OE1        0.8120   36.6420   24.6280 O.co2 166  GLU166     -0.2457
     29  OE2        1.7070   37.8570   23.0290 O.co2 166  GLU166     -0.2457
     30  N          5.9270   35.0300   25.5160 N.am  167  TYR167     -0.1976
     31  CA         7.2500   34.9100   24.9160 C.3   167  TYR167      0.1639
     32  C          7.3980   33.6040   24.1320 C.2   167  TYR167      0.2290
     33  O          7.8610   33.5970   22.9850 O.2   167  TYR167     -0.2864
     34  CB         8.2850   35.0390   26.0410 C.3   167  TYR167      0.0560
     35  CG         9.6710   34.4560   25.8290 C.ar  167  TYR167     -0.0198
     36  CD1       10.6200   35.0900   25.0210 C.ar  167  TYR167     -0.0009
     37  CD2       10.0520   33.3060   26.4980 C.ar  167  TYR167     -0.0009
     38  CE1       11.9090   34.5560   24.8660 C.ar  167  TYR167      0.0417
     39  CE2       11.3130   32.7800   26.3640 C.ar  167  TYR167      0.0417
     40  CZ        12.2380   33.4010   25.5390 C.ar  167  TYR167      0.1957
     41  OH        13.4920   32.8580   25.4380 O.3   167  TYR167     -0.2866
     42  N          4.8480   33.8320   21.0640 N.3   170  GLN170     -0.1231
     43  CA         5.2600   34.7240   19.9790 C.3   170  GLN170      0.1698
     44  C          6.5640   34.3160   19.2830 C.2   170  GLN170      0.2592
     45  O          6.7450   34.6150   18.1080 O.2   170  GLN170     -0.2718
     46  CB         5.2810   36.1930   20.4240 C.3   170  GLN170      0.0381
     47  CG         6.3170   36.5470   21.4740 C.3   170  GLN170      0.0905
     48  CD         6.0440   37.9020   22.1110 C.2   170  GLN170      0.2608
     49  OE1        5.1010   38.5990   21.7240 O.2   170  GLN170     -0.2717
     50  NE2        6.8640   38.2790   23.0960 N.am  170  GLN170     -0.0878
     51  N          7.4560   33.6220   19.9960 N.am  171  ARG171     -0.1980
     52  CA         8.6780   33.0760   19.3880 C.3   171  ARG171      0.1597
     53  C          8.4390   31.7170   18.7360 C.2   171  ARG171      0.2287
     54  O          9.3200   31.1830   18.0750 O.2   171  ARG171     -0.2864
     55  CB         9.7960   32.9030   20.4220 C.3   171  ARG171      0.0334
     56  CG        10.3610   34.1730   21.0330 C.3   171  ARG171      0.0492
     57  CD        11.0240   35.0470   19.9940 C.3   171  ARG171      0.2205
     58  NE        12.2710   35.6160   20.4960 N.pl3 171  ARG171     -0.0865
     59  CZ        12.3450   36.6290   21.3540 C.cat 171  ARG171      0.5346
     60  NH1       11.2380   37.1920   21.8260 N.pl3 171  ARG171      0.1354
     61  NH2       13.5330   37.0740   21.7420 N.pl3 171  ARG171      0.1354
     62  N         15.0780   46.6840   23.9610 N.3   231  SER231     -0.1217
     63  CA        14.5510   45.3480   23.7070 C.3   231  SER231      0.1889
     64  C         15.5070   44.2420   24.1650 C.2   231  SER231      0.2288
     65  O         15.1090   43.3060   24.8650 O.2   231  SER231     -0.2866
     66  CB        14.2330   45.2010   22.2130 C.3   231  SER231      0.2089
     67  OG        14.0020   43.8510   21.8490 O.3   231  SER231     -0.2183
     68  N         16.0320   44.4290   27.9860 N.3   234  ASP234     -0.1225
     69  CA        14.8110   43.9120   28.5850 C.3   234  ASP234      0.1805
     70  C         14.7270   42.3810   28.5100 C.2   234  ASP234      0.2598
     71  O         14.3880   41.7130   29.4950 O.2   234  ASP234     -0.2718
     72  CB        13.6020   44.5660   27.9060 C.3   234  ASP234      0.1424
     73  CG        12.2900   43.9690   28.3450 C.2   234  ASP234      0.3668
     74  OD1       12.1400   43.6850   29.5520 O.co2 234  ASP234     -0.2456
     75  OD2       11.4060   43.7840   27.4810 O.co2 234  ASP234     -0.2456
     76  N         15.0440   41.8280   27.3440 N.am  235  GLY235     -0.1942
     77  CA        14.9950   40.3880   27.1450 C.3   235  GLY235      0.2014
     78  C         15.9930   39.6050   27.9830 C.2   235  GLY235      0.2638
     79  O         15.6850   38.5220   28.4850 O.2   235  GLY235     -0.2714
     80  N         17.2070   40.1300   28.1160 N.am  236  TRP236     -0.1973
     81  CA        18.2000   39.4850   28.9710 C.3   236  TRP236      0.1640
     82  C         17.7910   39.5520   30.4500 C.2   236  TRP236      0.2290
     83  O         17.9420   38.5760   31.1890 O.2   236  TRP236     -0.2864
     84  CB        19.5830   40.1010   28.7520 C.3   236  TRP236      0.0576
     85  CG        20.4890   39.2170   27.9480 C.ar  236  TRP236      0.0006
     86  CD1       21.6810   38.6760   28.3520 C.ar  236  TRP236      0.0946
     87  CD2       20.2650   38.7470   26.6110 C.ar  236  TRP236      0.0152
     88  NE1       22.2090   37.9030   27.3440 N.ar  236  TRP236     -0.2442
     89  CE2       21.3610   37.9320   26.2660 C.ar  236  TRP236      0.0810
     90  CE3       19.2460   38.9380   25.6720 C.ar  236  TRP236      0.0012
     91  CZ2       21.4680   37.3120   25.0190 C.ar  236  TRP236      0.0191
     92  CZ3       19.3550   38.3210   24.4330 C.ar  236  TRP236      0.0001
     93  CH2       20.4580   37.5220   24.1180 C.ar  236  TRP236      0.0015
     94  N         14.8620   39.4920   31.5980 N.3   238  ARG238     -0.1231
     95  CA        13.8230   38.4960   31.8060 C.3   238  ARG238      0.1694
     96  C         14.3620   37.0720   31.7980 C.2   238  ARG238      0.2591
     97  O         13.9320   36.2510   32.6010 O.2   238  ARG238     -0.2718
     98  CB        12.7010   38.6740   30.7820 C.3   238  ARG238      0.0321
     99  CG        11.9180   39.9660   30.9910 C.3   238  ARG238      0.0489
    100  CD        11.2710   40.4680   29.7040 C.3   238  ARG238      0.2205
    101  NE         9.8900   40.8920   29.9240 N.pl3 238  ARG238     -0.0865
    102  CZ         9.5360   42.0280   30.5190 C.cat 238  ARG238      0.5346
    103  NH1       10.4650   42.8680   30.9560 N.pl3 238  ARG238      0.1354
    104  NH2        8.2540   42.3270   30.6750 N.pl3 238  ARG238      0.1354
    105  N         15.3020   36.7730   30.8970 N.am  239  LYS239     -0.1980
    106  CA        15.9400   35.4590   30.9190 C.3   239  LYS239      0.1596
    107  C         16.7080   35.2440   32.2330 C.2   239  LYS239      0.2287
    108  O         16.7160   34.1470   32.7930 O.2   239  LYS239     -0.2864
    109  CB        16.8640   35.2590   29.7060 C.3   239  LYS239      0.0298
    110  CG        16.1260   35.1750   28.3570 C.3   239  LYS239      0.0038
    111  CD        17.0570   34.6800   27.2370 C.3   239  LYS239      0.0206
    112  CE        18.0910   35.7170   26.8410 C.3   239  LYS239      0.1093
    113  NZ        18.9820   35.2400   25.7000 N.3   239  LYS239     -0.1314
    114  N         14.0830   34.7030   34.9990 N.3   242  ASP242     -0.1239
    115  CA        13.3720   33.4390   34.8320 C.3   242  ASP242      0.1674
    116  C         14.2240   32.1870   35.0540 C.2   242  ASP242      0.2266
    117  O         13.6930   31.1560   35.4650 O.2   242  ASP242     -0.2867
    118  CB        12.6480   33.3940   33.4700 C.3   242  ASP242      0.1410
    119  CG        11.3940   34.2710   33.4450 C.2   242  ASP242      0.3668
    120  OD1       10.8930   34.6320   34.5460 O.co2 242  ASP242     -0.2456
    121  OD2       10.9060   34.5940   32.3350 O.co2 242  ASP242     -0.2456
    122  N         12.6740   29.1640   33.3270 N.3   248  GLN248     -0.1245
    123  CA        13.4060   28.8690   32.0930 C.3   248  GLN248      0.1566
    124  C         14.6960   28.1490   32.4300 C.2   248  GLN248      0.2260
    125  O         15.4520   28.5980   33.2990 O.2   248  GLN248     -0.2867
    126  CB        13.7220   30.1490   31.3280 C.3   248  GLN248      0.0367
    127  CG        14.2800   29.8960   29.9410 C.3   248  GLN248      0.0905
    128  CD        14.1620   31.0950   29.0430 C.2   248  GLN248      0.2608
    129  OE1       13.8480   32.1910   29.4990 O.2   248  GLN248     -0.2717
    130  NE2       14.4320   30.9000   27.7470 N.am  248  GLN248     -0.0878
@<TRIPOS>BOND
     1    54    53    2
     2    45    44    2
     3    53    52    1
     4    44    43    1
     5    44    51   am
     6    52    51    1
     7    52    55    1
     8    43    46    1
     9    43    42    1
    10    57    58    1
    11    57    56    1
    12    55    56    1
    13    46    47    1
    14    58    59    2
    15    59    61    1
    16    59    60    1
    17    47    48    1
    18    49    48    2
    19    67    66    1
    20    48    50   am
    21    66    63    1
    22    33    32    2
    23    29    27   ar
    24    24    23    2
    25    63    62    1
    26    63    64    1
    27    93    92   ar
    28    93    91   ar
    29    32    31    1
    30    27    28   ar
    31    27    26    1
    32    64    65    2
    33    92    90   ar
    34    23    30   am
    35    23    22    1
    36    38    36   ar
    37    38    40   ar
    38    31    30    1
    39    31    34    1
    40    26    25    1
    41    91    89   ar
    42    36    35   ar
    43    41    40    1
    44    40    39   ar
    45    22    25    1
    46    22    21    1
    47    90    87   ar
    48   113   112    1
    49    35    34    1
    50    35    37   ar
    51    89    87   ar
    52    89    88   ar
    53    39    37   ar
    54    87    85   ar
    55   112   111    1
    56    77    76    1
    57    77    78    1
    58   111   110    1
    59    88    86   ar
    60    76    70   am
    61    75    73   ar
    62    13    12    2
    63   130   128   am
    64    72    73    1
    65    72    69    1
    66    85    86   ar
    67    85    84    1
    68    78    80   am
    69    78    79    2
    70    68    69    1
    71    80    81    1
    72    73    74   ar
    73   110   109    1
    74     4     3    2
    75    70    69    1
    76    70    71    2
    77    12    11    1
    78    84    81    1
    79    81    82    1
    80   128   129    2
    81   128   127    1
    82    20    18   ar
    83    20    19   ar
    84     3     2    1
    85     3    10   am
    86   100   101    1
    87   100    99    1
    88   109   106    1
    89    18    16   ar
    90    11    10    1
    91    11    14    1
    92    19    17   ar
    93   101   102    2
    94   127   126    1
    95    16    15   ar
    96     2     5    1
    97     2     1    1
    98    17    15   ar
    99    15    14    1
   100    82    83    2
   101   102   104    1
   102   102   103    1
   103    98    99    1
   104    98    95    1
   105   105   106    1
   106   105    96   am
   107   106   107    1
   108     5     6    1
   109     6     7    1
   110   126   123    1
   111    94    95    1
   112    96    95    1
   113    96    97    2
   114     7     8   ar
   115     7     9   ar
   116   123   124    1
   117   123   122    1
   118   107   108    2
   119   121   119   ar
   120   124   125    2
   121   119   118    1
   122   119   120   ar
   123   118   115    1
   124   115   114    1
   125   115   116    1
   126   116   117    2
