@<TRIPOS>MOLECULE
tmp/4fh2A02.pdb
 82 74 0 0 0
SMALL
GASTEIGER

@<TRIPOS>ATOM
      1  N          8.0550   32.5010    8.4100 N.3    45  CYS45      -0.1235
      2  CA         7.6580   31.2590    7.7660 C.3    45  CYS45       0.1677
      3  C          8.2650   29.9970    8.3700 C.2    45  CYS45       0.2270
      4  O          7.8660   28.9040    7.9870 O.2    45  CYS45      -0.2867
      5  CB         7.8940   31.3040    6.2570 C.3    45  CYS45       0.0956
      6  SG         6.5270   32.1110    5.3550 S.3    45  CYS45      -0.0801
      7  N          1.7990   37.2500   -1.1630 N.3    80  TYR80      -0.1241
      8  CA         2.7730   36.1940   -1.5080 C.3    80  TYR80       0.1605
      9  C          2.1630   34.7960   -1.5160 C.2    80  TYR80       0.2264
     10  O          2.2280   34.0390   -0.5340 O.2    80  TYR80      -0.2867
     11  CB         4.0700   36.2540   -0.6980 C.3    80  TYR80       0.0534
     12  CG         5.1870   35.5500   -1.4210 C.ar   80  TYR80      -0.0201
     13  CD1        5.8000   36.1450   -2.5250 C.ar   80  TYR80      -0.0009
     14  CD2        5.6070   34.2750   -1.0370 C.ar   80  TYR80      -0.0009
     15  CE1        6.8100   35.5040   -3.2210 C.ar   80  TYR80       0.0417
     16  CE2        6.6290   33.6220   -1.7260 C.ar   80  TYR80       0.0417
     17  CZ         7.2260   34.2470   -2.8190 C.ar   80  TYR80       0.1957
     18  OH         8.2370   33.6250   -3.5200 O.3    80  TYR80      -0.2866
     19  N          7.0910   29.0230    0.5850 N.3   105  SER105     -0.1217
     20  CA         6.6790   30.0740    1.5270 C.3   105  SER105      0.1889
     21  C          5.3660   30.7130    1.0920 C.2   105  SER105      0.2288
     22  O          5.1940   31.9340    1.1810 O.2   105  SER105     -0.2866
     23  CB         7.7750   31.1490    1.7070 C.3   105  SER105      0.2089
     24  OG         8.8710   30.6650    2.4680 O.3   105  SER105     -0.2183
     25  N          2.0030   31.9940    1.4750 N.3   107  ASN107     -0.1240
     26  CA         1.3550   32.5160    2.6710 C.3   107  ASN107      0.1653
     27  C         -0.1200   32.1620    2.7730 C.2   107  ASN107      0.2266
     28  O         -0.6320   31.9040    3.8730 O.2   107  ASN107     -0.2867
     29  CB         1.5470   34.0350    2.7720 C.3   107  ASN107      0.1155
     30  CG         2.9210   34.4220    3.2690 C.2   107  ASN107      0.2627
     31  OD1        3.5300   33.7090    4.0620 O.2   107  ASN107     -0.2716
     32  ND2        3.4130   35.5720    2.8140 N.am  107  ASN107     -0.0877
     33  N          4.2890   38.5570   10.7860 N.3   145  ASN145     -0.1240
     34  CA         5.6480   38.9960   10.4570 C.3   145  ASN145      0.1653
     35  C          5.9910   40.3820   10.9950 C.2   145  ASN145      0.2266
     36  O          7.0900   40.8850   10.7530 O.2   145  ASN145     -0.2867
     37  CB         5.8600   39.0130    8.9420 C.3   145  ASN145      0.1155
     38  CG         5.6930   37.6550    8.3220 C.2   145  ASN145      0.2627
     39  OD1        6.4280   36.7200    8.6350 O.2   145  ASN145     -0.2716
     40  ND2        4.7170   37.5350    7.4270 N.am  145  ASN145     -0.0877
     41  N         12.9190   27.8030   -1.8780 N.3   191  VAL191     -0.1245
     42  CA        13.2970   29.1750   -1.5220 C.3   191  VAL191      0.1561
     43  C         14.8110   29.3120   -1.3470 C.2   191  VAL191      0.2260
     44  O         15.4500   30.1690   -1.9770 O.2   191  VAL191     -0.2867
     45  CB        12.5400   29.6570   -0.2560 C.3   191  VAL191      0.0252
     46  CG1       12.9300   31.0800    0.1030 C.3   191  VAL191      0.0019
     47  CG2       11.0410   29.5740   -0.4620 C.3   191  VAL191      0.0019
     48  N         13.0690   28.6080    5.5520 N.3   210  THR210     -0.1203
     49  CA        13.4500   29.9930    5.8200 C.3   210  THR210      0.1994
     50  C         12.2530   30.8760    6.1650 C.2   210  THR210      0.2618
     51  O         11.0940   30.4720    6.0200 O.2   210  THR210     -0.2717
     52  CB        14.1560   30.6290    4.6230 C.3   210  THR210      0.1784
     53  OG1       13.3270   30.4780    3.4700 O.3   210  THR210     -0.2211
     54  CG2       15.4780   29.9530    4.3910 C.3   210  THR210      0.0376
     55  N         12.5510   32.0650    6.6810 N.am  211  GLY211     -0.1942
     56  CA        11.5350   33.0620    6.9300 C.3   211  GLY211      0.2014
     57  C         12.1310   34.4440    6.8970 C.2   211  GLY211      0.2638
     58  O         13.3200   34.6340    7.1730 O.2   211  GLY211     -0.2714
     59  N         11.2740   35.4180    6.6040 N.am  212  ALA212     -0.1977
     60  CA        11.6580   36.8360    6.6300 C.3   212  ALA212      0.1597
     61  C         10.4970   37.6370    7.2140 C.2   212  ALA212      0.2287
     62  O          9.3260   37.2910    7.0060 O.2   212  ALA212     -0.2864
     63  CB        11.9810   37.3180    5.2250 C.3   212  ALA212      0.0319
     64  N         14.7910   37.6440   10.1930 N.3   218  ARG218     -0.1245
     65  CA        15.2750   36.6710    9.2150 C.3   218  ARG218      0.1563
     66  C         15.5190   35.3840    9.9910 C.2   218  ARG218      0.2260
     67  O         15.9100   35.4160   11.1520 O.2   218  ARG218     -0.2867
     68  CB        16.5990   37.1540    8.6080 C.3   218  ARG218      0.0307
     69  CG        17.0660   36.4000    7.3780 C.3   218  ARG218      0.0489
     70  CD        16.0850   36.6030    6.2490 C.3   218  ARG218      0.2205
     71  NE        16.5740   36.0500    4.9800 N.pl3 218  ARG218     -0.0865
     72  CZ        15.9240   35.1700    4.2140 C.cat 218  ARG218      0.5346
     73  NH1       16.4670   34.7950    3.0620 N.pl3 218  ARG218      0.1354
     74  NH2       14.7360   34.6720    4.5660 N.pl3 218  ARG218      0.1354
     75  N         18.8610   42.7570    3.0640 N.3   245  MET245     -0.1245
     76  CA        18.6040   41.3200    2.9600 C.3   245  MET245      0.1570
     77  C         19.8910   40.5870    2.5730 C.2   245  MET245      0.2261
     78  O         20.2040   39.5510    3.1430 O.2   245  MET245     -0.2867
     79  CB        17.4860   41.0400    1.9540 C.3   245  MET245      0.0387
     80  CG        17.1330   39.5530    1.8030 C.3   245  MET245      0.0595
     81  SD        16.4900   38.8240    3.3240 S.3   245  MET245     -0.1393
     82  CE        14.8260   39.4700    3.3030 C.3   245  MET245      0.0692
@<TRIPOS>BOND
     1    18    17    1
     2    15    17   ar
     3    15    13   ar
     4    17    16   ar
     5    13    12   ar
     6    44    43    2
     7    41    42    1
     8    16    14   ar
     9    42    43    1
    10    42    45    1
    11     9     8    1
    12     9    10    2
    13     8     7    1
    14     8    11    1
    15    12    14   ar
    16    12    11    1
    17    47    45    1
    18    45    46    1
    19    19    20    1
    20    21    22    2
    21    21    20    1
    22    25    26    1
    23    20    23    1
    24    23    24    1
    25    80    79    1
    26    80    81    1
    27    79    76    1
    28    77    76    1
    29    77    78    2
    30    26    29    1
    31    26    27    1
    32    29    30    1
    33    27    28    2
    34    32    30   am
    35    76    75    1
    36    73    72    1
    37    30    31    2
    38    82    81    1
    39    53    52    1
    40    72    74    1
    41    72    71    2
    42    54    52    1
    43    52    49    1
    44    71    70    1
    45    63    60    1
    46     6     5    1
    47    48    49    1
    48    49    50    1
    49    51    50    2
    50    50    55   am
    51    70    69    1
    52     5     2    1
    53    59    60    1
    54    59    57   am
    55    60    61    1
    56    55    56    1
    57    57    56    1
    58    57    58    2
    59    62    61    2
    60    69    68    1
    61    40    38   am
    62     2     3    1
    63     2     1    1
    64     4     3    2
    65    38    39    2
    66    38    37    1
    67    68    65    1
    68    37    34    1
    69    65    66    1
    70    65    64    1
    71    66    67    2
    72    34    33    1
    73    34    35    1
    74    36    35    2
