@<TRIPOS>MOLECULE
tmp/4fh6B01.pdb
 117 116 0 0 0
SMALL
GASTEIGER

@<TRIPOS>ATOM
      1  N          4.6700   37.9240  -14.7130 N.3    21  PHE21      -0.1241
      2  CA         5.5100   37.5290  -15.8390 C.3    21  PHE21       0.1605
      3  C          6.3010   38.7260  -16.3610 C.2    21  PHE21       0.2264
      4  O          7.4720   38.5900  -16.7030 O.2    21  PHE21      -0.2867
      5  CB         4.6580   36.8920  -16.9450 C.3    21  PHE21       0.0534
      6  CG         5.4490   36.3070  -18.0800 C.ar   21  PHE21      -0.0203
      7  CD1        6.3160   35.2560  -17.8710 C.ar   21  PHE21      -0.0042
      8  CD2        5.2770   36.7760  -19.3680 C.ar   21  PHE21      -0.0042
      9  CE1        7.0270   34.7000  -18.9210 C.ar   21  PHE21      -0.0003
     10  CE2        5.9810   36.2250  -20.4210 C.ar   21  PHE21      -0.0003
     11  CZ         6.8580   35.1890  -20.2000 C.ar   21  PHE21      -0.0000
     12  N          9.1880   39.2900  -14.0610 N.3    24  PHE24      -0.1241
     13  CA        10.2180   38.3240  -14.4290 C.3    24  PHE24       0.1605
     14  C         11.0490   38.7800  -15.6340 C.2    24  PHE24       0.2264
     15  O         12.2750   38.8300  -15.5590 O.2    24  PHE24      -0.2867
     16  CB         9.5560   36.9530  -14.6670 C.3    24  PHE24       0.0534
     17  CG        10.4390   35.9290  -15.3430 C.ar   24  PHE24      -0.0203
     18  CD1       11.6280   35.4850  -14.7550 C.ar   24  PHE24      -0.0042
     19  CD2       10.0590   35.3570  -16.5570 C.ar   24  PHE24      -0.0042
     20  CE1       12.4050   34.5210  -15.3680 C.ar   24  PHE24      -0.0003
     21  CE2       10.8520   34.4110  -17.1770 C.ar   24  PHE24      -0.0003
     22  CZ        12.0180   33.9820  -16.5800 C.ar   24  PHE24      -0.0000
     23  N         11.3080   33.0650  -25.8900 N.3    35  PHE35      -0.1241
     24  CA         9.9900   33.3830  -26.4190 C.3    35  PHE35       0.1605
     25  C         10.1330   34.0420  -27.7800 C.2    35  PHE35       0.2264
     26  O         11.2290   34.4650  -28.1650 O.2    35  PHE35      -0.2867
     27  CB         9.2140   34.2630  -25.4150 C.3    35  PHE35       0.0534
     28  CG         9.1490   33.6600  -24.0380 C.ar   35  PHE35      -0.0203
     29  CD1       10.1390   33.9310  -23.1040 C.ar   35  PHE35      -0.0042
     30  CD2        8.1280   32.7760  -23.6860 C.ar   35  PHE35      -0.0042
     31  CE1       10.1210   33.3550  -21.8500 C.ar   35  PHE35      -0.0003
     32  CE2        8.1040   32.1940  -22.4220 C.ar   35  PHE35      -0.0003
     33  CZ         9.1040   32.4950  -21.5070 C.ar   35  PHE35      -0.0000
     34  N         -1.0030   33.2340  -23.4260 N.3    55  HIS55      -0.1241
     35  CA         0.0870   32.3070  -23.0470 C.3    55  HIS55       0.1621
     36  C          0.3310   32.3480  -21.5800 C.2    55  HIS55       0.2264
     37  O          0.4430   31.3300  -20.9080 O.2    55  HIS55      -0.2867
     38  CB         1.4100   32.6970  -23.7230 C.3    55  HIS55       0.0745
     39  CG         2.6550   32.2410  -22.9630 C.ar   55  HIS55       0.0817
     40  ND1        3.4240   33.0770  -22.2340 N.ar   55  HIS55      -0.2268
     41  CD2        3.2190   30.9830  -22.8280 C.ar   55  HIS55       0.1154
     42  CE1        4.4390   32.3880  -21.6830 C.ar   55  HIS55       0.1986
     43  NE2        4.3240   31.1090  -22.0610 N.ar   55  HIS55      -0.2212
     44  N          0.2060   29.6390  -18.4770 N.3    59  VAL59      -0.1231
     45  CA         1.3000   29.3600  -17.5480 C.3    59  VAL59       0.1692
     46  C          0.8420   29.4320  -16.0940 C.2    59  VAL59       0.2592
     47  O          1.0780   28.5070  -15.2970 O.2    59  VAL59      -0.2718
     48  CB         2.4590   30.3510  -17.7500 C.3    59  VAL59       0.0266
     49  CG1        3.5220   30.1960  -16.6730 C.3    59  VAL59       0.0020
     50  CG2        3.0830   30.1220  -19.1230 C.3    59  VAL59       0.0020
     51  N          0.1740   30.5220  -15.7440 N.am   60  PHE60      -0.1976
     52  CA        -0.2570   30.6850  -14.3560 C.3    60  PHE60       0.1639
     53  C         -1.4470   29.8090  -13.9720 C.2    60  PHE60       0.2290
     54  O         -1.5550   29.4000  -12.8290 O.2    60  PHE60      -0.2864
     55  CB        -0.4870   32.1550  -13.9990 C.3    60  PHE60       0.0560
     56  CG         0.7890   32.8810  -13.7310 C.ar   60  PHE60      -0.0200
     57  CD1        1.6580   33.2180  -14.7620 C.ar   60  PHE60      -0.0042
     58  CD2        1.1630   33.1520  -12.4280 C.ar   60  PHE60      -0.0042
     59  CE1        2.8610   33.8430  -14.4960 C.ar   60  PHE60      -0.0003
     60  CE2        2.3630   33.7850  -12.1620 C.ar   60  PHE60      -0.0003
     61  CZ         3.2080   34.1060  -13.1950 C.ar   60  PHE60      -0.0000
     62  N          0.4770   26.8110  -13.1070 N.3    63  MET63      -0.1245
     63  CA         1.2640   27.0460  -11.9010 C.3    63  MET63       0.1570
     64  C          0.3680   26.9520  -10.6790 C.2    63  MET63       0.2261
     65  O          0.7500   26.3680   -9.6520 O.2    63  MET63      -0.2867
     66  CB         1.9850   28.3910  -11.9300 C.3    63  MET63       0.0387
     67  CG         2.9810   28.5350  -10.7710 C.3    63  MET63       0.0595
     68  SD         3.5380   30.2160  -10.4550 S.3    63  MET63      -0.1393
     69  CE         4.4750   30.5400  -11.9430 C.3    63  MET63       0.0692
     70  N          9.3170   23.2470  -23.1620 N.3    89  HIS89      -0.1241
     71  CA        10.3460   23.4490  -22.1410 C.3    89  HIS89       0.1621
     72  C         11.6360   22.7140  -22.4300 C.2    89  HIS89       0.2264
     73  O         12.4770   22.5640  -21.5370 O.2    89  HIS89      -0.2867
     74  CB         9.8110   23.0100  -20.7700 C.3    89  HIS89       0.0745
     75  CG         8.7300   23.9010  -20.2100 C.ar   89  HIS89       0.0817
     76  ND1        7.9990   23.5510  -19.1360 N.ar   89  HIS89      -0.2268
     77  CD2        8.2910   25.1600  -20.5980 C.ar   89  HIS89       0.1154
     78  CE1        7.1270   24.5420  -18.8470 C.ar   89  HIS89       0.1986
     79  NE2        7.3160   25.5350  -19.7330 N.ar   89  HIS89      -0.2212
     80  N         16.1640   28.6570  -15.0810 N.3    96  ASN96      -0.1225
     81  CA        15.1100   29.4920  -15.6400 C.3    96  ASN96       0.1785
     82  C         13.9150   29.6000  -14.6760 C.2    96  ASN96       0.2597
     83  O         13.3310   30.6650  -14.5080 O.2    96  ASN96      -0.2718
     84  CB        14.6160   28.9250  -16.9700 C.3    96  ASN96       0.1169
     85  CG        15.6970   28.8780  -18.0290 C.2    96  ASN96       0.2627
     86  OD1       16.1300   27.8030  -18.4270 O.2    96  ASN96      -0.2716
     87  ND2       16.1290   30.0430  -18.4940 N.am   96  ASN96      -0.0877
     88  N         13.5830   28.4890  -14.0360 N.am   97  PHE97      -0.1976
     89  CA        12.5160   28.4440  -13.0520 C.3    97  PHE97       0.1639
     90  C         12.9040   29.1700  -11.7700 C.2    97  PHE97       0.2290
     91  O         12.0680   29.8880  -11.1850 O.2    97  PHE97      -0.2864
     92  CB        12.1200   26.9880  -12.7480 C.3    97  PHE97       0.0560
     93  CG        11.4480   26.2940  -13.9020 C.ar   97  PHE97      -0.0200
     94  CD1       12.1940   25.7990  -14.9700 C.ar   97  PHE97      -0.0042
     95  CD2       10.0640   26.1520  -13.9330 C.ar   97  PHE97      -0.0042
     96  CE1       11.5700   25.1910  -16.0440 C.ar   97  PHE97      -0.0003
     97  CE2        9.4430   25.5210  -14.9950 C.ar   97  PHE97      -0.0003
     98  CZ        10.1930   25.0400  -16.0510 C.ar   97  PHE97      -0.0000
     99  N         12.3560   32.8290  -12.3900 N.3   100  LEU100     -0.1231
    100  CA        10.9290   33.1460  -12.3480 C.3   100  LEU100      0.1693
    101  C         10.4320   33.2870  -10.9000 C.2   100  LEU100      0.2592
    102  O          9.7230   34.2440  -10.5770 O.2   100  LEU100     -0.2718
    103  CB        10.1070   32.1120  -13.1260 C.3   100  LEU100      0.0284
    104  CG         8.5860   32.2610  -13.0030 C.3   100  LEU100      0.0019
    105  CD1        8.1200   33.6100  -13.5220 C.3   100  LEU100      0.0001
    106  CD2        7.8590   31.1630  -13.7510 C.3   100  LEU100      0.0001
    107  N         10.8180   32.3560  -10.0290 N.am  101  PHE101     -0.1976
    108  CA        10.3550   32.4200   -8.6410 C.3   101  PHE101      0.1639
    109  C         10.9910   33.5360   -7.8120 C.2   101  PHE101      0.2290
    110  O         10.3290   34.0990   -6.9360 O.2   101  PHE101     -0.2864
    111  CB        10.3760   31.0310   -7.9740 C.3   101  PHE101      0.0560
    112  CG         9.2360   30.1940   -8.4220 C.ar  101  PHE101     -0.0200
    113  CD1        8.0000   30.3360   -7.8210 C.ar  101  PHE101     -0.0042
    114  CD2        9.3500   29.3520   -9.5070 C.ar  101  PHE101     -0.0042
    115  CE1        6.9090   29.6270   -8.2750 C.ar  101  PHE101     -0.0003
    116  CE2        8.2640   28.6390   -9.9630 C.ar  101  PHE101     -0.0003
    117  CZ         7.0410   28.7800   -9.3420 C.ar  101  PHE101     -0.0000
@<TRIPOS>BOND
     1    26    25    2
     2    25    24    1
     3    24    23    1
     4    24    27    1
     5    27    28    1
     6    28    30   ar
     7    28    29   ar
     8    38    35    1
     9    38    39    1
    10    30    32   ar
    11    34    35    1
    12    70    71    1
    13    29    31   ar
    14    35    36    1
    15    39    41   ar
    16    39    40   ar
    17    41    43   ar
    18    72    71    1
    19    72    73    2
    20    32    33   ar
    21    40    42   ar
    22    71    74    1
    23    43    42   ar
    24    31    33   ar
    25    36    37    2
    26    74    75    1
    27    77    75   ar
    28    77    79   ar
    29    10    11   ar
    30    10     8   ar
    31    75    76   ar
    32    11     9   ar
    33    79    78   ar
    34     8     6   ar
    35    76    78   ar
    36    50    48    1
    37     9     7   ar
    38    87    85   am
    39    44    45    1
    40    86    85    2
    41     6     7   ar
    42     6     5    1
    43    85    84    1
    44    48    45    1
    45    48    49    1
    46    45    46    1
    47    21    22   ar
    48    21    19   ar
    49    84    81    1
    50     5     2    1
    51     4     3    2
    52    22    20   ar
    53    19    17   ar
    54     3     2    1
    55    46    51   am
    56    46    47    2
    57    98    96   ar
    58    98    97   ar
    59    96    94   ar
    60     2     1    1
    61    51    52    1
    62    81    80    1
    63    81    82    1
    64    14    15    2
    65    14    13    1
    66    20    18   ar
    67    17    18   ar
    68    17    16    1
    69    97    95   ar
    70    94    93   ar
    71    57    59   ar
    72    57    56   ar
    73    82    83    2
    74    82    88   am
    75    16    13    1
    76    59    61   ar
    77    13    12    1
    78    52    55    1
    79    52    53    1
    80    88    89    1
    81    55    56    1
    82    53    54    2
    83    95    93   ar
    84    93    92    1
    85   106   104    1
    86    56    58   ar
    87   105   104    1
    88    61    60   ar
    89   103   104    1
    90   103   100    1
    91    62    63    1
    92    89    92    1
    93    89    90    1
    94    58    60   ar
    95    99   100    1
    96   100   101    1
    97    69    68    1
    98    66    63    1
    99    66    67    1
   100    63    64    1
   101    90    91    2
   102   101   102    2
   103   101   107   am
   104    67    68    1
   105    64    65    2
   106   107   108    1
   107   116   114   ar
   108   116   117   ar
   109   114   112   ar
   110   117   115   ar
   111   108   111    1
   112   108   109    1
   113   112   111    1
   114   112   113   ar
   115   115   113   ar
   116   109   110    2
