@<TRIPOS>MOLECULE
tmp/4fhaB01.pdb
 82 79 0 0 0
SMALL
GASTEIGER

@<TRIPOS>ATOM
      1  N        -21.2050  -24.2270   11.3940 N.3    53  SER53      -0.1203
      2  CA       -20.1720  -24.7430   12.3030 C.3    53  SER53       0.2005
      3  C        -19.8760  -23.8620   13.5260 C.2    53  SER53       0.2460
      4  O        -19.5840  -24.3980   14.5930 O.2    53  SER53      -0.2732
      5  CB       -18.8760  -25.0880   11.5550 C.3    53  SER53       0.2103
      6  OG       -18.2830  -23.9350   10.9800 O.3    53  SER53      -0.2182
      7  N        -19.9580  -22.5150   13.3870 N.am   54  PRO54      -0.2728
      8  CA       -19.7410  -21.6760   14.5730 C.3    54  PRO54       0.1401
      9  C        -20.6590  -22.0270   15.7390 C.2    54  PRO54       0.2269
     10  O        -20.2780  -21.8340   16.8900 O.2    54  PRO54      -0.2865
     11  CB       -20.0620  -20.2640   14.0690 C.3    54  PRO54       0.0296
     12  CG       -19.7670  -20.3140   12.6140 C.3    54  PRO54       0.0237
     13  CD       -20.1840  -21.6920   12.1820 C.3    54  PRO54       0.0939
     14  N        -21.8910  -25.1580   16.2000 N.3    56  LEU56      -0.1231
     15  CA       -21.6880  -26.5640   16.5530 C.3    56  LEU56       0.1693
     16  C        -20.4990  -26.7140   17.4860 C.2    56  LEU56       0.2593
     17  O        -19.4650  -26.0770   17.2860 O.2    56  LEU56      -0.2718
     18  CB       -21.4590  -27.4160   15.3020 C.3    56  LEU56       0.0284
     19  CG       -22.4670  -27.3610   14.1500 C.3    56  LEU56       0.0019
     20  CD1      -21.9200  -28.1360   12.9650 C.3    56  LEU56       0.0001
     21  CD2      -23.8340  -27.8920   14.5620 C.3    56  LEU56       0.0001
     22  N        -20.6440  -27.5560   18.5050 N.am   57  THR57      -0.1939
     23  CA       -19.4960  -27.9420   19.3230 C.3    57  THR57       0.2028
     24  C        -18.6420  -28.9260   18.5270 C.2    57  THR57       0.2642
     25  O        -19.1330  -29.5640   17.5860 O.2    57  THR57      -0.2714
     26  CB       -19.9070  -28.5920   20.6610 C.3    57  THR57       0.1808
     27  OG1      -20.6590  -29.7830   20.4080 O.3    57  THR57      -0.2208
     28  CG2      -20.7320  -27.6330   21.5080 C.3    57  THR57       0.0379
     29  N        -17.3670  -29.0390   18.8910 N.am   58  HIS58      -0.1973
     30  CA       -16.4830  -30.0180   18.2620 C.3    58  HIS58       0.1656
     31  C        -17.0100  -31.4230   18.3950 C.2    58  HIS58       0.2291
     32  O        -16.9190  -32.2140   17.4530 O.2    58  HIS58      -0.2864
     33  CB       -15.0630  -29.9100   18.8120 C.3    58  HIS58       0.0771
     34  CG       -14.2340  -28.8330   18.1510 C.ar   58  HIS58       0.0820
     35  ND1      -14.2980  -28.5750   16.8300 N.ar   58  HIS58      -0.2267
     36  CD2      -13.2860  -27.9570   18.6760 C.ar   58  HIS58       0.1154
     37  CE1      -13.4450  -27.5790   16.5260 C.ar   58  HIS58       0.1986
     38  NE2      -12.8280  -27.2000   17.6560 N.ar   58  HIS58      -0.2212
     39  N        -19.7360  -32.0230   15.9400 N.3    61  GLU61      -0.1245
     40  CA       -19.1540  -32.1910   14.6150 C.3    61  GLU61       0.1567
     41  C        -18.7050  -33.6370   14.3980 C.2    61  GLU61       0.2260
     42  O        -18.9200  -34.1960   13.3240 O.2    61  GLU61      -0.2867
     43  CB       -17.9990  -31.2120   14.3980 C.3    61  GLU61       0.0388
     44  CG       -18.4530  -29.7680   14.2020 C.3    61  GLU61       0.1160
     45  CD       -17.3150  -28.7640   14.2660 C.2    61  GLU61       0.3649
     46  OE1      -16.3050  -29.0350   14.9520 O.co2  61  GLU61      -0.2457
     47  OE2      -17.4390  -27.6920   13.6370 O.co2  61  GLU61      -0.2457
     48  N        -10.5140  -23.2370   13.4480 N.3    84  THR84      -0.1203
     49  CA       -11.1710  -22.0680   14.0340 C.3    84  THR84       0.1994
     50  C        -10.1870  -20.8960   14.0070 C.2    84  THR84       0.2617
     51  O         -9.1640  -20.9580   13.3230 O.2    84  THR84      -0.2717
     52  CB       -11.6510  -22.3250   15.4800 C.3    84  THR84       0.1784
     53  OG1      -10.5580  -22.7890   16.2860 O.3    84  THR84      -0.2211
     54  CG2      -12.7930  -23.3360   15.5150 C.3    84  THR84       0.0376
     55  N        -10.4900  -19.8320   14.7450 N.am   85  ASN85      -0.1974
     56  CA        -9.5690  -18.7020   14.8660 C.3    85  ASN85       0.1688
     57  C         -8.6000  -18.8830   16.0370 C.2    85  ASN85       0.2292
     58  O         -7.9530  -17.9320   16.4770 O.2    85  ASN85      -0.2864
     59  CB       -10.3440  -17.3840   14.9930 C.3    85  ASN85       0.1181
     60  CG       -11.1970  -17.3150   16.2490 C.2    85  ASN85       0.2629
     61  OD1      -11.4080  -18.3170   16.9360 O.2    85  ASN85      -0.2716
     62  ND2      -11.6980  -16.1220   16.5540 N.am   85  ASN85      -0.0877
     63  N         -6.7740  -24.8550   19.3730 N.3    89  ASP89      -0.1239
     64  CA        -8.0490  -25.5500   19.1600 C.3    89  ASP89       0.1674
     65  C         -8.0700  -26.3060   17.8280 C.2    89  ASP89       0.2266
     66  O         -8.4920  -27.4680   17.7700 O.2    89  ASP89      -0.2867
     67  CB        -9.2210  -24.5660   19.2330 C.3    89  ASP89       0.1410
     68  CG       -10.5610  -25.2270   18.9560 C.2    89  ASP89       0.3668
     69  OD1      -11.0560  -25.9710   19.8290 O.co2  89  ASP89      -0.2456
     70  OD2      -11.1220  -24.9950   17.8640 O.co2  89  ASP89      -0.2456
     71  N        -10.8530  -15.6950   11.8960 N.3   112  TYR112     -0.1241
     72  CA       -11.8290  -14.6030   11.9100 C.3   112  TYR112      0.1605
     73  C        -11.7240  -13.8100   13.2030 C.2   112  TYR112      0.2264
     74  O        -11.2470  -14.3270   14.2170 O.2   112  TYR112     -0.2867
     75  CB       -13.2550  -15.1570   11.7500 C.3   112  TYR112      0.0534
     76  CG       -13.4640  -16.4880   12.4370 C.ar  112  TYR112     -0.0201
     77  CD1      -13.1740  -17.6820   11.7780 C.ar  112  TYR112     -0.0009
     78  CD2      -13.9300  -16.5540   13.7470 C.ar  112  TYR112     -0.0009
     79  CE1      -13.3510  -18.9050   12.4020 C.ar  112  TYR112      0.0417
     80  CE2      -14.1110  -17.7760   14.3810 C.ar  112  TYR112      0.0417
     81  CZ       -13.8130  -18.9460   13.7010 C.ar  112  TYR112      0.1957
     82  OH       -13.9840  -20.1660   14.3140 O.3   112  TYR112     -0.2866
@<TRIPOS>BOND
     1     6     5    1
     2     1     2    1
     3     5     2    1
     4    75    72    1
     5    75    76    1
     6    77    79   ar
     7    77    76   ar
     8    71    72    1
     9    72    73    1
    10    13    12    1
    11    13     7    1
    12     2     3    1
    13    79    81   ar
    14    76    78   ar
    15    12    11    1
    16    20    19    1
    17    73    74    2
    18    51    50    2
    19    42    41    2
    20     7     3   am
    21     7     8    1
    22    48    49    1
    23     3     4    2
    24    47    45   ar
    25    81    82    1
    26    81    80   ar
    27    78    80   ar
    28    50    49    1
    29    50    55   am
    30    49    52    1
    31    11     8    1
    32    19    21    1
    33    19    18    1
    34    44    45    1
    35    44    43    1
    36    45    46   ar
    37    43    40    1
    38    41    40    1
    39     8     9    1
    40    40    39    1
    41    55    56    1
    42    56    59    1
    43    56    57    1
    44    59    60    1
    45    18    15    1
    46    52    54    1
    47    52    53    1
    48     9    10    2
    49    57    58    2
    50    14    15    1
    51    60    62   am
    52    60    61    2
    53    37    35   ar
    54    37    38   ar
    55    15    16    1
    56    35    34   ar
    57    17    16    2
    58    32    31    2
    59    16    22   am
    60    25    24    2
    61    38    36   ar
    62    66    65    2
    63    65    64    1
    64    70    68   ar
    65    34    36   ar
    66    34    33    1
    67    30    31    1
    68    30    33    1
    69    30    29    1
    70    22    23    1
    71    24    29   am
    72    24    23    1
    73    68    67    1
    74    68    69   ar
    75    64    67    1
    76    64    63    1
    77    23    26    1
    78    27    26    1
    79    26    28    1
