@<TRIPOS>MOLECULE
tmp/4fhdA00.pdb
 184 180 0 0 0
SMALL
GASTEIGER

@<TRIPOS>ATOM
      1  N        -31.1190    4.9280   14.8390 N.3    89  CYS89      -0.1235
      2  CA       -31.3390    3.7550   14.0020 C.3    89  CYS89       0.1677
      3  C        -32.7860    3.6620   13.5740 C.2    89  CYS89       0.2270
      4  O        -33.6840    4.0700   14.3110 O.2    89  CYS89      -0.2867
      5  CB       -30.9470    2.4840   14.7660 C.3    89  CYS89       0.0956
      6  SG       -30.9030    1.0050   13.7650 S.3    89  CYS89      -0.0801
      7  N        -35.4130   -3.1710   17.2270 N.3    93  CYS93      -0.1235
      8  CA       -35.0600   -4.2880   18.1070 C.3    93  CYS93       0.1677
      9  C        -35.5920   -4.0050   19.5200 C.2    93  CYS93       0.2270
     10  O        -35.3390   -2.9470   20.0870 O.2    93  CYS93      -0.2867
     11  CB       -33.5480   -4.5350   18.1100 C.3    93  CYS93       0.0956
     12  SG       -32.8470   -4.8710   16.4550 S.3    93  CYS93      -0.0801
     13  N        -34.9510   -5.0880   22.4500 N.3    95  TYR95      -0.1227
     14  CA       -33.9710   -5.0730   23.5310 C.3    95  TYR95       0.1736
     15  C        -32.9570   -3.9410   23.3790 C.2    95  TYR95       0.2596
     16  O        -32.0820   -3.7750   24.2360 O.2    95  TYR95      -0.2718
     17  CB       -33.2320   -6.4120   23.5530 C.3    95  TYR95       0.0548
     18  CG       -32.6180   -6.7700   22.2160 C.ar   95  TYR95      -0.0200
     19  CD1      -31.5100   -6.0900   21.7390 C.ar   95  TYR95      -0.0009
     20  CD2      -33.1630   -7.7750   21.4190 C.ar   95  TYR95      -0.0009
     21  CE1      -30.9570   -6.3880   20.5240 C.ar   95  TYR95       0.0417
     22  CE2      -32.6000   -8.0910   20.1970 C.ar   95  TYR95       0.0417
     23  CZ       -31.5070   -7.3770   19.7550 C.ar   95  TYR95       0.1957
     24  OH       -30.9260   -7.6720   18.5580 O.3    95  TYR95      -0.2866
     25  N        -33.0630   -3.1780   22.2870 N.am   96  CYS96      -0.1956
     26  CA       -32.0000   -2.2640   21.8810 C.3    96  CYS96       0.1843
     27  C        -31.5430   -1.3630   23.0270 C.2    96  CYS96       0.2625
     28  O        -32.3470   -0.6560   23.6390 O.2    96  CYS96      -0.2714
     29  CB       -32.4230   -1.4070   20.6800 C.3    96  CYS96       0.0997
     30  SG       -31.0680   -0.3430   20.0770 S.3    96  CYS96      -0.0797
     31  N        -30.2380   -1.3820   23.3000 N.am   97  TYR97      -0.1960
     32  CA       -29.6700   -0.5670   24.3650 C.3    97  TYR97       0.1771
     33  C        -29.7060    0.9280   24.0560 C.2    97  TYR97       0.2619
     34  O        -29.5390    1.7430   24.9690 O.2    97  TYR97      -0.2715
     35  CB       -28.2330   -1.0250   24.7210 C.3    97  TYR97       0.0574
     36  CG       -27.1430   -0.7760   23.6830 C.ar   97  TYR97      -0.0198
     37  CD1      -26.8500    0.5120   23.2200 C.ar   97  TYR97      -0.0009
     38  CD2      -26.3520   -1.8260   23.2210 C.ar   97  TYR97      -0.0009
     39  CE1      -25.8230    0.7360   22.2880 C.ar   97  TYR97       0.0417
     40  CE2      -25.3270   -1.6140   22.2960 C.ar   97  TYR97       0.0417
     41  CZ       -25.0680   -0.3300   21.8320 C.ar   97  TYR97       0.1957
     42  OH       -24.0510   -0.1270   20.9220 O.3    97  TYR97      -0.2866
     43  N        -29.9190    1.2970   22.7910 N.am   98  LEU98      -0.1977
     44  CA       -30.1040    2.7120   22.4310 C.3    98  LEU98       0.1596
     45  C        -31.3630    3.3500   23.0030 C.2    98  LEU98       0.2287
     46  O        -31.4560    4.5760   23.0540 O.2    98  LEU98      -0.2864
     47  CB       -30.1510    2.9080   20.9100 C.3    98  LEU98       0.0297
     48  CG       -28.8890    2.5580   20.1400 C.3    98  LEU98       0.0022
     49  CD1      -29.1020    2.9310   18.6590 C.3    98  LEU98       0.0001
     50  CD2      -27.6950    3.2830   20.7410 C.3    98  LEU98       0.0001
     51  N        -20.1460    2.1690   14.7050 N.3   138  ALA138     -0.1231
     52  CA       -21.5340    1.7690   14.9620 C.3   138  ALA138      0.1694
     53  C        -21.8530    1.6790   16.4580 C.2   138  ALA138      0.2592
     54  O        -22.6340    0.8280   16.8690 O.2   138  ALA138     -0.2718
     55  CB       -21.8060    0.4200   14.2970 C.3   138  ALA138      0.0304
     56  N        -21.2460    2.5450   17.2650 N.am  139  CYS139     -0.1970
     57  CA       -21.4750    2.5590   18.7070 C.3   139  CYS139      0.1712
     58  C        -22.9340    2.8890   19.0360 C.2   139  CYS139      0.2296
     59  O        -23.5260    2.2880   19.9210 O.2   139  CYS139     -0.2864
     60  CB       -20.5750    3.6080   19.3720 C.3   139  CYS139      0.0983
     61  SG       -20.2590    3.3250   21.1190 S.3   139  CYS139     -0.0798
     62  N        -25.5180    3.7230   16.4560 N.3   141  SER141     -0.1202
     63  CA       -26.3100    3.7740   15.2230 C.3   141  SER141      0.2020
     64  C        -26.1010    2.5040   14.4290 C.2   141  SER141      0.2618
     65  O        -25.1560    1.7750   14.6840 O.2   141  SER141     -0.2717
     66  CB       -25.8720    4.9540   14.3460 C.3   141  SER141      0.2103
     67  OG       -24.5290    4.7800   13.8860 O.3   141  SER141     -0.2182
     68  N        -26.9570    2.2400   13.4480 N.am  142  ASP142     -0.1973
     69  CA       -26.5630    1.2920   12.4050 C.3   142  ASP142      0.1709
     70  C        -26.0020    2.0830   11.2220 C.2   142  ASP142      0.2293
     71  O        -26.7170    2.4470   10.2810 O.2   142  ASP142     -0.2864
     72  CB       -27.6810    0.3450   11.9920 C.3   142  ASP142      0.1436
     73  CG       -27.1380   -0.9130   11.3410 C.2   142  ASP142      0.3671
     74  OD1      -27.3670   -2.0310   11.8710 O.co2 142  ASP142     -0.2456
     75  OD2      -26.4470   -0.7770   10.3050 O.co2 142  ASP142     -0.2456
     76  N        -20.5180   -2.7690   13.0530 N.3   171  VAL171     -0.1231
     77  CA       -21.3720   -3.9420   13.0550 C.3   171  VAL171      0.1692
     78  C        -22.7690   -3.5340   12.6260 C.2   171  VAL171      0.2593
     79  O        -23.2110   -2.4280   12.9200 O.2   171  VAL171     -0.2718
     80  CB       -21.3910   -4.6240   14.4430 C.3   171  VAL171      0.0266
     81  CG1      -21.8320   -3.6510   15.5310 C.3   171  VAL171      0.0020
     82  CG2      -22.2540   -5.8900   14.4030 C.3   171  VAL171      0.0020
     83  N        -23.4360   -4.4130   11.8930 N.am  172  THR172     -0.1939
     84  CA       -24.7250   -4.1060   11.2890 C.3   172  THR172      0.2028
     85  C        -25.6940   -5.2780   11.3260 C.2   172  THR172      0.2642
     86  O        -25.2920   -6.4270   11.3920 O.2   172  THR172     -0.2714
     87  CB       -24.5470   -3.6590    9.8140 C.3   172  THR172      0.1808
     88  OG1      -25.7990   -3.1960    9.2870 O.3   172  THR172     -0.2208
     89  CG2      -24.0220   -4.8020    8.9470 C.3   172  THR172      0.0379
     90  N        -26.9790   -4.9550   11.2790 N.am  173  LYS173     -0.1963
     91  CA       -28.0300   -5.9160   11.0100 C.3   173  LYS173      0.1728
     92  C        -28.6410   -5.6660    9.6230 C.2   173  LYS173      0.2616
     93  O        -29.7340   -6.1510    9.3400 O.2   173  LYS173     -0.2715
     94  CB       -29.1290   -5.7970   12.0740 C.3   173  LYS173      0.0311
     95  CG       -28.7400   -6.3110   13.4240 C.3   173  LYS173      0.0038
     96  CD       -29.9060   -6.2140   14.3960 C.3   173  LYS173      0.0206
     97  CE       -29.6190   -6.9040   15.7250 C.3   173  LYS173      0.1093
     98  NZ       -29.0550   -5.9940   16.7410 N.3   173  LYS173     -0.1314
     99  N        -27.9590   -4.9020    8.7680 N.am  174  TYR174     -0.1974
    100  CA       -28.5100   -4.5590    7.4450 C.3   174  TYR174      0.1639
    101  C        -27.7030   -5.1410    6.3000 C.2   174  TYR174      0.2290
    102  O        -26.4950   -5.3370    6.3980 O.2   174  TYR174     -0.2864
    103  CB       -28.7170   -3.0460    7.3020 C.3   174  TYR174      0.0560
    104  CG       -29.8080   -2.5980    8.2190 C.ar  174  TYR174     -0.0198
    105  CD1      -29.5340   -2.3120    9.5420 C.ar  174  TYR174     -0.0009
    106  CD2      -31.1310   -2.5680    7.7990 C.ar  174  TYR174     -0.0009
    107  CE1      -30.5370   -1.9470   10.4200 C.ar  174  TYR174      0.0417
    108  CE2      -32.1380   -2.2020    8.6570 C.ar  174  TYR174      0.0417
    109  CZ       -31.8370   -1.9000    9.9730 C.ar  174  TYR174      0.1957
    110  OH       -32.8340   -1.5450   10.8430 O.3   174  TYR174     -0.2866
    111  N        -24.3030   -8.5810   13.1630 N.3   194  SER194     -0.1217
    112  CA       -24.9600   -9.0920   14.3520 C.3   194  SER194      0.1889
    113  C        -25.7870  -10.3000   13.9560 C.2   194  SER194      0.2288
    114  O        -26.5870  -10.2470   13.0110 O.2   194  SER194     -0.2866
    115  CB       -25.8350   -8.0340   15.0180 C.3   194  SER194      0.2089
    116  OG       -25.0580   -6.9810   15.5430 O.3   194  SER194     -0.2183
    117  N        -20.9010  -10.5730   15.5700 N.3   231  VAL231     -0.1245
    118  CA       -21.2120  -10.2360   16.9460 C.3   231  VAL231      0.1561
    119  C        -22.4480  -11.0380   17.3080 C.2   231  VAL231      0.2260
    120  O        -23.5110  -10.8310   16.7370 O.2   231  VAL231     -0.2867
    121  CB       -21.4830   -8.7360   17.0950 C.3   231  VAL231      0.0252
    122  CG1      -21.9300   -8.4130   18.5130 C.3   231  VAL231      0.0019
    123  CG2      -20.2130   -7.9400   16.7110 C.3   231  VAL231      0.0019
    124  N        -25.0210  -11.3080   19.7090 N.3   233  ALA233     -0.1231
    125  CA       -25.5460  -10.3880   20.7200 C.3   233  ALA233      0.1679
    126  C        -26.9460   -9.9660   20.3190 C.2   233  ALA233      0.2434
    127  O        -27.1970   -9.7510   19.1310 O.2   233  ALA233     -0.2733
    128  CB       -24.6450   -9.1680   20.8260 C.3   233  ALA233      0.0304
    129  N        -27.8760   -9.8670   21.2860 N.am  234  PRO234     -0.2729
    130  CA       -27.7540  -10.2220   22.6970 C.3   234  PRO234      0.1401
    131  C        -27.8650  -11.7280   22.8980 C.2   234  PRO234      0.2269
    132  O        -28.7680  -12.3590   22.3450 O.2   234  PRO234     -0.2865
    133  CB       -28.9550   -9.5240   23.3330 C.3   234  PRO234      0.0296
    134  CG       -29.9590   -9.4520   22.2680 C.3   234  PRO234      0.0237
    135  CD       -29.2010   -9.3100   20.9810 C.3   234  PRO234      0.0939
    136  N        -21.8410  -10.9850   23.4420 N.3   269  ILE269     -0.1231
    137  CA       -22.4190  -10.0540   24.3950 C.3   269  ILE269      0.1692
    138  C        -23.7220  -10.6050   24.9420 C.2   269  ILE269      0.2592
    139  O        -24.6860  -10.7660   24.2000 O.2   269  ILE269     -0.2718
    140  CB       -22.7210   -8.6760   23.7520 C.3   269  ILE269      0.0266
    141  CG1      -21.5020   -8.1300   22.9950 C.3   269  ILE269      0.0019
    142  CG2      -23.2250   -7.6890   24.8190 C.3   269  ILE269      0.0020
    143  CD1      -21.8200   -6.8730   22.1490 C.3   269  ILE269      0.0001
    144  N        -23.7670  -10.8500   26.2470 N.am  270  GLN270     -0.1966
    145  CA       -25.0020  -11.2930   26.8770 C.3   270  GLN270      0.1733
    146  C        -26.0040  -10.1470   26.9580 C.2   270  GLN270      0.2616
    147  O        -25.6200   -8.9810   27.0580 O.2   270  GLN270     -0.2715
    148  CB       -24.7480  -11.8820   28.2760 C.3   270  GLN270      0.0408
    149  CG       -24.3400  -10.8740   29.3360 C.3   270  GLN270      0.0908
    150  CD       -24.0460  -11.5310   30.6780 C.2   270  GLN270      0.2608
    151  OE1      -24.9170  -12.1610   31.2640 O.2   270  GLN270     -0.2717
    152  NE2      -22.8270  -11.3620   31.1770 N.am  270  GLN270     -0.0878
    153  N        -27.2860  -10.4930   26.9330 N.am  271  HIS271     -0.1959
    154  CA       -28.3410   -9.5260   27.1220 C.3   271  HIS271      0.1787
    155  C        -28.1390   -8.7500   28.4220 C.2   271  HIS271      0.2620
    156  O        -27.9200   -9.3440   29.4790 O.2   271  HIS271     -0.2715
    157  CB       -29.7040  -10.2210   27.1540 C.3   271  HIS271      0.0785
    158  CG       -30.8550   -9.2760   27.2510 C.ar  271  HIS271      0.0821
    159  ND1      -31.9240   -9.4820   28.0990 N.ar  271  HIS271     -0.2267
    160  CD2      -31.1100   -8.1150   26.5990 C.ar  271  HIS271      0.1154
    161  CE1      -32.7840   -8.4850   27.9650 C.ar  271  HIS271      0.1986
    162  NE2      -32.3180   -7.6490   27.0550 N.ar  271  HIS271     -0.2212
    163  N        -28.2240   -7.4290   28.3290 N.am  272  ARG272     -0.1963
    164  CA       -28.1740   -6.5490   29.4900 C.3   272  ARG272      0.1729
    165  C        -29.2700   -5.5100   29.3940 C.2   272  ARG272      0.2616
    166  O        -29.7000   -5.1520   28.2910 O.2   272  ARG272     -0.2715
    167  CB       -26.8300   -5.8430   29.5750 C.3   272  ARG272      0.0348
    168  CG       -26.5860   -4.8390   28.4210 C.3   272  ARG272      0.0492
    169  CD       -25.1300   -4.7370   28.0630 C.3   272  ARG272      0.2205
    170  NE       -24.5910   -6.0660   27.9340 N.pl3 272  ARG272     -0.0865
    171  CZ       -23.5070   -6.5480   28.5390 C.cat 272  ARG272      0.5346
    172  NH1      -22.7210   -5.8080   29.3100 N.pl3 272  ARG272      0.1354
    173  NH2      -23.1990   -7.8070   28.3330 N.pl3 272  ARG272      0.1354
    174  N        -29.7310   -5.0260   30.5430 N.am  273  PHE273     -0.1974
    175  CA       -30.7150   -3.9490   30.5640 C.3   273  PHE273      0.1639
    176  C        -30.6340   -3.1560   31.8650 C.2   273  PHE273      0.2290
    177  O        -30.2650   -3.7000   32.9170 O.2   273  PHE273     -0.2864
    178  CB       -32.1370   -4.4860   30.3240 C.3   273  PHE273      0.0560
    179  CG       -32.6500   -5.4140   31.4000 C.ar  273  PHE273     -0.0200
    180  CD1      -32.4200   -6.7780   31.3260 C.ar  273  PHE273     -0.0042
    181  CD2      -33.4100   -4.9240   32.4600 C.ar  273  PHE273     -0.0042
    182  CE1      -32.9150   -7.6400   32.3020 C.ar  273  PHE273     -0.0003
    183  CE2      -33.9110   -5.7780   33.4320 C.ar  273  PHE273     -0.0003
    184  CZ       -33.6660   -7.1330   33.3580 C.ar  273  PHE273     -0.0000
@<TRIPOS>BOND
     1   101   102    2
     2   101   100    1
     3   103   100    1
     4   103   104    1
     5   100    99    1
     6   106   104   ar
     7   106   108   ar
     8   104   105   ar
     9   108   109   ar
    10    99    92   am
    11    89    87    1
    12    88    87    1
    13    93    92    2
    14   105   107   ar
    15    92    91    1
    16    87    84    1
    17   109   107   ar
    18   109   110    1
    19    71    70    2
    20    75    73   ar
    21    91    90    1
    22    91    94    1
    23    70    69    1
    24    90    85   am
    25    84    85    1
    26    84    83    1
    27    85    86    2
    28    73    74   ar
    29    73    72    1
    30    83    78   am
    31    72    69    1
    32    94    95    1
    33    69    68    1
    34    78    79    2
    35    78    77    1
    36   114   113    2
    37    76    77    1
    38    77    80    1
    39   111   112    1
    40    95    96    1
    41    68    64   am
    42     3     2    1
    43     3     4    2
    44     6     5    1
    45    67    66    1
    46   113   112    1
    47     2     5    1
    48     2     1    1
    49    55    52    1
    50    66    63    1
    51   112   115    1
    52    96    97    1
    53    82    80    1
    54    64    65    2
    55    64    63    1
    56    80    81    1
    57    51    52    1
    58    52    53    1
    59   115   116    1
    60    63    62    1
    61   117   118    1
    62    97    98    1
    63    12    11    1
    64    53    54    2
    65    53    56   am
    66   123   121    1
    67   120   119    2
    68   118   121    1
    69   118   119    1
    70   121   122    1
    71     7     8    1
    72    56    57    1
    73     8    11    1
    74     8     9    1
    75    24    23    1
    76    49    48    1
    77    57    58    1
    78    57    60    1
    79    58    59    2
    80   127   126    2
    81    60    61    1
    82     9    10    2
    83   124   125    1
    84    23    22   ar
    85    23    21   ar
    86    30    29    1
    87    48    50    1
    88    48    47    1
    89    22    20   ar
    90   126   125    1
    91   126   129   am
    92    21    19   ar
    93    29    26    1
    94   125   128    1
    95    47    44    1
    96    42    41    1
    97   135   129    1
    98   135   134    1
    99   129   130    1
   100    20    18   ar
   101    19    18   ar
   102    41    39   ar
   103    41    40   ar
   104    26    25    1
   105    26    27    1
   106   143   141    1
   107    18    17    1
   108   134   133    1
   109    25    15   am
   110    39    37   ar
   111    40    38   ar
   112   132   131    2
   113    44    43    1
   114    44    45    1
   115    13    14    1
   116   130   131    1
   117   130   133    1
   118    43    33   am
   119   141   140    1
   120    45    46    2
   121    27    31   am
   122    27    28    2
   123    37    36   ar
   124    38    36   ar
   125    31    32    1
   126    15    14    1
   127    15    16    2
   128   136   137    1
   129    14    17    1
   130    36    35    1
   131   140   137    1
   132   140   142    1
   133    33    32    1
   134    33    34    2
   135   139   138    2
   136    32    35    1
   137   137   138    1
   138   138   144   am
   139   144   145    1
   140   160   162   ar
   141   160   158   ar
   142   145   146    1
   143   145   148    1
   144   153   146   am
   145   153   154    1
   146   146   147    2
   147   162   161   ar
   148   154   157    1
   149   154   155    1
   150   157   158    1
   151   158   159   ar
   152   170   169    1
   153   170   171    2
   154   161   159   ar
   155   169   168    1
   156   148   149    1
   157   166   165    2
   158   163   155   am
   159   163   164    1
   160   173   171    1
   161   168   167    1
   162   155   156    2
   163   171   172    1
   164   149   150    1
   165   165   164    1
   166   165   174   am
   167   164   167    1
   168   178   175    1
   169   178   179    1
   170   174   175    1
   171   175   176    1
   172   150   152   am
   173   150   151    2
   174   180   179   ar
   175   180   182   ar
   176   179   181   ar
   177   176   177    2
   178   182   184   ar
   179   181   183   ar
   180   184   183   ar
