@<TRIPOS>MOLECULE
tmp/4fhdA01.pdb
 143 134 0 0 0
SMALL
GASTEIGER

@<TRIPOS>ATOM
      1  N        -14.8030    6.9400   24.4860 N.3    74  SER74      -0.1202
      2  CA       -14.1830    5.6180   24.5280 C.3    74  SER74       0.2020
      3  C        -15.1760    4.5660   24.0340 C.2    74  SER74       0.2619
      4  O        -16.3940    4.7490   24.1470 O.2    74  SER74      -0.2717
      5  CB       -13.7480    5.2910   25.9600 C.3    74  SER74       0.2103
      6  OG       -13.3280    3.9400   26.0660 O.3    74  SER74      -0.2182
      7  N        -14.6760    3.4680   23.4750 N.am   75  SER75      -0.1937
      8  CA       -15.5750    2.4170   22.9750 C.3    75  SER75       0.2055
      9  C        -15.0910    1.0020   23.2840 C.2    75  SER75       0.2643
     10  O        -15.2930    0.0850   22.4920 O.2    75  SER75      -0.2714
     11  CB       -15.8000    2.5860   21.4710 C.3    75  SER75       0.2130
     12  OG       -16.8080    1.7120   21.0010 O.3    75  SER75      -0.2179
     13  N        -14.4740    0.8220   24.4490 N.am   76  LYS76      -0.1963
     14  CA       -14.0640   -0.5060   24.8820 C.3    76  LYS76       0.1713
     15  C        -15.3160   -1.3300   25.1970 C.2    76  LYS76       0.2458
     16  O        -16.3240   -0.7770   25.6590 O.2    76  LYS76      -0.2730
     17  CB       -13.1650   -0.4250   26.1120 C.3    76  LYS76       0.0311
     18  CG       -11.8580    0.3270   25.8960 C.3    76  LYS76       0.0038
     19  CD       -10.8990   -0.4630   25.0350 C.3    76  LYS76       0.0206
     20  CE        -9.5010    0.1420   25.0720 C.3    76  LYS76       0.1093
     21  NZ        -8.5030   -0.7600   24.4390 N.3    76  LYS76      -0.1314
     22  N        -15.2740   -2.6460   24.9270 N.am   77  PRO77      -0.2716
     23  CA       -14.1600   -3.4520   24.4250 C.3    77  PRO77       0.1536
     24  C        -13.9610   -3.4870   22.8990 C.2    77  PRO77       0.2599
     25  O        -12.9490   -4.0330   22.4420 O.2    77  PRO77      -0.2715
     26  CB       -14.5160   -4.8530   24.9310 C.3    77  PRO77       0.0310
     27  CG       -15.9980   -4.8790   24.8560 C.3    77  PRO77       0.0237
     28  CD       -16.4610   -3.4800   25.1880 C.3    77  PRO77       0.0939
     29  N        -14.8740   -2.9230   22.1080 N.am   78  SER78      -0.1950
     30  CA       -14.6950   -2.9470   20.6410 C.3    78  SER78       0.1924
     31  C        -13.4380   -2.2170   20.1610 C.2    78  SER78       0.2314
     32  O        -12.7090   -2.7350   19.3400 O.2    78  SER78      -0.2863
     33  CB       -15.8860   -2.3330   19.9170 C.3    78  SER78       0.2116
     34  OG       -15.6270   -2.2400   18.5130 O.3    78  SER78      -0.2180
     35  N        -30.2380   -1.3820   23.3000 N.3    97  TYR97      -0.1241
     36  CA       -29.6700   -0.5670   24.3650 C.3    97  TYR97       0.1605
     37  C        -29.7060    0.9280   24.0560 C.2    97  TYR97       0.2264
     38  O        -29.5390    1.7430   24.9690 O.2    97  TYR97      -0.2867
     39  CB       -28.2330   -1.0250   24.7210 C.3    97  TYR97       0.0534
     40  CG       -27.1430   -0.7760   23.6830 C.ar   97  TYR97      -0.0201
     41  CD1      -26.8500    0.5120   23.2200 C.ar   97  TYR97      -0.0009
     42  CD2      -26.3520   -1.8260   23.2210 C.ar   97  TYR97      -0.0009
     43  CE1      -25.8230    0.7360   22.2880 C.ar   97  TYR97       0.0417
     44  CE2      -25.3270   -1.6140   22.2960 C.ar   97  TYR97       0.0417
     45  CZ       -25.0680   -0.3300   21.8320 C.ar   97  TYR97       0.1957
     46  OH       -24.0510   -0.1270   20.9220 O.3    97  TYR97      -0.2866
     47  N        -29.8270    4.8510   25.9870 N.3   101  THR101     -0.1218
     48  CA       -28.7330    5.7110   25.5250 C.3   101  THR101      0.1862
     49  C        -29.2040    6.9370   24.7380 C.2   101  THR101      0.2287
     50  O        -28.6710    8.0350   24.9250 O.2   101  THR101     -0.2866
     51  CB       -27.7540    4.9230   24.6370 C.3   101  THR101      0.1770
     52  OG1      -27.4630    3.6640   25.2530 O.3   101  THR101     -0.2211
     53  CG2      -26.4660    5.6920   24.4400 C.3   101  THR101      0.0375
     54  N        -14.5890    2.4730   16.4760 N.3   136  GLU136     -0.1245
     55  CA       -15.8970    1.8600   16.2390 C.3   136  GLU136      0.1567
     56  C        -16.8400    2.9230   15.6610 C.2   136  GLU136      0.2260
     57  O        -17.0300    3.9750   16.2730 O.2   136  GLU136     -0.2867
     58  CB       -16.4480    1.3010   17.5550 C.3   136  GLU136      0.0388
     59  CG       -17.8980    0.8380   17.5160 C.3   136  GLU136      0.1160
     60  CD       -18.1180   -0.3680   16.6380 C.2   136  GLU136      0.3649
     61  OE1      -17.6140   -1.4660   16.9650 O.co2 136  GLU136     -0.2457
     62  OE2      -18.8370   -0.2330   15.6290 O.co2 136  GLU136     -0.2457
     63  N        -20.1460    2.1690   14.7050 N.3   138  ALA138     -0.1231
     64  CA       -21.5340    1.7690   14.9620 C.3   138  ALA138      0.1694
     65  C        -21.8530    1.6790   16.4580 C.2   138  ALA138      0.2592
     66  O        -22.6340    0.8280   16.8690 O.2   138  ALA138     -0.2718
     67  CB       -21.8060    0.4200   14.2970 C.3   138  ALA138      0.0304
     68  N        -21.2460    2.5450   17.2650 N.am  139  CYS139     -0.1956
     69  CA       -21.4750    2.5590   18.7070 C.3   139  CYS139      0.1843
     70  C        -22.9340    2.8890   19.0360 C.2   139  CYS139      0.2626
     71  O        -23.5260    2.2880   19.9210 O.2   139  CYS139     -0.2714
     72  CB       -20.5750    3.6080   19.3720 C.3   139  CYS139      0.0997
     73  SG       -20.2590    3.3250   21.1190 S.3   139  CYS139     -0.0797
     74  N        -23.4990    3.8490   18.3030 N.am  140  THR140     -0.1950
     75  CA       -24.7800    4.4340   18.6630 C.3   140  THR140      0.1897
     76  C        -25.7160    4.5640   17.4660 C.2   140  THR140      0.2313
     77  O        -26.6030    5.4100   17.4680 O.2   140  THR140     -0.2863
     78  CB       -24.5510    5.8210   19.2610 C.3   140  THR140      0.1794
     79  OG1      -23.9110    6.6500   18.2870 O.3   140  THR140     -0.2208
     80  CG2      -23.6570    5.7390   20.4970 C.3   140  THR140      0.0378
     81  N        -20.5180   -2.7690   13.0530 N.3   171  VAL171     -0.1245
     82  CA       -21.3720   -3.9420   13.0550 C.3   171  VAL171      0.1561
     83  C        -22.7690   -3.5340   12.6260 C.2   171  VAL171      0.2260
     84  O        -23.2110   -2.4280   12.9200 O.2   171  VAL171     -0.2867
     85  CB       -21.3910   -4.6240   14.4430 C.3   171  VAL171      0.0252
     86  CG1      -21.8320   -3.6510   15.5310 C.3   171  VAL171      0.0019
     87  CG2      -22.2540   -5.8900   14.4030 C.3   171  VAL171      0.0019
     88  N        -18.4670   -6.2530   10.5120 N.3   192  ARG192     -0.1245
     89  CA       -19.1200   -7.2770   11.3390 C.3   192  ARG192      0.1563
     90  C        -20.6250   -7.3000   11.1340 C.2   192  ARG192      0.2260
     91  O        -21.2210   -6.2960   10.7810 O.2   192  ARG192     -0.2867
     92  CB       -18.8030   -7.0440   12.8200 C.3   192  ARG192      0.0307
     93  CG       -17.3340   -7.2560   13.1910 C.3   192  ARG192      0.0489
     94  CD       -16.7800   -6.0550   13.9420 C.3   192  ARG192      0.2205
     95  NE       -17.3050   -5.9350   15.3000 N.pl3 192  ARG192     -0.0865
     96  CZ       -17.6560   -4.7960   15.8930 C.cat 192  ARG192      0.5346
     97  NH1      -17.5930   -3.6320   15.2550 N.pl3 192  ARG192      0.1354
     98  NH2      -18.0930   -4.8120   17.1460 N.pl3 192  ARG192      0.1354
     99  N        -20.9010  -10.5730   15.5700 N.3   231  VAL231     -0.1245
    100  CA       -21.2120  -10.2360   16.9460 C.3   231  VAL231      0.1561
    101  C        -22.4480  -11.0380   17.3080 C.2   231  VAL231      0.2260
    102  O        -23.5110  -10.8310   16.7370 O.2   231  VAL231     -0.2867
    103  CB       -21.4830   -8.7360   17.0950 C.3   231  VAL231      0.0252
    104  CG1      -21.9300   -8.4130   18.5130 C.3   231  VAL231      0.0019
    105  CG2      -20.2130   -7.9400   16.7110 C.3   231  VAL231      0.0019
    106  N        -21.8410  -10.9850   23.4420 N.3   269  ILE269     -0.1245
    107  CA       -22.4190  -10.0540   24.3950 C.3   269  ILE269      0.1561
    108  C        -23.7220  -10.6050   24.9420 C.2   269  ILE269      0.2260
    109  O        -24.6860  -10.7660   24.2000 O.2   269  ILE269     -0.2867
    110  CB       -22.7210   -8.6760   23.7520 C.3   269  ILE269      0.0252
    111  CG1      -21.5020   -8.1300   22.9950 C.3   269  ILE269      0.0019
    112  CG2      -23.2250   -7.6890   24.8190 C.3   269  ILE269      0.0019
    113  CD1      -21.8200   -6.8730   22.1490 C.3   269  ILE269      0.0001
    114  N        -28.2240   -7.4290   28.3290 N.3   272  ARG272     -0.1245
    115  CA       -28.1740   -6.5490   29.4900 C.3   272  ARG272      0.1563
    116  C        -29.2700   -5.5100   29.3940 C.2   272  ARG272      0.2260
    117  O        -29.7000   -5.1520   28.2910 O.2   272  ARG272     -0.2867
    118  CB       -26.8300   -5.8430   29.5750 C.3   272  ARG272      0.0307
    119  CG       -26.5860   -4.8390   28.4210 C.3   272  ARG272      0.0489
    120  CD       -25.1300   -4.7370   28.0630 C.3   272  ARG272      0.2205
    121  NE       -24.5910   -6.0660   27.9340 N.pl3 272  ARG272     -0.0865
    122  CZ       -23.5070   -6.5480   28.5390 C.cat 272  ARG272      0.5346
    123  NH1      -22.7210   -5.8080   29.3100 N.pl3 272  ARG272      0.1354
    124  NH2      -23.1990   -7.8070   28.3330 N.pl3 272  ARG272      0.1354
    125  N        -13.8470  -11.3800   22.8270 N.3   338  TYR338     -0.1241
    126  CA       -14.2490  -11.2040   24.2140 C.3   338  TYR338      0.1605
    127  C        -15.6420  -11.7790   24.4120 C.2   338  TYR338      0.2264
    128  O        -16.3690  -11.9960   23.4440 O.2   338  TYR338     -0.2867
    129  CB       -14.2290   -9.7190   24.6230 C.3   338  TYR338      0.0534
    130  CG       -15.0690   -8.8290   23.7380 C.ar  338  TYR338     -0.0201
    131  CD1      -14.4920   -8.0970   22.7010 C.ar  338  TYR338     -0.0009
    132  CD2      -16.4450   -8.7210   23.9300 C.ar  338  TYR338     -0.0009
    133  CE1      -15.2580   -7.2840   21.8830 C.ar  338  TYR338      0.0417
    134  CE2      -17.2250   -7.9130   23.1100 C.ar  338  TYR338      0.0417
    135  CZ       -16.6260   -7.1990   22.0910 C.ar  338  TYR338      0.1957
    136  OH       -17.3920   -6.4000   21.2780 O.3   338  TYR338     -0.2866
    137  N        -18.7700  -10.5550   27.0890 N.3   340  THR340     -0.1218
    138  CA       -19.1950   -9.6340   28.1320 C.3   340  THR340      0.1862
    139  C        -20.7050   -9.7160   28.3780 C.2   340  THR340      0.2287
    140  O        -21.2070   -9.2690   29.4220 O.2   340  THR340     -0.2866
    141  CB       -18.7830   -8.1990   27.7790 C.3   340  THR340      0.1770
    142  OG1      -18.9860   -7.3500   28.9120 O.3   340  THR340     -0.2211
    143  CG2      -19.5700   -7.6890   26.5860 C.3   340  THR340      0.0375
@<TRIPOS>BOND
     1    88    89    1
     2    91    90    2
     3    90    89    1
     4    89    92    1
     5    83    84    2
     6    83    82    1
     7    92    93    1
     8    81    82    1
     9    82    85    1
    10    93    94    1
    11    94    95    1
    12    67    64    1
    13    87    85    1
    14    85    86    1
    15    63    64    1
    16    64    65    1
    17    97    96    1
    18    95    96    2
    19    99   100    1
    20    62    60   ar
    21    56    55    1
    22    56    57    2
    23    96    98    1
    24    55    54    1
    25    55    58    1
    26    65    66    2
    27    65    68   am
    28    60    61   ar
    29    60    59    1
    30   105   103    1
    31   102   101    2
    32   100   103    1
    33   100   101    1
    34   103   104    1
    35    68    69    1
    36    76    77    2
    37    76    75    1
    38    59    58    1
    39    79    78    1
    40    74    75    1
    41    74    70   am
    42    34    33    1
    43    75    78    1
    44    69    70    1
    45    69    72    1
    46    70    71    2
    47    78    80    1
    48    32    31    2
    49    72    73    1
    50    33    30    1
    51    31    30    1
    52    30    29    1
    53    46    45    1
    54    12    11    1
    55   136   135    1
    56    11     8    1
    57    45    43   ar
    58    45    44   ar
    59   133   135   ar
    60   133   131   ar
    61   135   134   ar
    62    29    24   am
    63   113   111    1
    64    43    41   ar
    65    44    42   ar
    66    25    24    2
    67    10     9    2
    68   131   130   ar
    69   125   126    1
    70    24    23    1
    71     8     9    1
    72     8     7    1
    73   111   110    1
    74   134   132   ar
    75    41    40   ar
    76    42    40   ar
    77     9    13   am
    78    35    36    1
    79   106   107    1
    80   128   127    2
    81     7     3   am
    82    40    39    1
    83   130   132   ar
    84   130   129    1
    85   110   107    1
    86   110   112    1
    87     3     4    2
    88     3     2    1
    89    37    36    1
    90    37    38    2
    91   109   108    2
    92   126   127    1
    93   126   129    1
    94    36    39    1
    95   107   108    1
    96    23    22    1
    97    23    26    1
    98    21    20    1
    99    53    51    1
   100    13    14    1
   101     1     2    1
   102     2     5    1
   103    51    52    1
   104    51    48    1
   105    49    50    2
   106    49    48    1
   107    27    26    1
   108    27    28    1
   109    14    15    1
   110    14    17    1
   111    22    28    1
   112    22    15   am
   113    19    20    1
   114    19    18    1
   115    15    16    2
   116    48    47    1
   117    18    17    1
   118     5     6    1
   119   143   141    1
   120   137   138    1
   121   141   138    1
   122   141   142    1
   123   121   120    1
   124   121   122    2
   125   120   119    1
   126   138   139    1
   127   117   116    2
   128   114   115    1
   129   124   122    1
   130   139   140    2
   131   119   118    1
   132   122   123    1
   133   116   115    1
   134   115   118    1
