@<TRIPOS>MOLECULE
tmp/4fhjA00.pdb
 176 164 0 0 0
SMALL
GASTEIGER

@<TRIPOS>ATOM
      1  N         18.3650   17.3260   12.5090 N.3   550  MET550     -0.1245
      2  CA        18.6330   18.2800   13.5830 C.3   550  MET550      0.1570
      3  C         19.4600   19.4670   13.1070 C.2   550  MET550      0.2261
      4  O         20.3770   19.3130   12.2970 O.2   550  MET550     -0.2867
      5  CB        19.3290   17.5840   14.7500 C.3   550  MET550      0.0387
      6  CG        18.3870   16.8150   15.6630 C.3   550  MET550      0.0595
      7  SD        19.2560   15.6000   16.6810 S.3   550  MET550     -0.1393
      8  CE        19.2680   14.2020   15.5720 C.3   550  MET550      0.0692
      9  N         21.9810   20.9750   13.9690 N.3   552  SER552     -0.1217
     10  CA        23.2830   20.9460   14.6200 C.3   552  SER552      0.1889
     11  C         24.3940   21.0340   13.5770 C.2   552  SER552      0.2288
     12  O         24.1350   20.9510   12.3710 O.2   552  SER552     -0.2866
     13  CB        23.4370   19.6660   15.4430 C.3   552  SER552      0.2089
     14  OG        22.3040   19.4480   16.2710 O.3   552  SER552     -0.2183
     15  N         22.7320   15.6100   12.3640 N.3   556  PRO556     -0.2116
     16  CA        22.3660   14.2230   12.6510 C.3   556  PRO556      0.1372
     17  C         20.8960   13.9330   12.3690 C.2   556  PRO556      0.2244
     18  O         20.0760   14.8560   12.3390 O.2   556  PRO556     -0.2868
     19  CB        22.6620   14.0830   14.1440 C.3   556  PRO556      0.0268
     20  CG        22.5310   15.4570   14.6980 C.3   556  PRO556      0.0207
     21  CD        22.7970   16.4320   13.5890 C.3   556  PRO556      0.0892
     22  N         17.2580   12.4870   13.2990 N.3   558  TRP558     -0.1241
     23  CA        16.3680   12.1830   14.4100 C.3   558  TRP558      0.1605
     24  C         15.3290   11.2180   13.9200 C.2   558  TRP558      0.2264
     25  O         14.4750   11.5780   13.1050 O.2   558  TRP558     -0.2867
     26  CB        15.7290   13.4660   14.9190 C.3   558  TRP558      0.0550
     27  CG        14.7600   13.2970   16.0640 C.ar  558  TRP558      0.0003
     28  CD1       13.4650   12.7860   16.0130 C.ar  558  TRP558      0.0946
     29  CD2       14.9600   13.6850   17.4660 C.ar  558  TRP558      0.0152
     30  NE1       12.8790   12.8110   17.2510 N.ar  558  TRP558     -0.2442
     31  CE2       13.7140   13.3410   18.1680 C.ar  558  TRP558      0.0810
     32  CE3       16.0050   14.2520   18.1860 C.ar  558  TRP558      0.0012
     33  CZ2       13.5470   13.5650   19.5300 C.ar  558  TRP558      0.0191
     34  CZ3       15.8260   14.4740   19.5610 C.ar  558  TRP558      0.0001
     35  CH2       14.6250   14.1400   20.2130 C.ar  558  TRP558      0.0015
     36  N         19.0240    8.4090   17.4150 N.3   577  ILE577     -0.1245
     37  CA        19.7840    9.3760   16.6320 C.3   577  ILE577      0.1561
     38  C         20.8870    8.6490   15.8630 C.2   577  ILE577      0.2260
     39  O         21.5930    7.8100   16.4230 O.2   577  ILE577     -0.2867
     40  CB        20.3880   10.4880   17.5210 C.3   577  ILE577      0.0252
     41  CG1       19.2910   11.4430   18.0000 C.3   577  ILE577      0.0019
     42  CG2       21.4660   11.2720   16.7760 C.3   577  ILE577      0.0019
     43  CD1       19.7130   12.3390   19.1490 C.3   577  ILE577      0.0001
     44  N         24.2820    9.6260   13.7490 N.3   579  LYS579     -0.1245
     45  CA        25.1780   10.7650   13.6330 C.3   579  LYS579      0.1561
     46  C         26.4930   10.3660   12.9840 C.2   579  LYS579      0.2260
     47  O         26.9850    9.2520   13.1960 O.2   579  LYS579     -0.2867
     48  CB        25.4410   11.3610   15.0220 C.3   579  LYS579      0.0271
     49  CG        25.9930   12.7790   15.0270 C.3   579  LYS579      0.0035
     50  CD        26.1650   13.2680   16.4540 C.3   579  LYS579      0.0206
     51  CE        26.1880   14.7860   16.5360 C.3   579  LYS579      0.1093
     52  NZ        25.7600   15.2640   17.8850 N.3   579  LYS579     -0.1314
     53  N         30.9280   12.6760   15.3790 N.3   582  ASP582     -0.1239
     54  CA        31.3710   12.3690   16.7370 C.3   582  ASP582      0.1674
     55  C         32.0310   10.9940   16.7730 C.2   582  ASP582      0.2266
     56  O         31.5790   10.0620   16.1060 O.2   582  ASP582     -0.2867
     57  CB        30.1930   12.3940   17.7200 C.3   582  ASP582      0.1410
     58  CG        29.6330   13.7890   17.9400 C.2   582  ASP582      0.3668
     59  OD1       30.2720   14.7860   17.5280 O.co2 582  ASP582     -0.2456
     60  OD2       28.5440   13.8870   18.5460 O.co2 582  ASP582     -0.2456
     61  N         32.0710    8.0600   18.6230 N.3   584  LEU584     -0.1245
     62  CA        31.1680    7.4780   19.6110 C.3   584  LEU584      0.1561
     63  C         31.7770    6.3140   20.3980 C.2   584  LEU584      0.2260
     64  O         31.1820    5.8490   21.3740 O.2   584  LEU584     -0.2867
     65  CB        29.8220    7.1030   18.9760 C.3   584  LEU584      0.0270
     66  CG        29.0040    8.2560   18.3770 C.3   584  LEU584      0.0019
     67  CD1       27.7580    7.7370   17.6780 C.3   584  LEU584      0.0001
     68  CD2       28.6270    9.3060   19.4150 C.3   584  LEU584      0.0001
     69  N         32.3810    7.9250   23.5920 N.3   587  ASP587     -0.1239
     70  CA        31.1200    7.9120   24.3330 C.3   587  ASP587      0.1674
     71  C         30.8800    6.5570   24.9800 C.2   587  ASP587      0.2266
     72  O         30.5730    6.4880   26.1660 O.2   587  ASP587     -0.2867
     73  CB        29.9360    8.2650   23.4320 C.3   587  ASP587      0.1410
     74  CG        29.8790    9.7340   23.0930 C.2   587  ASP587      0.3668
     75  OD1       30.7070   10.1850   22.2740 O.co2 587  ASP587     -0.2456
     76  OD2       28.9950   10.4320   23.6320 O.co2 587  ASP587     -0.2456
     77  N         22.8530    6.9190   28.6330 N.3   613  TYR613     -0.1241
     78  CA        22.0870    6.5740   27.4380 C.3   613  TYR613      0.1605
     79  C         22.7540    5.4900   26.5810 C.2   613  TYR613      0.2264
     80  O         23.9840    5.3880   26.5360 O.2   613  TYR613     -0.2867
     81  CB        21.8350    7.8360   26.5990 C.3   613  TYR613      0.0534
     82  CG        23.0950    8.5940   26.2250 C.ar  613  TYR613     -0.0201
     83  CD1       23.8140    8.2730   25.0690 C.ar  613  TYR613     -0.0009
     84  CD2       23.5670    9.6450   27.0230 C.ar  613  TYR613     -0.0009
     85  CE1       24.9700    8.9580   24.7300 C.ar  613  TYR613      0.0417
     86  CE2       24.7180   10.3440   26.6840 C.ar  613  TYR613      0.0417
     87  CZ        25.4170    9.9920   25.5410 C.ar  613  TYR613      0.1957
     88  OH        26.5590   10.6830   25.1980 O.3   613  TYR613     -0.2866
     89  N         22.6860    6.7780   18.8080 N.3   625  ILE625     -0.1231
     90  CA        22.5140    7.3320   20.1450 C.3   625  ILE625      0.1692
     91  C         21.0490    7.1540   20.5500 C.2   625  ILE625      0.2592
     92  O         20.1420    7.5650   19.8200 O.2   625  ILE625     -0.2718
     93  CB        22.8890    8.8330   20.1560 C.3   625  ILE625      0.0266
     94  CG1       24.3710    9.0220   19.8090 C.3   625  ILE625      0.0019
     95  CG2       22.5430    9.4850   21.4920 C.3   625  ILE625      0.0020
     96  CD1       24.6800   10.3120   19.0790 C.3   625  ILE625      0.0001
     97  N         20.8150    6.5310   21.7010 N.am  626  GLU626     -0.1966
     98  CA        19.4640    6.4370   22.2530 C.3   626  GLU626      0.1733
     99  C         18.9500    7.8430   22.5350 C.2   626  GLU626      0.2616
    100  O         19.6550    8.6470   23.1430 O.2   626  GLU626     -0.2715
    101  CB        19.4610    5.6190   23.5520 C.3   626  GLU626      0.0429
    102  CG        18.1040    5.5600   24.2450 C.3   626  GLU626      0.1163
    103  CD        18.1410    4.9370   25.6370 C.2   626  GLU626      0.3649
    104  OE1       17.0560    4.8210   26.2470 O.co2 626  GLU626     -0.2457
    105  OE2       19.2290    4.5670   26.1340 O.co2 626  GLU626     -0.2457
    106  N         17.7360    8.1440   22.0840 N.am  627  ILE627     -0.1963
    107  CA        17.0830    9.3910   22.4660 C.3   627  ILE627      0.1727
    108  C         16.4700    9.2530   23.8590 C.2   627  ILE627      0.2616
    109  O         15.6250    8.3860   24.0860 O.2   627  ILE627     -0.2715
    110  CB        15.9920    9.8190   21.4590 C.3   627  ILE627      0.0290
    111  CG1       16.6200   10.1350   20.0970 C.3   627  ILE627      0.0022
    112  CG2       15.2120   11.0180   21.9930 C.3   627  ILE627      0.0023
    113  CD1       15.6280   10.4120   18.9870 C.3   627  ILE627      0.0001
    114  N         16.9140   10.1000   24.7850 N.am  628  VAL628     -0.1977
    115  CA        16.2640   10.2380   26.0850 C.3   628  VAL628      0.1596
    116  C         15.0370   11.1290   25.8980 C.2   628  VAL628      0.2287
    117  O         15.1490   12.2590   25.4200 O.2   628  VAL628     -0.2864
    118  CB        17.2170   10.8350   27.1440 C.3   628  VAL628      0.0276
    119  CG1       16.4780   11.1540   28.4360 C.3   628  VAL628      0.0022
    120  CG2       18.3730    9.8840   27.4190 C.3   628  VAL628      0.0022
    121  N         13.4700   15.5010   26.8630 N.3   631  ALA631     -0.1245
    122  CA        14.7350   16.1100   27.2640 C.3   631  ALA631      0.1562
    123  C         15.1230   17.2650   26.3610 C.2   631  ALA631      0.2260
    124  O         15.0640   17.1630   25.1380 O.2   631  ALA631     -0.2867
    125  CB        15.8410   15.0670   27.2890 C.3   631  ALA631      0.0290
    126  N         18.0890   20.7680   26.0810 N.3   633  THR633     -0.1218
    127  CA        19.4170   21.2490   26.4260 C.3   633  THR633      0.1862
    128  C         19.3290   22.4810   27.3310 C.2   633  THR633      0.2287
    129  O         18.4560   23.3420   27.1390 O.2   633  THR633     -0.2866
    130  CB        20.2030   21.5590   25.1310 C.3   633  THR633      0.1770
    131  OG1       20.7430   20.3390   24.5960 O.3   633  THR633     -0.2211
    132  CG2       21.3220   22.5090   25.3850 C.3   633  THR633      0.0375
    133  N         19.3890   25.6650   25.3260 N.3   636  LYS636     -0.1245
    134  CA        18.1090   25.9840   24.6680 C.3   636  LYS636      0.1561
    135  C         17.1040   26.6110   25.6330 C.2   636  LYS636      0.2260
    136  O         16.3610   27.5210   25.2610 O.2   636  LYS636     -0.2867
    137  CB        17.4960   24.7460   23.9980 C.3   636  LYS636      0.0271
    138  CG        18.3520   24.2940   22.7870 C.3   636  LYS636      0.0035
    139  CD        17.6000   23.1290   22.1430 C.3   636  LYS636      0.0206
    140  CE        18.0820   22.8800   20.7210 C.3   636  LYS636      0.1093
    141  NZ        19.5440   22.6370   20.7270 N.3   636  LYS636     -0.1314
    142  N         21.9260   18.1800   29.2500 N.3   697  MET697     -0.1245
    143  CA        20.4880   18.0950   29.0470 C.3   697  MET697      0.1570
    144  C         19.7540   17.8380   30.3640 C.2   697  MET697      0.2261
    145  O         20.3610   17.4280   31.3590 O.2   697  MET697     -0.2867
    146  CB        20.1690   16.9880   28.0340 C.3   697  MET697      0.0387
    147  CG        20.8720   17.1410   26.6930 C.3   697  MET697      0.0595
    148  SD        20.1630   16.1420   25.3670 S.3   697  MET697     -0.1393
    149  CE        18.5690   16.9200   25.1240 C.3   697  MET697      0.0692
    150  N         21.5900   15.3130   32.7080 N.3   705  PHE705     -0.1241
    151  CA        22.5680   14.3710   32.1600 C.3   705  PHE705      0.1605
    152  C         23.4620   15.0060   31.1030 C.2   705  PHE705      0.2264
    153  O         23.0190   15.8630   30.3350 O.2   705  PHE705     -0.2867
    154  CB        21.8990   13.0900   31.6230 C.3   705  PHE705      0.0534
    155  CG        20.9370   13.3180   30.4840 C.ar  705  PHE705     -0.0203
    156  CD1       21.3060   13.0130   29.1760 C.ar  705  PHE705     -0.0042
    157  CD2       19.6530   13.8190   30.7170 C.ar  705  PHE705     -0.0042
    158  CE1       20.4200   13.2080   28.1240 C.ar  705  PHE705     -0.0003
    159  CE2       18.7700   14.0270   29.6690 C.ar  705  PHE705     -0.0003
    160  CZ        19.1520   13.7160   28.3710 C.ar  705  PHE705     -0.0000
    161  N         25.9980   14.7750   27.7180 N.3   707  ILE707     -0.1231
    162  CA        25.9910   14.0700   26.4260 C.3   707  ILE707      0.1692
    163  C         27.2670   14.3720   25.6350 C.2   707  ILE707      0.2592
    164  O         28.0930   15.1530   26.0830 O.2   707  ILE707     -0.2718
    165  CB        24.7500   14.4150   25.5570 C.3   707  ILE707      0.0266
    166  CG1       24.7420   15.8970   25.1670 C.3   707  ILE707      0.0019
    167  CG2       23.4600   14.0260   26.2650 C.3   707  ILE707      0.0020
    168  CD1       23.8210   16.2380   24.0150 C.3   707  ILE707      0.0001
    169  N         27.4210   13.7350   24.4710 N.am  708  ASP708     -0.1974
    170  CA        28.4990   14.0330   23.5150 C.3   708  ASP708      0.1709
    171  C         29.9010   14.0740   24.1500 C.2   708  ASP708      0.2293
    172  O         30.5210   15.1340   24.2590 O.2   708  ASP708     -0.2864
    173  CB        28.1840   15.3340   22.7590 C.3   708  ASP708      0.1436
    174  CG        28.9100   15.4370   21.4260 C.2   708  ASP708      0.3671
    175  OD1       29.6300   14.4880   21.0450 O.co2 708  ASP708     -0.2456
    176  OD2       28.7560   16.4770   20.7510 O.co2 708  ASP708     -0.2456
@<TRIPOS>BOND
     1     4     3    2
     2    18    17    2
     3    15    16    1
     4    15    21    1
     5    17    16    1
     6    12    11    2
     7     1     2    1
     8    16    19    1
     9    46    47    2
    10    46    45    1
    11    25    24    2
    12     3     2    1
    13    22    23    1
    14    11    10    1
    15     2     5    1
    16    21    20    1
    17    45    44    1
    18    45    48    1
    19    24    23    1
    20     9    10    1
    21    19    20    1
    22    23    26    1
    23    10    13    1
    24     5     6    1
    25    26    27    1
    26    48    49    1
    27    49    50    1
    28    53    54    1
    29    13    14    1
    30     8     7    1
    31     6     7    1
    32    38    39    2
    33    38    37    1
    34    28    27   ar
    35    28    30   ar
    36    27    29   ar
    37    56    55    2
    38    50    51    1
    39    51    52    1
    40    37    36    1
    41    37    40    1
    42    54    55    1
    43    54    57    1
    44    42    40    1
    45    30    31   ar
    46    29    31   ar
    47    29    32   ar
    48    40    41    1
    49    59    58   ar
    50    67    66    1
    51    57    58    1
    52    58    60   ar
    53    41    43    1
    54    31    33   ar
    55    32    34   ar
    56    66    65    1
    57    66    68    1
    58    61    62    1
    59    89    90    1
    60    65    62    1
    61   113   111    1
    62    96    94    1
    63    33    35   ar
    64    34    35   ar
    65    62    63    1
    66    94    93    1
    67    92    91    2
    68   111   110    1
    69    90    93    1
    70    90    91    1
    71    93    95    1
    72    63    64    2
    73    91    97   am
    74   140   141    1
    75   140   139    1
    76   176   174   ar
    77   175   174   ar
    78   174   173    1
    79   110   112    1
    80   110   107    1
    81    97    98    1
    82   106   107    1
    83   106    99   am
    84   139   138    1
    85    98    99    1
    86    98   101    1
    87    75    74   ar
    88   107   108    1
    89    99   100    2
    90   173   170    1
    91   138   137    1
    92    74    73    1
    93    74    76   ar
    94    73    70    1
    95   170   171    1
    96   170   169    1
    97   101   102    1
    98    69    70    1
    99   108   109    2
   100   108   114   am
   101   137   134    1
   102   168   166    1
   103   171   172    2
   104   102   103    1
   105    70    71    1
   106   169   163   am
   107   131   130    1
   108   134   133    1
   109   134   135    1
   110    85    83   ar
   111    85    87   ar
   112   114   115    1
   113    71    72    2
   114    83    82   ar
   115   149   148    1
   116   130   132    1
   117   130   127    1
   118   124   123    2
   119   166   165    1
   120    88    87    1
   121   136   135    2
   122   148   147    1
   123   117   116    2
   124    87    86   ar
   125   165   167    1
   126   165   162    1
   127   163   164    2
   128   163   162    1
   129   103   105   ar
   130   103   104   ar
   131   116   115    1
   132   126   127    1
   133   115   118    1
   134    82    81    1
   135    82    84   ar
   136   123   122    1
   137   162   161    1
   138   127   128    1
   139    80    79    2
   140    79    78    1
   141    81    78    1
   142    86    84   ar
   143   147   146    1
   144   121   122    1
   145   129   128    2
   146   118   120    1
   147   118   119    1
   148   122   125    1
   149    78    77    1
   150   146   143    1
   151   158   160   ar
   152   158   156   ar
   153   160   159   ar
   154   143   142    1
   155   143   144    1
   156   156   155   ar
   157   159   157   ar
   158   153   152    2
   159   144   145    2
   160   155   157   ar
   161   155   154    1
   162   152   151    1
   163   154   151    1
   164   151   150    1
