@<TRIPOS>MOLECULE
tmp/4fhkA00.pdb
 184 175 0 0 0
SMALL
GASTEIGER

@<TRIPOS>ATOM
      1  N         18.6380   17.2640   12.4130 N.3   550  MET550     -0.1245
      2  CA        18.7690   18.2850   13.4530 C.3   550  MET550      0.1570
      3  C         19.7010   19.4220   13.0470 C.2   550  MET550      0.2261
      4  O         20.7210   19.1970   12.3900 O.2   550  MET550     -0.2867
      5  CB        19.2480   17.6590   14.7610 C.3   550  MET550      0.0387
      6  CG        18.2100   16.7940   15.4560 C.3   550  MET550      0.0595
      7  SD        18.9630   15.6670   16.6470 S.3   550  MET550     -0.1393
      8  CE        19.6000   14.3860   15.5660 C.3   550  MET550      0.0692
      9  N         22.4220   21.0960   13.5670 N.3   552  SER552     -0.1217
     10  CA        23.6810   20.9340   14.2860 C.3   552  SER552      0.1889
     11  C         24.8710   21.0430   13.3370 C.2   552  SER552      0.2288
     12  O         24.6980   21.1930   12.1240 O.2   552  SER552     -0.2866
     13  CB        23.7050   19.5860   15.0110 C.3   552  SER552      0.2089
     14  OG        22.6160   19.4680   15.9100 O.3   552  SER552     -0.2183
     15  N         23.0860   15.3840   12.3140 N.3   556  PRO556     -0.2116
     16  CA        22.7810   13.9750   12.5380 C.3   556  PRO556      0.1372
     17  C         21.3470   13.6170   12.1530 C.2   556  PRO556      0.2244
     18  O         20.5480   14.5040   11.8330 O.2   556  PRO556     -0.2868
     19  CB        22.9860   13.8020   14.0500 C.3   556  PRO556      0.0268
     20  CG        23.1860   15.1740   14.6190 C.3   556  PRO556      0.0207
     21  CD        22.9070   16.1740   13.5420 C.3   556  PRO556      0.0892
     22  N         17.6970   12.1670   13.2170 N.3   558  TRP558     -0.1241
     23  CA        16.7570   11.9030   14.2950 C.3   558  TRP558      0.1605
     24  C         15.7550   10.9080   13.7890 C.2   558  TRP558      0.2264
     25  O         14.8420   11.2590   13.0360 O.2   558  TRP558     -0.2867
     26  CB        16.0830   13.2000   14.7200 C.3   558  TRP558      0.0550
     27  CG        15.0720   13.0740   15.8360 C.ar  558  TRP558      0.0003
     28  CD1       13.7770   12.5680   15.7600 C.ar  558  TRP558      0.0946
     29  CD2       15.2290   13.5020   17.2310 C.ar  558  TRP558      0.0152
     30  NE1       13.1510   12.6340   16.9770 N.ar  558  TRP558     -0.2442
     31  CE2       13.9610   13.1850   17.9020 C.ar  558  TRP558      0.0810
     32  CE3       16.2550   14.0870   17.9670 C.ar  558  TRP558      0.0012
     33  CZ2       13.7550   13.4510   19.2470 C.ar  558  TRP558      0.0191
     34  CZ3       16.0340   14.3510   19.3240 C.ar  558  TRP558      0.0001
     35  CH2       14.8130   14.0410   19.9460 C.ar  558  TRP558      0.0015
     36  N         19.5520    8.3640   17.3890 N.3   577  ILE577     -0.1245
     37  CA        20.2990    9.3370   16.5980 C.3   577  ILE577      0.1561
     38  C         21.4570    8.6510   15.8720 C.2   577  ILE577      0.2260
     39  O         22.2700    7.9720   16.4970 O.2   577  ILE577     -0.2867
     40  CB        20.8250   10.5030   17.4660 C.3   577  ILE577      0.0252
     41  CG1       19.6680   11.4160   17.8850 C.3   577  ILE577      0.0019
     42  CG2       21.8890   11.3060   16.7230 C.3   577  ILE577      0.0019
     43  CD1       20.0080   12.3910   18.9950 C.3   577  ILE577      0.0001
     44  N         24.8270    9.4420   13.7370 N.3   579  LYS579     -0.1245
     45  CA        25.7330   10.5810   13.6660 C.3   579  LYS579      0.1561
     46  C         27.0880   10.2140   13.0730 C.2   579  LYS579      0.2260
     47  O         27.6600    9.1690   13.4000 O.2   579  LYS579     -0.2867
     48  CB        25.9200   11.1690   15.0660 C.3   579  LYS579      0.0271
     49  CG        26.4240   12.6010   15.1060 C.3   579  LYS579      0.0035
     50  CD        26.3960   13.1240   16.5330 C.3   579  LYS579      0.0206
     51  CE        26.5330   14.6360   16.5850 C.3   579  LYS579      0.1093
     52  NZ        26.3770   15.1430   17.9770 N.3   579  LYS579     -0.1314
     53  N         31.5140   12.5120   15.2610 N.3   582  ASP582     -0.1239
     54  CA        31.9680   12.2820   16.6320 C.3   582  ASP582      0.1674
     55  C         32.6380   10.9150   16.7290 C.2   582  ASP582      0.2266
     56  O         32.1950    9.9570   16.0910 O.2   582  ASP582     -0.2867
     57  CB        30.7940   12.3560   17.6170 C.3   582  ASP582      0.1410
     58  CG        30.1750   13.7480   17.7050 C.2   582  ASP582      0.3668
     59  OD1       30.6920   14.6920   17.0660 O.co2 582  ASP582     -0.2456
     60  OD2       29.1640   13.8970   18.4250 O.co2 582  ASP582     -0.2456
     61  N         32.6740    8.0500   18.5840 N.3   584  LEU584     -0.1245
     62  CA        31.7990    7.4170   19.5720 C.3   584  LEU584      0.1561
     63  C         32.4340    6.2580   20.3420 C.2   584  LEU584      0.2260
     64  O         31.8490    5.7630   21.3060 O.2   584  LEU584     -0.2867
     65  CB        30.4790    6.9900   18.9240 C.3   584  LEU584      0.0270
     66  CG        29.5560    8.1160   18.4440 C.3   584  LEU584      0.0019
     67  CD1       28.4290    7.5430   17.6060 C.3   584  LEU584      0.0001
     68  CD2       28.9930    8.9310   19.6000 C.3   584  LEU584      0.0001
     69  N         33.0760    7.9520   23.5110 N.3   587  ASP587     -0.1239
     70  CA        31.7980    7.9990   24.2260 C.3   587  ASP587      0.1674
     71  C         31.4690    6.6690   24.8950 C.2   587  ASP587      0.2266
     72  O         31.0570    6.6490   26.0540 O.2   587  ASP587     -0.2867
     73  CB        30.6550    8.4170   23.2990 C.3   587  ASP587      0.1410
     74  CG        30.5240    9.9230   23.1770 C.2   587  ASP587      0.3668
     75  OD1       31.3300   10.5360   22.4410 O.co2 587  ASP587     -0.2456
     76  OD2       29.6050   10.4910   23.8070 O.co2 587  ASP587     -0.2456
     77  N         23.3840    7.1310   28.6270 N.3   613  TYR613     -0.1241
     78  CA        22.6330    6.7480   27.4300 C.3   613  TYR613      0.1605
     79  C         23.3100    5.6300   26.6300 C.2   613  TYR613      0.2264
     80  O         24.5340    5.4670   26.6790 O.2   613  TYR613     -0.2867
     81  CB        22.4020    7.9790   26.5370 C.3   613  TYR613      0.0534
     82  CG        23.6690    8.7360   26.1890 C.ar  613  TYR613     -0.0201
     83  CD1       24.4120    8.4080   25.0570 C.ar  613  TYR613     -0.0009
     84  CD2       24.1250    9.7800   26.9950 C.ar  613  TYR613     -0.0009
     85  CE1       25.5730    9.0930   24.7390 C.ar  613  TYR613      0.0417
     86  CE2       25.2840   10.4730   26.6850 C.ar  613  TYR613      0.0417
     87  CZ        26.0040   10.1260   25.5580 C.ar  613  TYR613      0.1957
     88  OH        27.1570   10.8100   25.2430 O.3   613  TYR613     -0.2866
     89  N         23.1650    6.6940   18.7930 N.3   625  ILE625     -0.1231
     90  CA        22.9910    7.2270   20.1410 C.3   625  ILE625      0.1692
     91  C         21.5270    7.1140   20.5690 C.2   625  ILE625      0.2592
     92  O         20.6220    7.4750   19.8140 O.2   625  ILE625     -0.2718
     93  CB        23.4590    8.7000   20.2160 C.3   625  ILE625      0.0266
     94  CG1       24.9400    8.8110   19.8340 C.3   625  ILE625      0.0019
     95  CG2       23.2240    9.2780   21.6060 C.3   625  ILE625      0.0020
     96  CD1       25.3220   10.1340   19.2070 C.3   625  ILE625      0.0001
     97  N         21.3050    6.5990   21.7760 N.am  626  GLU626     -0.1966
     98  CA        19.9700    6.5570   22.3720 C.3   626  GLU626      0.1733
     99  C         19.4500    7.9800   22.5920 C.2   626  GLU626      0.2616
    100  O         20.1670    8.8290   23.1310 O.2   626  GLU626     -0.2715
    101  CB        20.0120    5.7980   23.7040 C.3   626  GLU626      0.0429
    102  CG        18.6560    5.5770   24.3620 C.3   626  GLU626      0.1163
    103  CD        18.7530    5.0140   25.7730 C.2   626  GLU626      0.3649
    104  OE1       17.7990    5.2190   26.5530 O.co2 626  GLU626     -0.2457
    105  OE2       19.7710    4.3670   26.1130 O.co2 626  GLU626     -0.2457
    106  N         18.2180    8.2450   22.1640 N.am  627  ILE627     -0.1963
    107  CA        17.5840    9.5320   22.4480 C.3   627  ILE627      0.1727
    108  C         16.9640    9.4930   23.8400 C.2   627  ILE627      0.2616
    109  O         16.0730    8.6850   24.1030 O.2   627  ILE627     -0.2715
    110  CB        16.4960    9.9080   21.4130 C.3   627  ILE627      0.0290
    111  CG1       17.1100   10.1110   20.0260 C.3   627  ILE627      0.0022
    112  CG2       15.7620   11.1700   21.8490 C.3   627  ILE627      0.0023
    113  CD1       16.1030   10.3460   18.9200 C.3   627  ILE627      0.0001
    114  N         17.4460   10.3550   24.7300 N.am  628  VAL628     -0.1963
    115  CA        16.8280   10.5050   26.0430 C.3   628  VAL628      0.1727
    116  C         15.6190   11.4210   25.8760 C.2   628  VAL628      0.2616
    117  O         15.7600   12.6000   25.5470 O.2   628  VAL628     -0.2715
    118  CB        17.8140   11.0440   27.1030 C.3   628  VAL628      0.0290
    119  CG1       17.0950   11.3410   28.4120 C.3   628  VAL628      0.0023
    120  CG2       18.9330   10.0430   27.3420 C.3   628  VAL628      0.0023
    121  N         14.4360   10.8530   26.0900 N.am  629  LYS629     -0.1963
    122  CA        13.1730   11.5240   25.7940 C.3   629  LYS629      0.1728
    123  C         12.8780   12.6960   26.7260 C.2   629  LYS629      0.2616
    124  O         13.2240   12.6630   27.9110 O.2   629  LYS629     -0.2715
    125  CB        12.0180   10.5180   25.8230 C.3   629  LYS629      0.0311
    126  CG        12.1090    9.4170   24.7740 C.3   629  LYS629      0.0038
    127  CD        11.6470    9.8910   23.4030 C.3   629  LYS629      0.0206
    128  CE        11.6790    8.7540   22.3950 C.3   629  LYS629      0.1093
    129  NZ        11.1590    9.1580   21.0600 N.3   629  LYS629     -0.1314
    130  N         12.2420   13.7270   26.1650 N.am  630  ASP630     -0.1957
    131  CA        11.8000   14.9210   26.9020 C.3   630  ASP630      0.1840
    132  C         12.9600   15.7250   27.5010 C.2   630  ASP630      0.2622
    133  O         12.8410   16.2910   28.5890 O.2   630  ASP630     -0.2715
    134  CB        10.7710   14.5530   27.9880 C.3   630  ASP630      0.1450
    135  CG         9.6090   13.7300   27.4490 C.2   630  ASP630      0.3671
    136  OD1        8.9450   14.1750   26.4870 O.co2 630  ASP630     -0.2456
    137  OD2        9.3550   12.6370   28.0010 O.co2 630  ASP630     -0.2456
    138  N         14.0750   15.7810   26.7780 N.am  631  ALA631     -0.1963
    139  CA        15.2760   16.4500   27.2660 C.3   631  ALA631      0.1728
    140  C         15.6710   17.6360   26.3970 C.2   631  ALA631      0.2616
    141  O         15.3440   17.6870   25.2110 O.2   631  ALA631     -0.2715
    142  CB        16.4270   15.4610   27.3670 C.3   631  ALA631      0.0334
    143  N         16.3730   18.5920   26.9980 N.am  632  THR632     -0.1951
    144  CA        16.8790   19.7540   26.2700 C.3   632  THR632      0.1897
    145  C         18.2540   20.1930   26.7740 C.2   632  THR632      0.2313
    146  O         18.6590   19.8620   27.8910 O.2   632  THR632     -0.2863
    147  CB        15.8860   20.9400   26.2930 C.3   632  THR632      0.1794
    148  OG1       16.4080   22.0220   25.5100 O.3   632  THR632     -0.2208
    149  CG2       15.6380   21.4250   27.7120 C.3   632  THR632      0.0378
    150  N         22.7330   18.4020   29.2330 N.3   697  MET697     -0.1245
    151  CA        21.2900   18.3600   29.0380 C.3   697  MET697      0.1570
    152  C         20.5280   18.1230   30.3390 C.2   697  MET697      0.2261
    153  O         21.1170   17.7560   31.3600 O.2   697  MET697     -0.2867
    154  CB        20.9240   17.2890   28.0040 C.3   697  MET697      0.0387
    155  CG        21.4510   17.5630   26.6020 C.3   697  MET697      0.0595
    156  SD        20.8380   16.4120   25.3570 S.3   697  MET697     -0.1393
    157  CE        19.1690   17.0120   25.1170 C.3   697  MET697      0.0692
    158  N         22.1800   15.5020   32.6490 N.3   705  PHE705     -0.1241
    159  CA        23.1170   14.5300   32.0750 C.3   705  PHE705      0.1605
    160  C         24.0300   15.1130   31.0040 C.2   705  PHE705      0.2264
    161  O         23.6040   15.9390   30.1950 O.2   705  PHE705     -0.2867
    162  CB        22.3820   13.2910   31.5380 C.3   705  PHE705      0.0534
    163  CG        21.4450   13.5720   30.3940 C.ar  705  PHE705     -0.0203
    164  CD1       21.8400   13.3340   29.0810 C.ar  705  PHE705     -0.0042
    165  CD2       20.1570   14.0500   30.6260 C.ar  705  PHE705     -0.0042
    166  CE1       20.9750   13.5770   28.0230 C.ar  705  PHE705     -0.0003
    167  CE2       19.2900   14.2980   29.5720 C.ar  705  PHE705     -0.0003
    168  CZ        19.6990   14.0590   28.2690 C.ar  705  PHE705     -0.0000
    169  N         26.5430   14.8580   27.6570 N.3   707  ILE707     -0.1231
    170  CA        26.5880   14.1530   26.3730 C.3   707  ILE707      0.1692
    171  C         27.8880   14.4560   25.6220 C.2   707  ILE707      0.2592
    172  O         28.7150   15.2170   26.1080 O.2   707  ILE707     -0.2718
    173  CB        25.3610   14.4800   25.4820 C.3   707  ILE707      0.0266
    174  CG1       25.3960   15.9340   24.9950 C.3   707  ILE707      0.0019
    175  CG2       24.0610   14.1750   26.2140 C.3   707  ILE707      0.0020
    176  CD1       24.5130   16.1990   23.7960 C.3   707  ILE707      0.0001
    177  N         28.0580   13.8370   24.4530 N.am  708  ASP708     -0.1974
    178  CA        29.1500   14.1350   23.5100 C.3   708  ASP708      0.1709
    179  C         30.5500   14.1610   24.1340 C.2   708  ASP708      0.2293
    180  O         31.1850   15.2140   24.2130 O.2   708  ASP708     -0.2864
    181  CB        28.8570   15.4370   22.7440 C.3   708  ASP708      0.1436
    182  CG        29.5530   15.4980   21.3890 C.2   708  ASP708      0.3671
    183  OD1       30.3070   14.5580   21.0500 O.co2 708  ASP708     -0.2456
    184  OD2       29.3400   16.4910   20.6580 O.co2 708  ASP708     -0.2456
@<TRIPOS>BOND
     1    18    17    2
     2    12    11    2
     3    17    16    1
     4    15    16    1
     5    15    21    1
     6     4     3    2
     7     1     2    1
     8    16    19    1
     9    25    24    2
    10     3     2    1
    11    46    47    2
    12    46    45    1
    13    22    23    1
    14    11    10    1
    15     2     5    1
    16    21    20    1
    17     9    10    1
    18    45    44    1
    19    45    48    1
    20    24    23    1
    21    19    20    1
    22    10    13    1
    23    23    26    1
    24    26    27    1
    25     5     6    1
    26    13    14    1
    27    48    49    1
    28    49    50    1
    29    53    54    1
    30     6     7    1
    31     8     7    1
    32    28    27   ar
    33    28    30   ar
    34    27    29   ar
    35    38    39    2
    36    38    37    1
    37    56    55    2
    38    50    51    1
    39    51    52    1
    40    37    36    1
    41    37    40    1
    42    54    55    1
    43    54    57    1
    44    42    40    1
    45    30    31   ar
    46    59    58   ar
    47    29    31   ar
    48    29    32   ar
    49    40    41    1
    50    67    66    1
    51    57    58    1
    52    58    60   ar
    53    41    43    1
    54    31    33   ar
    55    32    34   ar
    56    66    65    1
    57    66    68    1
    58    61    62    1
    59    89    90    1
    60   113   111    1
    61    65    62    1
    62    96    94    1
    63    33    35   ar
    64    34    35   ar
    65    62    63    1
    66    92    91    2
    67    94    93    1
    68   111   110    1
    69    90    93    1
    70    90    91    1
    71    93    95    1
    72    63    64    2
    73    91    97   am
    74   184   182   ar
    75   183   182   ar
    76   129   128    1
    77   182   181    1
    78   110   112    1
    79   110   107    1
    80    97    98    1
    81   106   107    1
    82   106    99   am
    83    98    99    1
    84    98   101    1
    85   128   127    1
    86    75    74   ar
    87   107   108    1
    88    99   100    2
    89   181   178    1
    90    74    73    1
    91    74    76   ar
    92    73    70    1
    93   127   126    1
    94   178   179    1
    95   178   177    1
    96    69    70    1
    97   101   102    1
    98   176   174    1
    99   108   109    2
   100   108   114   am
   101   179   180    2
   102    70    71    1
   103   102   103    1
   104   177   171   am
   105   114   115    1
   106    85    83   ar
   107    85    87   ar
   108   126   125    1
   109    71    72    2
   110   174   173    1
   111    83    82   ar
   112   157   156    1
   113   141   140    2
   114    88    87    1
   115   156   155    1
   116   173   175    1
   117   173   170    1
   118   148   147    1
   119   117   116    2
   120    87    86   ar
   121   171   172    2
   122   171   170    1
   123   103   105   ar
   124   103   104   ar
   125   122   125    1
   126   122   121    1
   127   122   123    1
   128   116   115    1
   129   116   121   am
   130   115   118    1
   131   130   123   am
   132   130   131    1
   133    82    81    1
   134    82    84   ar
   135   144   147    1
   136   144   145    1
   137   144   143    1
   138   147   149    1
   139   170   169    1
   140   140   143   am
   141   140   139    1
   142   136   135   ar
   143    81    78    1
   144   155   154    1
   145    79    80    2
   146    79    78    1
   147    86    84   ar
   148   123   124    2
   149   145   146    2
   150   138   139    1
   151   138   132   am
   152   131   132    1
   153   131   134    1
   154   118   120    1
   155   118   119    1
   156   139   142    1
   157    78    77    1
   158   135   134    1
   159   135   137   ar
   160   132   133    2
   161   154   151    1
   162   166   168   ar
   163   166   164   ar
   164   168   167   ar
   165   151   150    1
   166   151   152    1
   167   164   163   ar
   168   167   165   ar
   169   161   160    2
   170   152   153    2
   171   163   165   ar
   172   163   162    1
   173   160   159    1
   174   162   159    1
   175   159   158    1
