@<TRIPOS>MOLECULE
tmp/4fhtB01.pdb
 85 83 0 0 0
SMALL
GASTEIGER

@<TRIPOS>ATOM
      1  N         21.6700   32.1420   29.9690 N.3    22  HIS22      -0.1241
      2  CA        20.2710   31.9000   29.6310 C.3    22  HIS22       0.1621
      3  C         20.0830   30.5160   29.0180 C.2    22  HIS22       0.2264
      4  O         19.2230   29.7450   29.4470 O.2    22  HIS22      -0.2867
      5  CB        19.7860   32.9670   28.6450 C.3    22  HIS22       0.0745
      6  CG        18.4020   32.7300   28.1230 C.ar   22  HIS22       0.0817
      7  ND1       18.0070   33.1260   26.8640 N.ar   22  HIS22      -0.2268
      8  CD2       17.3170   32.1550   28.6940 C.ar   22  HIS22       0.1154
      9  CE1       16.7410   32.7960   26.6760 C.ar   22  HIS22       0.1986
     10  NE2       16.2980   32.2080   27.7740 N.ar   22  HIS22      -0.2212
     11  N         17.9390   27.5070   30.6150 N.3    26  TRP26      -0.1241
     12  CA        16.7740   27.0660   29.8610 C.3    26  TRP26       0.1605
     13  C         16.8000   25.5530   29.6670 C.2    26  TRP26       0.2264
     14  O         15.8300   24.8620   29.9680 O.2    26  TRP26      -0.2867
     15  CB        16.7000   27.7780   28.5050 C.3    26  TRP26       0.0550
     16  CG        15.4980   27.3880   27.6980 C.ar   26  TRP26       0.0003
     17  CD1       15.3970   26.3350   26.8360 C.ar   26  TRP26       0.0946
     18  CD2       14.2210   28.0400   27.6850 C.ar   26  TRP26       0.0152
     19  NE1       14.1410   26.2890   26.2900 N.ar   26  TRP26      -0.2442
     20  CE2       13.3990   27.3250   26.7920 C.ar   26  TRP26       0.0810
     21  CE3       13.6940   29.1580   28.3410 C.ar   26  TRP26       0.0012
     22  CZ2       12.0750   27.6890   26.5390 C.ar   26  TRP26       0.0191
     23  CZ3       12.3780   29.5200   28.0880 C.ar   26  TRP26       0.0001
     24  CH2       11.5840   28.7870   27.1930 C.ar   26  TRP26       0.0015
     25  N         13.5890   28.5650   23.5340 N.3    36  SER36      -0.1203
     26  CA        12.9830   29.8110   23.9930 C.3    36  SER36       0.2005
     27  C         12.3670   30.6690   22.8730 C.2    36  SER36       0.2460
     28  O         11.3420   31.3120   23.0950 O.2    36  SER36      -0.2732
     29  CB        13.9600   30.6170   24.8620 C.3    36  SER36       0.2103
     30  OG        14.8170   31.4360   24.0880 O.3    36  SER36      -0.2182
     31  N         12.9800   30.6900   21.6700 N.am   37  PRO37      -0.2728
     32  CA        12.2500   31.3540   20.5820 C.3    37  PRO37       0.1401
     33  C         10.9230   30.6630   20.2610 C.2    37  PRO37       0.2269
     34  O          9.9420   31.3340   19.9390 O.2    37  PRO37      -0.2865
     35  CB        13.2110   31.2340   19.3940 C.3    37  PRO37       0.0296
     36  CG        14.5580   31.1850   20.0150 C.3    37  PRO37       0.0237
     37  CD        14.3730   30.3910   21.2820 C.3    37  PRO37       0.0939
     38  N          8.9950   29.0380   22.4070 N.3    39  TYR39      -0.1227
     39  CA         8.0570   29.4160   23.4570 C.3    39  TYR39       0.1736
     40  C          7.5120   30.8210   23.2360 C.2    39  TYR39       0.2595
     41  O          6.3250   31.0720   23.4480 O.2    39  TYR39      -0.2718
     42  CB         8.6950   29.3230   24.8490 C.3    39  TYR39       0.0548
     43  CG         7.7900   29.8650   25.9340 C.ar   39  TYR39      -0.0200
     44  CD1        6.8230   29.0590   26.5240 C.ar   39  TYR39      -0.0009
     45  CD2        7.8830   31.1920   26.3510 C.ar   39  TYR39      -0.0009
     46  CE1        5.9800   29.5560   27.5060 C.ar   39  TYR39       0.0417
     47  CE2        7.0470   31.6950   27.3270 C.ar   39  TYR39       0.0417
     48  CZ         6.1000   30.8740   27.9050 C.ar   39  TYR39       0.1957
     49  OH         5.2710   31.3760   28.8820 O.3    39  TYR39      -0.2866
     50  N          8.3880   31.7340   22.8240 N.am   40  ALA40      -0.1980
     51  CA         8.0050   33.1220   22.5870 C.3    40  ALA40       0.1597
     52  C          6.9130   33.2060   21.5320 C.2    40  ALA40       0.2287
     53  O          5.9770   33.9990   21.6500 O.2    40  ALA40      -0.2864
     54  CB         9.2110   33.9410   22.1620 C.3    40  ALA40       0.0319
     55  N          8.1880   39.2660   18.7660 N.3    60  VAL60      -0.1245
     56  CA         9.1300   38.5400   19.6200 C.3    60  VAL60       0.1561
     57  C         10.5970   38.7660   19.2580 C.2    60  VAL60       0.2260
     58  O         11.4930   38.2080   19.8940 O.2    60  VAL60      -0.2867
     59  CB         8.8380   37.0260   19.6160 C.3    60  VAL60       0.0252
     60  CG1        7.4280   36.7580   20.1250 C.3    60  VAL60       0.0019
     61  CG2        9.0240   36.4560   18.2210 C.3    60  VAL60       0.0019
     62  N          9.4490   27.9890   33.6260 N.3   111  ILE111     -0.1245
     63  CA        10.0790   29.2740   33.3290 C.3   111  ILE111      0.1561
     64  C         10.0860   30.2010   34.5480 C.2   111  ILE111      0.2260
     65  O         11.0680   30.9060   34.8020 O.2   111  ILE111     -0.2867
     66  CB         9.3810   29.9700   32.1380 C.3   111  ILE111      0.0252
     67  CG1        9.6480   29.1990   30.8450 C.3   111  ILE111      0.0019
     68  CG2        9.8470   31.4110   31.9940 C.3   111  ILE111      0.0019
     69  CD1        8.9110   29.7460   29.6440 C.3   111  ILE111      0.0001
     70  N         12.8660   29.1980   36.7210 N.3   114  MET114     -0.1230
     71  CA        14.1280   29.5880   36.0980 C.3   114  MET114      0.1702
     72  C         14.4070   31.0710   36.3220 C.2   114  MET114      0.2592
     73  O         15.5330   31.4600   36.6350 O.2   114  MET114     -0.2718
     74  CB        14.1260   29.2910   34.5950 C.3   114  MET114      0.0401
     75  CG        15.4140   29.7250   33.8980 C.3   114  MET114      0.0596
     76  SD        15.3490   29.7700   32.0920 S.3   114  MET114     -0.1393
     77  CE        14.1320   31.0580   31.8320 C.3   114  MET114      0.0692
     78  N         13.3750   31.8940   36.1620 N.am  115  ASN115     -0.1974
     79  CA        13.5200   33.3340   36.3360 C.3   115  ASN115      0.1688
     80  C         13.8550   33.7400   37.7720 C.2   115  ASN115      0.2292
     81  O         14.5530   34.7310   37.9930 O.2   115  ASN115     -0.2864
     82  CB        12.2780   34.0740   35.8350 C.3   115  ASN115      0.1181
     83  CG        12.1900   34.0980   34.3210 C.2   115  ASN115      0.2629
     84  OD1       13.1590   33.7900   33.6270 O.2   115  ASN115     -0.2716
     85  ND2       11.0290   34.4730   33.8010 N.am  115  ASN115     -0.0877
@<TRIPOS>BOND
     1    61    59    1
     2    55    56    1
     3    57    56    1
     4    57    58    2
     5    35    36    1
     6    35    32    1
     7    59    56    1
     8    59    60    1
     9    34    33    2
    10    36    37    1
    11    33    32    1
    12    32    31    1
    13    37    31    1
    14    52    53    2
    15    52    51    1
    16    31    27   am
    17    54    51    1
    18    38    39    1
    19    51    50    1
    20    50    40   am
    21    27    28    2
    22    27    26    1
    23    40    41    2
    24    40    39    1
    25    39    42    1
    26    25    26    1
    27    26    29    1
    28    30    29    1
    29    42    43    1
    30    43    45   ar
    31    43    44   ar
    32    19    20   ar
    33    19    17   ar
    34    45    47   ar
    35    44    46   ar
    36    22    20   ar
    37    22    24   ar
    38     9     7   ar
    39     9    10   ar
    40    20    18   ar
    41    17    16   ar
    42     7     6   ar
    43    24    23   ar
    44    47    48   ar
    45    46    48   ar
    46    18    16   ar
    47    18    21   ar
    48    16    15    1
    49    10     8   ar
    50    48    49    1
    51    23    21   ar
    52     6     5    1
    53     6     8   ar
    54    15    12    1
    55     5     2    1
    56     3     4    2
    57     3     2    1
    58     2     1    1
    59    69    67    1
    60    13    12    1
    61    13    14    2
    62    12    11    1
    63    67    66    1
    64    77    76    1
    65    68    66    1
    66    76    75    1
    67    66    63    1
    68    63    62    1
    69    63    64    1
    70    84    83    2
    71    85    83   am
    72    75    74    1
    73    83    82    1
    74    64    65    2
    75    74    71    1
    76    82    79    1
    77    71    72    1
    78    71    70    1
    79    78    72   am
    80    78    79    1
    81    72    73    2
    82    79    80    1
    83    80    81    2
