@<TRIPOS>MOLECULE
tmp/4fhwA00.pdb
 192 179 0 0 0
SMALL
GASTEIGER

@<TRIPOS>ATOM
      1  N        -19.3130   -4.5760   -3.8420 N.3    49  PHE49      -0.1227
      2  CA       -19.1400   -4.0410   -5.1910 C.3    49  PHE49       0.1736
      3  C        -17.8890   -3.1740   -5.2020 C.2    49  PHE49       0.2596
      4  O        -17.1690   -3.1200   -4.1950 O.2    49  PHE49      -0.2718
      5  CB       -20.3940   -3.2900   -5.6840 C.3    49  PHE49       0.0547
      6  CG       -20.7150   -2.0320   -4.9160 C.ar   49  PHE49      -0.0202
      7  CD1      -21.5940   -2.0680   -3.8320 C.ar   49  PHE49      -0.0042
      8  CD2      -20.1470   -0.8010   -5.2840 C.ar   49  PHE49      -0.0042
      9  CE1      -21.9160   -0.8900   -3.1140 C.ar   49  PHE49      -0.0003
     10  CE2      -20.4600    0.3900   -4.5760 C.ar   49  PHE49      -0.0003
     11  CZ       -21.3510    0.3390   -3.4900 C.ar   49  PHE49      -0.0000
     12  N        -17.6150   -2.5210   -6.3330 N.am   50  GLY50      -0.1942
     13  CA       -16.4350   -1.6740   -6.4400 C.3    50  GLY50       0.2014
     14  C        -15.1340   -2.4550   -6.4690 C.2    50  GLY50       0.2639
     15  O        -15.1290   -3.6570   -6.7570 O.2    50  GLY50      -0.2714
     16  N        -14.0380   -1.7740   -6.1270 N.am   51  SER51      -0.1949
     17  CA       -12.6910   -2.2370   -6.4740 C.3    51  SER51       0.1924
     18  C        -12.2690   -3.5970   -5.9060 C.2    51  SER51       0.2314
     19  O        -11.6230   -4.3730   -6.6060 O.2    51  SER51      -0.2863
     20  CB       -11.6400   -1.1540   -6.1960 C.3    51  SER51       0.2116
     21  OG       -11.7300   -0.7070   -4.8680 O.3    51  SER51      -0.2180
     22  N         -8.2030   -3.2610   -6.6120 N.3    57  ALA57      -0.1231
     23  CA        -7.8830   -2.6750   -5.3070 C.3    57  ALA57       0.1694
     24  C         -6.3900   -2.4710   -5.0730 C.2    57  ALA57       0.2591
     25  O         -5.5840   -3.3760   -5.2950 O.2    57  ALA57      -0.2718
     26  CB        -8.4510   -3.5300   -4.2030 C.3    57  ALA57       0.0304
     27  N         -6.0480   -1.2690   -4.6180 N.am   58  LEU58      -0.1980
     28  CA        -4.7440   -0.9760   -4.0310 C.3    58  LEU58       0.1596
     29  C         -4.7100   -1.4830   -2.5810 C.2    58  LEU58       0.2287
     30  O         -5.7460   -1.9020   -2.0440 O.2    58  LEU58      -0.2864
     31  CB        -4.4850    0.5350   -4.0660 C.3    58  LEU58       0.0297
     32  CG        -4.4200    1.1870   -5.4490 C.3    58  LEU58       0.0022
     33  CD1       -4.4960    2.6990   -5.3380 C.3    58  LEU58       0.0001
     34  CD2       -3.1560    0.7720   -6.1880 C.3    58  LEU58       0.0001
     35  N         -4.6440   -1.0450    1.4740 N.3    60  ASN60      -0.1225
     36  CA        -5.4120   -0.1530    2.3530 C.3    60  ASN60       0.1785
     37  C         -6.6940    0.2950    1.6700 C.2    60  ASN60       0.2598
     38  O         -7.0230    1.4830    1.6300 O.2    60  ASN60      -0.2718
     39  CB        -4.5830    1.0710    2.7790 C.3    60  ASN60       0.1169
     40  CG        -3.2040    0.6980    3.2840 C.2    60  ASN60       0.2627
     41  OD1       -2.1990    1.2550    2.8340 O.2    60  ASN60      -0.2716
     42  ND2       -3.1460   -0.2490    4.2230 N.am   60  ASN60      -0.0877
     43  N         -7.4100   -0.6850    1.1420 N.am   61  SER61      -0.1938
     44  CA        -8.5700   -0.4560    0.3110 C.3    61  SER61       0.2055
     45  C         -9.7960   -0.2500    1.1750 C.2    61  SER61       0.2643
     46  O         -9.9480   -0.9130    2.2000 O.2    61  SER61      -0.2714
     47  CB        -8.7770   -1.6650   -0.6020 C.3    61  SER61       0.2130
     48  OG        -9.8420   -1.4410   -1.5050 O.3    61  SER61      -0.2179
     49  N        -10.6600    0.6770    0.7660 N.am   62  ASP62      -0.1971
     50  CA       -11.9550    0.8370    1.4200 C.3    62  ASP62       0.1709
     51  C        -12.9060   -0.2420    0.9140 C.2    62  ASP62       0.2293
     52  O        -12.7130   -0.8060   -0.1680 O.2    62  ASP62      -0.2864
     53  CB       -12.5160    2.2800    1.2960 C.3    62  ASP62       0.1436
     54  CG       -13.1610    2.5990   -0.0850 C.2    62  ASP62       0.3671
     55  OD1      -12.8760    1.9340   -1.1080 O.co2  62  ASP62      -0.2456
     56  OD2      -13.9550    3.5750   -0.1490 O.co2  62  ASP62      -0.2456
     57  N        -16.7610   -1.3410   -0.1480 N.3    64  ASP64      -0.1239
     58  CA       -18.0330   -0.8380   -0.6210 C.3    64  ASP64       0.1674
     59  C        -19.0500   -1.9630   -0.6570 C.2    64  ASP64       0.2266
     60  O        -18.9480   -2.8970   -1.4600 O.2    64  ASP64      -0.2867
     61  CB       -17.8680   -0.1920   -1.9940 C.3    64  ASP64       0.1410
     62  CG       -17.0620    1.0770   -1.9300 C.2    64  ASP64       0.3668
     63  OD1      -17.5180    2.0300   -1.2510 O.co2  64  ASP64      -0.2456
     64  OD2      -15.9670    1.1290   -2.5370 O.co2  64  ASP64      -0.2456
     65  N        -28.5170   -0.3190   -3.8370 N.3   126  ASN126     -0.1240
     66  CA       -27.7230    0.3670   -4.8430 C.3   126  ASN126      0.1653
     67  C        -27.3710   -0.6250   -5.9490 C.2   126  ASN126      0.2266
     68  O        -26.2120   -1.0000   -6.1150 O.2   126  ASN126     -0.2867
     69  CB       -26.4510    0.9680   -4.2210 C.3   126  ASN126      0.1155
     70  CG       -25.6940    1.8730   -5.1890 C.2   126  ASN126      0.2627
     71  OD1      -26.0270    1.9460   -6.3760 O.2   126  ASN126     -0.2716
     72  ND2      -24.6620    2.5620   -4.6840 N.am  126  ASN126     -0.0877
     73  N        -27.3690   -0.3140   -9.1890 N.3   128  LEU128     -0.1231
     74  CA       -26.5760    0.2470  -10.2890 C.3   128  LEU128      0.1693
     75  C        -25.0510    0.0930  -10.1230 C.2   128  LEU128      0.2591
     76  O        -24.3410   -0.1610  -11.1000 O.2   128  LEU128     -0.2718
     77  CB       -26.9490    1.7120  -10.5250 C.3   128  LEU128      0.0284
     78  CG       -28.1510    1.9720  -11.4360 C.3   128  LEU128      0.0019
     79  CD1      -28.5050    3.4620  -11.4790 C.3   128  LEU128      0.0001
     80  CD2      -27.8750    1.4610  -12.8340 C.3   128  LEU128      0.0001
     81  N        -24.5700    0.2530   -8.8880 N.am  129  ALA129     -0.1980
     82  CA       -23.1540    0.0940   -8.5530 C.3   129  ALA129      0.1597
     83  C        -22.7080   -1.3400   -8.7390 C.2   129  ALA129      0.2287
     84  O        -21.5860   -1.5840   -9.1940 O.2   129  ALA129     -0.2864
     85  CB       -22.8820    0.5440   -7.1230 C.3   129  ALA129      0.0319
     86  N        -22.3240   -1.6200  -12.5320 N.3   132  ASN132     -0.1225
     87  CA       -21.0560   -0.9540  -12.8560 C.3   132  ASN132      0.1785
     88  C        -19.8960   -1.8910  -12.5740 C.2   132  ASN132      0.2597
     89  O        -18.9860   -2.0160  -13.3840 O.2   132  ASN132     -0.2718
     90  CB       -20.8350    0.3280  -12.0340 C.3   132  ASN132      0.1169
     91  CG       -21.7500    1.4700  -12.4460 C.2   132  ASN132      0.2627
     92  OD1      -22.4320    1.4050  -13.4750 O.2   132  ASN132     -0.2716
     93  ND2      -21.7730    2.5320  -11.6350 N.am  132  ASN132     -0.0877
     94  N        -19.9370   -2.5400  -11.4150 N.am  133  THR133     -0.1953
     95  CA       -18.8750   -3.4590  -11.0040 C.3   133  THR133      0.1897
     96  C        -18.8300   -4.7430  -11.8420 C.2   133  THR133      0.2313
     97  O        -17.7530   -5.2560  -12.1180 O.2   133  THR133     -0.2863
     98  CB       -18.9730   -3.7920   -9.5040 C.3   133  THR133      0.1794
     99  OG1      -18.7650   -2.5910   -8.7610 O.3   133  THR133     -0.2208
    100  CG2      -17.9110   -4.8070   -9.0980 C.3   133  THR133      0.0378
    101  N        -16.9150   -3.7430  -14.9760 N.3   136  LEU136     -0.1245
    102  CA       -15.4650   -3.6330  -14.7670 C.3   136  LEU136      0.1561
    103  C        -14.8120   -4.9800  -14.4980 C.2   136  LEU136      0.2260
    104  O        -13.6740   -5.2050  -14.9090 O.2   136  LEU136     -0.2867
    105  CB       -15.1270   -2.6580  -13.6410 C.3   136  LEU136      0.0270
    106  CG       -15.6850   -1.2290  -13.6440 C.3   136  LEU136      0.0019
    107  CD1      -14.8680   -0.4010  -12.6900 C.3   136  LEU136      0.0001
    108  CD2      -15.7250   -0.5760  -15.0390 C.3   136  LEU136      0.0001
    109  N         -4.3150    4.8120  -10.9240 N.3   154  LYS154     -0.1245
    110  CA        -4.8600    5.2280   -9.6210 C.3   154  LYS154      0.1561
    111  C         -3.7550    5.7370   -8.7120 C.2   154  LYS154      0.2260
    112  O         -3.8900    6.7810   -8.0810 O.2   154  LYS154     -0.2867
    113  CB        -5.5740    4.0820   -8.9210 C.3   154  LYS154      0.0271
    114  CG        -6.9670    3.7760   -9.4280 C.3   154  LYS154      0.0035
    115  CD        -7.6720    2.9890   -8.3420 C.3   154  LYS154      0.0206
    116  CE        -8.7820    2.1540   -8.8800 C.3   154  LYS154      0.1093
    117  NZ        -9.1170    1.1660   -7.8140 N.3   154  LYS154     -0.1314
    118  N         -3.2820    9.5810   -7.2050 N.3   158  LYS158     -0.1245
    119  CA        -3.1200    9.8870   -5.7750 C.3   158  LYS158      0.1561
    120  C         -1.8500   10.6850   -5.5160 C.2   158  LYS158      0.2260
    121  O         -1.8890   11.7230   -4.8620 O.2   158  LYS158     -0.2867
    122  CB        -3.1000    8.6300   -4.9180 C.3   158  LYS158      0.0271
    123  CG        -4.4790    8.0240   -4.7410 C.3   158  LYS158      0.0035
    124  CD        -4.4740    6.8390   -3.7850 C.3   158  LYS158      0.0206
    125  CE        -5.7210    5.9880   -3.9840 C.3   158  LYS158      0.1093
    126  NZ        -7.0010    6.7770   -3.9540 N.3   158  LYS158     -0.1314
    127  N         -6.6400   13.1380   -7.5140 N.3   163  ASN163     -0.1240
    128  CA        -7.6270   12.1090   -7.2080 C.3   163  ASN163      0.1653
    129  C         -8.4690   12.4970   -5.9800 C.2   163  ASN163      0.2266
    130  O         -8.6950   11.6790   -5.0890 O.2   163  ASN163     -0.2867
    131  CB        -6.8940   10.7680   -7.0360 C.3   163  ASN163      0.1155
    132  CG        -7.8150    9.5960   -6.6990 C.2   163  ASN163      0.2627
    133  OD1       -7.4870    8.7950   -5.8230 O.2   163  ASN163     -0.2716
    134  ND2       -8.9470    9.4760   -7.3970 N.am  163  ASN163     -0.0877
    135  N        -12.6820   11.2880   -9.1680 N.3   171  SER171     -0.1202
    136  CA       -12.7160   10.0470   -8.4060 C.3   171  SER171      0.2020
    137  C        -11.8870    8.9560   -9.0990 C.2   171  SER171      0.2619
    138  O        -11.6270    9.0310  -10.2970 O.2   171  SER171     -0.2717
    139  CB       -14.1570    9.5800   -8.2220 C.3   171  SER171      0.2103
    140  OG       -14.7350    9.2350   -9.4760 O.3   171  SER171     -0.2182
    141  N        -11.4780    7.9390   -8.3440 N.am  172  SER172     -0.1937
    142  CA       -10.7950    6.7730   -8.9220 C.3   172  SER172      0.2055
    143  C        -11.6350    6.0910   -9.9960 C.2   172  SER172      0.2643
    144  O        -11.1110    5.7130  -11.0490 O.2   172  SER172     -0.2714
    145  CB       -10.4070    5.7770   -7.8360 C.3   172  SER172      0.2130
    146  OG        -9.9040    6.4710   -6.7080 O.3   172  SER172     -0.2179
    147  N        -12.9330    5.9340   -9.7230 N.am  173  TYR173     -0.1973
    148  CA       -13.8930    5.4410  -10.7250 C.3   173  TYR173      0.1639
    149  C        -13.7720    6.2320  -12.0130 C.2   173  TYR173      0.2290
    150  O        -13.6890    5.6480  -13.0770 O.2   173  TYR173     -0.2864
    151  CB       -15.3330    5.4900  -10.1960 C.3   173  TYR173      0.0560
    152  CG       -16.3840    4.9650  -11.1550 C.ar  173  TYR173     -0.0198
    153  CD1      -16.2960    3.6690  -11.6950 C.ar  173  TYR173     -0.0009
    154  CD2      -17.4830    5.7580  -11.5160 C.ar  173  TYR173     -0.0009
    155  CE1      -17.2670    3.1860  -12.5700 C.ar  173  TYR173      0.0417
    156  CE2      -18.4620    5.2760  -12.3870 C.ar  173  TYR173      0.0417
    157  CZ       -18.3370    3.9930  -12.9220 C.ar  173  TYR173      0.1957
    158  OH       -19.3110    3.5050  -13.7860 O.3   173  TYR173     -0.2866
    159  N        -21.2390    8.2110  -17.2810 N.3   276  ASP276     -0.1239
    160  CA       -21.3160    6.8600  -16.6990 C.3   276  ASP276      0.1674
    161  C        -21.9370    5.9110  -17.7280 C.2   276  ASP276      0.2266
    162  O        -22.9220    6.2710  -18.3890 O.2   276  ASP276     -0.2867
    163  CB       -22.1570    6.8510  -15.4200 C.3   276  ASP276      0.1410
    164  CG       -21.9930    5.5660  -14.6170 C.2   276  ASP276      0.3668
    165  OD1      -21.3010    5.6190  -13.5860 O.co2 276  ASP276     -0.2456
    166  OD2      -22.5460    4.4990  -15.0070 O.co2 276  ASP276     -0.2456
    167  N        -25.6280    4.6940  -15.9000 N.3   279  GLU279     -0.1245
    168  CA       -26.3520    5.8710  -15.4430 C.3   279  GLU279      0.1567
    169  C        -25.9430    7.0690  -16.2880 C.2   279  GLU279      0.2260
    170  O        -25.1560    7.9250  -15.8560 O.2   279  GLU279     -0.2867
    171  CB       -26.0690    6.1290  -13.9630 C.3   279  GLU279      0.0388
    172  CG       -27.0770    7.0630  -13.3100 C.3   279  GLU279      0.1160
    173  CD       -26.7580    7.3750  -11.8520 C.2   279  GLU279      0.3649
    174  OE1      -27.4600    8.2450  -11.2900 O.co2 279  GLU279     -0.2457
    175  OE2      -25.8220    6.7630  -11.2680 O.co2 279  GLU279     -0.2457
    176  N        -25.6480   10.7680  -15.2050 N.3   282  HIS282     -0.1241
    177  CA       -24.5950   11.1160  -14.2510 C.3   282  HIS282      0.1621
    178  C        -23.2390   11.4220  -14.9260 C.2   282  HIS282      0.2264
    179  O        -22.6110   10.5430  -15.5370 O.2   282  HIS282     -0.2867
    180  CB       -24.4550    9.9830  -13.2330 C.3   282  HIS282      0.0745
    181  CG       -23.3330   10.1570  -12.2570 C.ar  282  HIS282      0.0817
    182  ND1      -23.2390   11.2400  -11.4070 N.ar  282  HIS282     -0.2268
    183  CD2      -22.2830    9.3560  -11.9560 C.ar  282  HIS282      0.1154
    184  CE1      -22.1630   11.1160  -10.6490 C.ar  282  HIS282      0.1986
    185  NE2      -21.5690    9.9780  -10.9580 N.ar  282  HIS282     -0.2212
    186  N        -19.6730   11.6720  -14.3310 N.3   284  VAL284     -0.1245
    187  CA       -18.7090   11.2360  -13.3350 C.3   284  VAL284      0.1561
    188  C        -17.6480   12.3150  -13.0350 C.2   284  VAL284      0.2260
    189  O        -17.0970   12.3680  -11.9270 O.2   284  VAL284     -0.2867
    190  CB       -18.0680    9.8730  -13.7340 C.3   284  VAL284      0.0252
    191  CG1      -17.1520    9.3440  -12.6230 C.3   284  VAL284      0.0019
    192  CG2      -19.1630    8.8430  -14.0580 C.3   284  VAL284      0.0019
@<TRIPOS>BOND
     1   162   161    2
     2   161   160    1
     3   159   160    1
     4   160   163    1
     5   169   170    2
     6   169   168    1
     7   167   168    1
     8   179   178    2
     9   168   171    1
    10   163   164    1
    11   176   177    1
    12   108   106    1
    13   166   164   ar
    14   101   102    1
    15   178   177    1
    16   104   103    2
    17   102   103    1
    18   102   105    1
    19   164   165   ar
    20   186   187    1
    21   177   180    1
    22   192   190    1
    23   171   172    1
    24   158   157    1
    25   190   187    1
    26   190   191    1
    27   106   105    1
    28   106   107    1
    29    92    91    2
    30    89    88    2
    31   187   188    1
    32   172   173    1
    33   180   181    1
    34   150   149    2
    35   188   189    2
    36   157   155   ar
    37   157   156   ar
    38    87    88    1
    39    87    86    1
    40    87    90    1
    41    80    78    1
    42    88    94   am
    43   155   153   ar
    44    91    90    1
    45    91    93   am
    46   156   154   ar
    47   181   183   ar
    48   181   182   ar
    49    97    96    2
    50   149   148    1
    51   183   185   ar
    52   173   174   ar
    53   173   175   ar
    54    96    95    1
    55   153   152   ar
    56   154   152   ar
    57    79    78    1
    58    78    77    1
    59    94    95    1
    60   182   184   ar
    61   152   151    1
    62    76    75    2
    63   144   143    2
    64    95    98    1
    65   185   184   ar
    66   109   110    1
    67   148   151    1
    68   148   147    1
    69    77    74    1
    70   138   137    2
    71    74    75    1
    72    74    73    1
    73    75    81   am
    74   143   147   am
    75   143   142    1
    76   110   113    1
    77   110   111    1
    78    98   100    1
    79    98    99    1
    80   140   139    1
    81   114   113    1
    82   114   115    1
    83    84    83    2
    84   135   136    1
    85   137   136    1
    86   137   141   am
    87   142   141    1
    88   142   145    1
    89    81    82    1
    90   116   115    1
    91   116   117    1
    92    83    82    1
    93   111   112    2
    94    82    85    1
    95   136   139    1
    96   145   146    1
    97   127   128    1
    98   134   132   am
    99   128   131    1
   100   128   129    1
   101   118   119    1
   102   131   132    1
   103    15    14    2
   104   132   133    2
   105    22    23    1
   106    19    18    2
   107    17    20    1
   108    17    16    1
   109    17    18    1
   110    14    13    1
   111    14    16   am
   112    13    12    1
   113    71    70    2
   114    12     3   am
   115    20    21    1
   116    34    32    1
   117    68    67    2
   118   129   130    2
   119    67    66    1
   120   119   120    1
   121   119   122    1
   122     5     2    1
   123     5     6    1
   124   120   121    2
   125    32    33    1
   126    32    31    1
   127    23    24    1
   128    23    26    1
   129    25    24    2
   130     8     6   ar
   131     8    10   ar
   132     3     2    1
   133     3     4    2
   134     2     1    1
   135    70    72   am
   136    70    69    1
   137    24    27   am
   138   122   123    1
   139     6     7   ar
   140    66    69    1
   141    66    65    1
   142   123   124    1
   143    27    28    1
   144    10    11   ar
   145    31    28    1
   146    28    29    1
   147   125   126    1
   148   125   124    1
   149     7     9   ar
   150    11     9   ar
   151    29    30    2
   152    64    62   ar
   153    61    62    1
   154    61    58    1
   155    62    63   ar
   156    48    47    1
   157    60    59    2
   158    55    54   ar
   159    59    58    1
   160    58    57    1
   161    47    44    1
   162    52    51    2
   163    56    54   ar
   164    54    53    1
   165    44    43    1
   166    44    45    1
   167    49    45   am
   168    49    50    1
   169    51    50    1
   170    43    37   am
   171    45    46    2
   172    53    50    1
   173    35    36    1
   174    38    37    2
   175    37    36    1
   176    36    39    1
   177    39    40    1
   178    41    40    2
   179    40    42   am
