@<TRIPOS>MOLECULE
tmp/4fhyA00.pdb
 202 186 0 0 0
SMALL
GASTEIGER

@<TRIPOS>ATOM
      1  N        -19.1080   -4.5650   -3.8880 N.3    49  PHE49      -0.1227
      2  CA       -18.8990   -3.9630   -5.2080 C.3    49  PHE49       0.1736
      3  C        -17.6780   -3.0530   -5.2160 C.2    49  PHE49       0.2596
      4  O        -17.1190   -2.7560   -4.1600 O.2    49  PHE49      -0.2718
      5  CB       -20.1620   -3.2470   -5.7210 C.3    49  PHE49       0.0547
      6  CG       -20.5510   -2.0310   -4.9280 C.ar   49  PHE49      -0.0202
      7  CD1      -21.4280   -2.1360   -3.8460 C.ar   49  PHE49      -0.0042
      8  CD2      -20.0590   -0.7680   -5.2700 C.ar   49  PHE49      -0.0042
      9  CE1      -21.8020   -1.0010   -3.1140 C.ar   49  PHE49      -0.0003
     10  CE2      -20.4190    0.3660   -4.5280 C.ar   49  PHE49      -0.0003
     11  CZ       -21.2950    0.2430   -3.4520 C.ar   49  PHE49      -0.0000
     12  N        -17.2650   -2.6280   -6.4090 N.am   50  GLY50      -0.1942
     13  CA       -16.0670   -1.8190   -6.5740 C.3    50  GLY50       0.2014
     14  C        -14.7740   -2.6060   -6.4470 C.2    50  GLY50       0.2639
     15  O        -14.7630   -3.8190   -6.6450 O.2    50  GLY50      -0.2714
     16  N        -13.6970   -1.9000   -6.0950 N.am   51  SER51      -0.1949
     17  CA       -12.3330   -2.4400   -6.0640 C.3    51  SER51       0.1924
     18  C        -12.2070   -3.9150   -5.7220 C.2    51  SER51       0.2314
     19  O        -11.8040   -4.7110   -6.5600 O.2    51  SER51      -0.2863
     20  CB       -11.4700   -1.6480   -5.0910 C.3    51  SER51       0.2116
     21  OG       -11.5590   -0.2830   -5.3850 O.3    51  SER51      -0.2180
     22  N        -14.0760   -6.3160   -8.0660 N.3    54  SER54      -0.1217
     23  CA       -13.6140   -6.2940   -9.4530 C.3    54  SER54       0.1889
     24  C        -12.1140   -6.6290   -9.5970 C.2    54  SER54       0.2288
     25  O        -11.6130   -6.8790  -10.7090 O.2    54  SER54      -0.2866
     26  CB       -13.9170   -4.9340  -10.0710 C.3    54  SER54       0.2089
     27  OG       -13.2090   -3.9270   -9.3800 O.3    54  SER54      -0.2183
     28  N         -9.4660   -4.6760   -8.5950 N.3    56  LEU56      -0.1245
     29  CA        -8.6680   -3.5090   -8.9300 C.3    56  LEU56       0.1561
     30  C         -8.2310   -2.7780   -7.6610 C.2    56  LEU56       0.2260
     31  O         -8.2170   -1.5320   -7.6110 O.2    56  LEU56      -0.2867
     32  CB        -9.4810   -2.5620   -9.8070 C.3    56  LEU56       0.0270
     33  CG        -9.9620   -3.0910  -11.1520 C.3    56  LEU56       0.0019
     34  CD1      -10.9820   -2.1270  -11.7330 C.3    56  LEU56       0.0001
     35  CD2       -8.7920   -3.3290  -12.1000 C.3    56  LEU56       0.0001
     36  N         -5.8010   -1.5190   -4.7230 N.3    58  LEU58      -0.1245
     37  CA        -4.5130   -1.1790   -4.1400 C.3    58  LEU58       0.1561
     38  C         -4.4440   -1.6930   -2.6930 C.2    58  LEU58       0.2260
     39  O         -5.4140   -2.2390   -2.1560 O.2    58  LEU58      -0.2867
     40  CB        -4.3120    0.3380   -4.1530 C.3    58  LEU58       0.0270
     41  CG        -4.2470    1.1150   -5.4660 C.3    58  LEU58       0.0019
     42  CD1       -4.7270    2.5260   -5.2590 C.3    58  LEU58       0.0001
     43  CD2       -2.8390    1.1190   -6.0020 C.3    58  LEU58       0.0001
     44  N         -7.0290   -0.6300    1.2190 N.3    61  SER61      -0.1202
     45  CA        -8.2020   -0.4020    0.4010 C.3    61  SER61       0.2020
     46  C         -9.4510   -0.2370    1.2460 C.2    61  SER61       0.2618
     47  O         -9.6270   -0.9320    2.2510 O.2    61  SER61      -0.2717
     48  CB        -8.3800   -1.5830   -0.5520 C.3    61  SER61       0.2103
     49  OG        -9.3770   -1.3110   -1.5130 O.3    61  SER61      -0.2182
     50  N        -10.3050    0.6970    0.8270 N.am   62  ASP62      -0.1973
     51  CA       -11.6550    0.8720    1.3780 C.3    62  ASP62       0.1709
     52  C        -12.6100   -0.2120    0.8470 C.2    62  ASP62       0.2293
     53  O        -12.2580   -0.9900   -0.0350 O.2    62  ASP62      -0.2864
     54  CB       -12.1910    2.3000    1.1060 C.3    62  ASP62       0.1436
     55  CG       -12.0820    2.7150   -0.3730 C.2    62  ASP62       0.3671
     56  OD1      -13.1420    2.9690   -1.0200 O.co2  62  ASP62      -0.2456
     57  OD2      -10.9300    2.7900   -0.8900 O.co2  62  ASP62      -0.2456
     58  N        -16.6800   -1.2840   -0.3500 N.3    64  ASP64      -0.1239
     59  CA       -17.9530   -0.8170   -0.8590 C.3    64  ASP64       0.1674
     60  C        -18.9850   -1.9440   -0.8430 C.2    64  ASP64       0.2266
     61  O        -18.9070   -2.8940   -1.6470 O.2    64  ASP64      -0.2867
     62  CB       -17.7650   -0.2260   -2.2590 C.3    64  ASP64       0.1410
     63  CG       -16.9110    1.0400   -2.2490 C.2    64  ASP64       0.3668
     64  OD1      -17.3740    2.0330   -1.6360 O.co2  64  ASP64      -0.2456
     65  OD2      -15.7900    1.0460   -2.8450 O.co2  64  ASP64      -0.2456
     66  N        -28.6930   -0.0700   -3.7700 N.3   121  ASN121     -0.1240
     67  CA       -27.8280    0.5160   -4.7880 C.3   121  ASN121      0.1653
     68  C        -27.5400   -0.4750   -5.9100 C.2   121  ASN121      0.2266
     69  O        -26.3810   -0.8640   -6.1390 O.2   121  ASN121     -0.2867
     70  CB       -26.5050    0.9550   -4.1590 C.3   121  ASN121      0.1155
     71  CG       -25.6950    1.8570   -5.0720 C.2   121  ASN121      0.2627
     72  OD1      -26.0750    2.1100   -6.2190 O.2   121  ASN121     -0.2716
     73  ND2      -24.5690    2.3530   -4.5630 N.am  121  ASN121     -0.0877
     74  N        -24.5690    0.2850   -8.8720 N.3   124  ALA124     -0.1245
     75  CA       -23.1630    0.0230   -8.5140 C.3   124  ALA124      0.1562
     76  C        -22.7610   -1.4390   -8.7260 C.2   124  ALA124      0.2260
     77  O        -21.6450   -1.7230   -9.1740 O.2   124  ALA124     -0.2867
     78  CB       -22.9080    0.4180   -7.0730 C.3   124  ALA124      0.0290
     79  N        -22.2100   -1.7010  -12.4590 N.3   127  ASN127     -0.1225
     80  CA       -20.9550   -1.0070  -12.7760 C.3   127  ASN127      0.1785
     81  C        -19.7690   -1.9300  -12.5170 C.2   127  ASN127      0.2597
     82  O        -18.8450   -2.0250  -13.3260 O.2   127  ASN127     -0.2718
     83  CB       -20.7780    0.2670  -11.9360 C.3   127  ASN127      0.1169
     84  CG       -21.7030    1.4250  -12.3670 C.2   127  ASN127      0.2627
     85  OD1      -22.2680    1.4330  -13.4690 O.2   127  ASN127     -0.2716
     86  ND2      -21.8540    2.4140  -11.4830 N.am  127  ASN127     -0.0877
     87  N        -19.8120   -2.6220  -11.3840 N.am  128  THR128     -0.1953
     88  CA       -18.7540   -3.5540  -10.9950 C.3   128  THR128      0.1897
     89  C        -18.7530   -4.8450  -11.8370 C.2   128  THR128      0.2313
     90  O        -17.6930   -5.3700  -12.1640 O.2   128  THR128     -0.2863
     91  CB       -18.8430   -3.8570   -9.4840 C.3   128  THR128      0.1794
     92  OG1      -18.6450   -2.6330   -8.7570 O.3   128  THR128     -0.2208
     93  CG2      -17.8070   -4.8930   -9.0640 C.3   128  THR128      0.0378
     94  N        -16.9440   -3.8690  -15.1520 N.3   131  LEU131     -0.1245
     95  CA       -15.5000   -3.7790  -14.9560 C.3   131  LEU131      0.1561
     96  C        -14.8750   -5.1220  -14.5870 C.2   131  LEU131      0.2260
     97  O        -13.7410   -5.3810  -14.9850 O.2   131  LEU131     -0.2867
     98  CB       -15.1280   -2.7140  -13.9210 C.3   131  LEU131      0.0270
     99  CG       -15.9080   -1.3880  -13.8680 C.3   131  LEU131      0.0019
    100  CD1      -15.5350   -0.5740  -12.6160 C.3   131  LEU131      0.0001
    101  CD2      -15.7660   -0.5420  -15.1270 C.3   131  LEU131      0.0001
    102  N         -4.2580    4.6010  -10.9180 N.3   149  LYS149     -0.1245
    103  CA        -4.7700    5.0280   -9.6070 C.3   149  LYS149      0.1561
    104  C         -3.6290    5.4240   -8.6740 C.2   149  LYS149      0.2260
    105  O         -3.7190    6.4450   -7.9930 O.2   149  LYS149     -0.2867
    106  CB        -5.6840    3.9800   -8.9580 C.3   149  LYS149      0.0271
    107  CG        -6.9180    3.6010   -9.8030 C.3   149  LYS149      0.0035
    108  CD        -8.0770    3.0530   -8.9710 C.3   149  LYS149      0.0206
    109  CE        -7.7020    1.8300   -8.1580 C.3   149  LYS149      0.1093
    110  NZ        -8.9040    1.1580   -7.5850 N.3   149  LYS149     -0.1314
    111  N         -3.1850    9.3910   -7.2140 N.3   153  LYS153     -0.1245
    112  CA        -3.0540    9.6490   -5.7790 C.3   153  LYS153      0.1561
    113  C         -1.7770   10.4110   -5.4340 C.2   153  LYS153      0.2260
    114  O         -1.8040   11.3520   -4.6500 O.2   153  LYS153     -0.2867
    115  CB        -3.0770    8.3430   -4.9990 C.3   153  LYS153      0.0271
    116  CG        -4.4490    7.9240   -4.4900 C.3   153  LYS153      0.0035
    117  CD        -4.4830    6.4300   -4.1870 C.3   153  LYS153      0.0206
    118  CE        -5.8810    5.9640   -3.8640 C.3   153  LYS153      0.1093
    119  NZ        -6.7650    5.8890   -5.0600 N.3   153  LYS153     -0.1314
    120  N        -12.5050   11.1110   -9.0930 N.3   166  SER166     -0.1202
    121  CA       -12.5720    9.8390   -8.3780 C.3   166  SER166      0.2020
    122  C        -11.8380    8.7140   -9.1110 C.2   166  SER166      0.2619
    123  O        -11.6830    8.7550  -10.3280 O.2   166  SER166     -0.2717
    124  CB       -14.0270    9.4320   -8.1540 C.3   166  SER166      0.2103
    125  OG       -14.6640    9.1180   -9.3730 O.3   166  SER166     -0.2182
    126  N        -11.4120    7.6940   -8.3730 N.am  167  SER167     -0.1937
    127  CA       -10.7710    6.5320   -8.9810 C.3   167  SER167      0.2055
    128  C        -11.6370    5.8490  -10.0310 C.2   167  SER167      0.2643
    129  O        -11.1390    5.4250  -11.0740 O.2   167  SER167     -0.2714
    130  CB       -10.3740    5.5380   -7.9140 C.3   167  SER167      0.2130
    131  OG        -9.4920    6.1460   -6.9900 O.3   167  SER167     -0.2179
    132  N        -12.9370    5.7500   -9.7630 N.am  168  TYR168     -0.1973
    133  CA       -13.8750    5.1870  -10.7300 C.3   168  TYR168      0.1639
    134  C        -13.8270    5.9650  -12.0420 C.2   168  TYR168      0.2290
    135  O        -13.8940    5.3680  -13.1200 O.2   168  TYR168     -0.2864
    136  CB       -15.2850    5.1990  -10.1580 C.3   168  TYR168      0.0560
    137  CG       -16.3650    4.7420  -11.1110 C.ar  168  TYR168     -0.0198
    138  CD1      -16.3420    3.4500  -11.6570 C.ar  168  TYR168     -0.0009
    139  CD2      -17.4370    5.5890  -11.4370 C.ar  168  TYR168     -0.0009
    140  CE1      -17.3360    3.0200  -12.5200 C.ar  168  TYR168      0.0417
    141  CE2      -18.4430    5.1720  -12.2980 C.ar  168  TYR168      0.0417
    142  CZ       -18.3850    3.8880  -12.8410 C.ar  168  TYR168      0.1957
    143  OH       -19.3830    3.4460  -13.6870 O.3   168  TYR168     -0.2866
    144  N        -10.7520    5.0010  -13.9150 N.3   171  VAL171     -0.1245
    145  CA       -10.9510    3.6670  -14.4700 C.3   171  VAL171      0.1561
    146  C        -11.6890    3.8170  -15.7830 C.2   171  VAL171      0.2260
    147  O        -11.2500    3.2650  -16.7900 O.2   171  VAL171     -0.2867
    148  CB       -11.7280    2.7520  -13.5230 C.3   171  VAL171      0.0252
    149  CG1      -12.1880    1.5250  -14.2450 C.3   171  VAL171      0.0019
    150  CG2      -10.8710    2.3840  -12.3190 C.3   171  VAL171      0.0019
    151  N        -21.4200    8.1580  -17.2250 N.3   271  ASP271     -0.1239
    152  CA       -21.4490    6.8010  -16.6650 C.3   271  ASP271      0.1674
    153  C        -21.9940    5.8290  -17.7250 C.2   271  ASP271      0.2266
    154  O        -22.8930    6.1860  -18.4900 O.2   271  ASP271     -0.2867
    155  CB       -22.2950    6.7400  -15.4000 C.3   271  ASP271      0.1410
    156  CG       -22.0600    5.4660  -14.6120 C.2   271  ASP271      0.3668
    157  OD1      -21.0520    5.3950  -13.8940 O.co2 271  ASP271     -0.2456
    158  OD2      -22.8830    4.5260  -14.7100 O.co2 271  ASP271     -0.2456
    159  N        -25.7650    4.6080  -15.7170 N.3   274  GLU274     -0.1245
    160  CA       -26.5080    5.7840  -15.2970 C.3   274  GLU274      0.1567
    161  C        -26.0940    6.9370  -16.2140 C.2   274  GLU274      0.2260
    162  O        -25.2650    7.7720  -15.8350 O.2   274  GLU274     -0.2867
    163  CB       -26.2020    6.1020  -13.8350 C.3   274  GLU274      0.0388
    164  CG       -27.1220    7.1310  -13.1990 C.3   274  GLU274      0.1160
    165  CD       -26.7730    7.3820  -11.7430 C.2   274  GLU274      0.3649
    166  OE1      -27.3160    8.3400  -11.1600 O.co2 274  GLU274     -0.2457
    167  OE2      -25.9460    6.6330  -11.1770 O.co2 274  GLU274     -0.2457
    168  N        -25.6840   10.7170  -15.2790 N.3   277  HIS277     -0.1241
    169  CA       -24.6940   11.1000  -14.2720 C.3   277  HIS277      0.1621
    170  C        -23.3270   11.3900  -14.8790 C.2   277  HIS277      0.2264
    171  O        -22.7220   10.5450  -15.5390 O.2   277  HIS277     -0.2867
    172  CB       -24.5670   10.0030  -13.2170 C.3   277  HIS277      0.0745
    173  CG       -23.4900   10.2530  -12.2040 C.ar  277  HIS277      0.0817
    174  ND1      -23.5650   11.2630  -11.2660 N.ar  277  HIS277     -0.2268
    175  CD2      -22.3180    9.6110  -11.9720 C.ar  277  HIS277      0.1154
    176  CE1      -22.4790   11.2380  -10.5090 C.ar  277  HIS277      0.1986
    177  NE2      -21.7080   10.2470  -10.9180 N.ar  277  HIS277     -0.2212
    178  N        -19.7020   11.4700  -14.2510 N.3   279  VAL279     -0.1245
    179  CA       -18.7900   10.9380  -13.2430 C.3   279  VAL279      0.1561
    180  C        -17.7240   11.9630  -12.8340 C.2   279  VAL279      0.2260
    181  O        -17.3050   11.9980  -11.6750 O.2   279  VAL279     -0.2867
    182  CB       -18.1630    9.5770  -13.6610 C.3   279  VAL279      0.0252
    183  CG1      -17.3790    8.9640  -12.4990 C.3   279  VAL279      0.0019
    184  CG2      -19.2410    8.6080  -14.1220 C.3   279  VAL279      0.0019
    185  N        -18.1600   15.1580  -12.4520 N.3   281  ARG281     -0.1231
    186  CA       -18.8530   16.3710  -12.0080 C.3   281  ARG281      0.1694
    187  C        -18.1720   17.1320  -10.8530 C.2   281  ARG281      0.2592
    188  O        -18.4720   18.3090  -10.5950 O.2   281  ARG281     -0.2718
    189  CB       -20.3210   16.0740  -11.6650 C.3   281  ARG281      0.0321
    190  CG       -20.5590   15.1950  -10.4510 C.3   281  ARG281      0.0489
    191  CD       -22.0020   15.3530   -9.9620 C.3   281  ARG281      0.2205
    192  NE       -22.2770   14.5500   -8.7680 N.pl3 281  ARG281     -0.0865
    193  CZ       -21.8550   14.8330   -7.5290 C.cat 281  ARG281      0.5346
    194  NH1      -21.1220   15.9220   -7.2740 N.pl3 281  ARG281      0.1354
    195  NH2      -22.1690   14.0120   -6.5310 N.pl3 281  ARG281      0.1354
    196  N        -17.2600   16.4540  -10.1700 N.am  282  THR282     -0.1953
    197  CA       -16.5540   17.0100   -9.0360 C.3   282  THR282      0.1897
    198  C        -15.3330   17.8050   -9.5150 C.2   282  THR282      0.2313
    199  O        -14.7010   18.5170   -8.7370 O.2   282  THR282     -0.2863
    200  CB       -16.0770   15.8820   -8.1000 C.3   282  THR282      0.1794
    201  OG1      -15.2420   14.9740   -8.8340 O.3   282  THR282     -0.2208
    202  CG2      -17.2550   15.1090   -7.5100 C.3   282  THR282      0.0378
@<TRIPOS>BOND
     1   154   153    2
     2   153   152    1
     3   151   152    1
     4   147   146    2
     5   152   155    1
     6   161   162    2
     7   161   160    1
     8   146   145    1
     9   159   160    1
    10   171   170    2
    11   155   156    1
    12   160   163    1
    13   168   169    1
    14    94    95    1
    15   101    99    1
    16    97    96    2
    17    95    96    1
    18    95    98    1
    19   170   169    1
    20   158   156   ar
    21   156   157   ar
    22   145   144    1
    23   145   148    1
    24   169   172    1
    25   178   179    1
    26   149   148    1
    27   184   182    1
    28    98    99    1
    29    99   100    1
    30   163   164    1
    31   143   142    1
    32   182   179    1
    33   182   183    1
    34   148   150    1
    35    85    84    2
    36    82    81    2
    37   179   180    1
    38   172   173    1
    39   164   165    1
    40   135   134    2
    41   142   140   ar
    42   142   141   ar
    43   180   181    2
    44    80    81    1
    45    80    79    1
    46    80    83    1
    47   140   138   ar
    48    81    87   am
    49   185   186    1
    50    84    83    1
    51    84    86   am
    52   141   139   ar
    53   173   175   ar
    54   173   174   ar
    55    90    89    2
    56    35    33    1
    57   134   133    1
    58   186   189    1
    59   186   187    1
    60   175   177   ar
    61    89    88    1
    62   165   167   ar
    63   165   166   ar
    64    34    33    1
    65   189   190    1
    66   138   137   ar
    67   139   137   ar
    68    87    88    1
    69   174   176   ar
    70    33    32    1
    71   137   136    1
    72   129   128    2
    73    88    91    1
    74   177   176   ar
    75   102   103    1
    76   187   188    2
    77   187   196   am
    78   133   136    1
    79   133   132    1
    80    25    24    2
    81   190   191    1
    82   123   122    2
    83   196   197    1
    84    26    23    1
    85    26    27    1
    86   128   132   am
    87   128   127    1
    88   191   192    1
    89    32    29    1
    90   107   108    1
    91   107   106    1
    92   103   106    1
    93   103   104    1
    94    24    23    1
    95   198   197    1
    96   198   199    2
    97    91    93    1
    98    91    92    1
    99    23    22    1
   100   125   124    1
   101    77    76    2
   102   122   121    1
   103   122   126   am
   104   120   121    1
   105   197   200    1
   106   127   126    1
   107   127   130    1
   108   108   109    1
   109    29    28    1
   110    29    30    1
   111    74    75    1
   112   201   200    1
   113   192   193    2
   114    76    75    1
   115   104   105    2
   116    75    78    1
   117   121   124    1
   118   109   110    1
   119   200   202    1
   120   130   131    1
   121    30    31    2
   122   193   194    1
   123   193   195    1
   124   111   112    1
   125    15    14    2
   126    13    14    1
   127    13    12    1
   128    19    18    2
   129    14    16   am
   130    12     3   am
   131    72    71    2
   132    69    68    2
   133    16    17    1
   134    17    18    1
   135    17    20    1
   136    43    41    1
   137    68    67    1
   138   112   113    1
   139   112   115    1
   140     5     2    1
   141     5     6    1
   142    41    42    1
   143    41    40    1
   144   113   114    2
   145    21    20    1
   146     8     6   ar
   147     8    10   ar
   148     3     2    1
   149     3     4    2
   150     2     1    1
   151    71    73   am
   152    71    70    1
   153   119   118    1
   154   115   116    1
   155     6     7   ar
   156    67    70    1
   157    67    66    1
   158    36    37    1
   159    10    11   ar
   160   116   117    1
   161   117   118    1
   162    40    37    1
   163    37    38    1
   164     7     9   ar
   165    11     9   ar
   166    65    63   ar
   167    38    39    2
   168    62    63    1
   169    62    59    1
   170    63    64   ar
   171    61    60    2
   172    49    48    1
   173    56    55   ar
   174    57    55   ar
   175    59    60    1
   176    59    58    1
   177    48    45    1
   178    55    54    1
   179    53    52    2
   180    45    44    1
   181    45    46    1
   182    50    46   am
   183    50    51    1
   184    52    51    1
   185    54    51    1
   186    46    47    2
