@<TRIPOS>MOLECULE
tmp/4fhzA00.pdb
 90 87 0 0 0
SMALL
GASTEIGER

@<TRIPOS>ATOM
      1  N        -42.2700    1.4500  -31.0670 N.3    28  TYR28      -0.1227
      2  CA       -42.6720    0.1750  -31.5920 C.3    28  TYR28       0.1736
      3  C        -42.0880   -0.1050  -32.9720 C.2    28  TYR28       0.2596
      4  O        -42.1140    0.7030  -33.8450 O.2    28  TYR28      -0.2718
      5  CB       -44.1740    0.0890  -31.5870 C.3    28  TYR28       0.0548
      6  CG       -44.8090   -1.1560  -32.1350 C.ar   28  TYR28      -0.0200
      7  CD1      -45.1290   -1.2690  -33.4580 C.ar   28  TYR28      -0.0009
      8  CD2      -45.1700   -2.1830  -31.3130 C.ar   28  TYR28      -0.0009
      9  CE1      -45.7510   -2.3630  -33.9350 C.ar   28  TYR28       0.0417
     10  CE2      -45.7750   -3.2770  -31.7950 C.ar   28  TYR28       0.0417
     11  CZ       -46.0720   -3.3610  -33.1010 C.ar   28  TYR28       0.1957
     12  OH       -46.6920   -4.4550  -33.5860 O.3    28  TYR28      -0.2866
     13  N        -41.5310   -1.2950  -33.1110 N.am   29  GLY29      -0.1957
     14  CA       -40.9440   -1.7330  -34.3420 C.3    29  GLY29       0.1869
     15  C        -39.5730   -1.1800  -34.6340 C.2    29  GLY29       0.2309
     16  O        -39.0180   -1.4740  -35.6390 O.2    29  GLY29      -0.2863
     17  N        -45.2740   -6.6350  -35.9930 N.3    62  ALA62      -0.1245
     18  CA       -45.6420   -6.0010  -37.2550 C.3    62  ALA62       0.1562
     19  C        -44.4940   -5.8220  -38.2440 C.2    62  ALA62       0.2260
     20  O        -44.7210   -5.3960  -39.3730 O.2    62  ALA62      -0.2867
     21  CB       -46.3460   -4.6480  -37.0070 C.3    62  ALA62       0.0290
     22  N        -49.5140   -4.0560  -29.8670 N.3    72  ILE72      -0.1245
     23  CA       -50.5030   -2.9960  -30.0530 C.3    72  ILE72       0.1561
     24  C        -51.7230   -3.5750  -30.7650 C.2    72  ILE72       0.2260
     25  O        -51.7310   -3.7100  -31.9880 O.2    72  ILE72      -0.2867
     26  CB       -49.9140   -1.8290  -30.8800 C.3    72  ILE72       0.0252
     27  CG1      -48.7070   -1.2220  -30.1590 C.3    72  ILE72       0.0019
     28  CG2      -50.9630   -0.7630  -31.1360 C.3    72  ILE72       0.0019
     29  CD1      -48.0230   -0.1010  -30.9200 C.3    72  ILE72       0.0001
     30  N        -54.8000   -2.8270  -31.8500 N.3    74  TRP74      -0.1227
     31  CA       -55.4570   -2.2640  -33.0310 C.3    74  TRP74       0.1737
     32  C        -54.6240   -2.4560  -34.2960 C.2    74  TRP74       0.2595
     33  O        -55.1580   -2.4530  -35.4090 O.2    74  TRP74      -0.2718
     34  CB       -55.8050   -0.7790  -32.8420 C.3    74  TRP74       0.0564
     35  CG       -54.6240    0.1720  -32.8370 C.ar   74  TRP74       0.0003
     36  CD1      -53.9980    0.6910  -31.7420 C.ar   74  TRP74       0.0946
     37  CD2      -53.9540    0.7290  -33.9800 C.ar   74  TRP74       0.0152
     38  NE1      -52.9800    1.5280  -32.1290 N.ar   74  TRP74      -0.2442
     39  CE2      -52.9320    1.5680  -33.4970 C.ar   74  TRP74       0.0810
     40  CE3      -54.1190    0.5980  -35.3630 C.ar   74  TRP74       0.0012
     41  CZ2      -52.0740    2.2690  -34.3450 C.ar   74  TRP74       0.0191
     42  CZ3      -53.2660    1.2970  -36.2060 C.ar   74  TRP74       0.0001
     43  CH2      -52.2570    2.1210  -35.6920 C.ar   74  TRP74       0.0015
     44  N        -53.3210   -2.6440  -34.1190 N.am   75  LEU75      -0.1980
     45  CA       -52.3900   -2.7120  -35.2410 C.3    75  LEU75       0.1596
     46  C        -51.9760   -4.1370  -35.6020 C.2    75  LEU75       0.2287
     47  O        -51.9710   -4.5180  -36.7760 O.2    75  LEU75      -0.2864
     48  CB       -51.1440   -1.8750  -34.9350 C.3    75  LEU75       0.0297
     49  CG       -49.9580   -2.0220  -35.8930 C.3    75  LEU75       0.0022
     50  CD1      -50.3630   -1.6530  -37.3090 C.3    75  LEU75       0.0001
     51  CD2      -48.7790   -1.1740  -35.4280 C.3    75  LEU75       0.0001
     52  N        -42.5700    7.6990  -28.5560 N.3   118  SER118     -0.1202
     53  CA       -43.7720    6.9620  -28.8030 C.3   118  SER118      0.2020
     54  C        -43.9520    5.8290  -27.7880 C.2   118  SER118      0.2618
     55  O        -44.0450    6.0940  -26.6350 O.2   118  SER118     -0.2717
     56  CB       -43.8230    6.5080  -30.2650 C.3   118  SER118      0.2103
     57  OG       -45.0970    6.2200  -30.6960 O.3   118  SER118     -0.2182
     58  N        -43.9940    4.5760  -28.2110 N.am  119  GLN119     -0.1979
     59  CA       -44.0900    3.4950  -27.2520 C.3   119  GLN119      0.1601
     60  C        -43.0300    3.6090  -26.1610 C.2   119  GLN119      0.2287
     61  O        -43.2840    3.3230  -25.0430 O.2   119  GLN119     -0.2864
     62  CB       -44.0360    2.1200  -27.9160 C.3   119  GLN119      0.0394
     63  CG       -44.2110    1.0060  -26.9430 C.3   119  GLN119      0.0908
     64  CD       -44.4970   -0.3340  -27.5580 C.2   119  GLN119      0.2608
     65  OE1      -45.6140   -0.7600  -27.6250 O.2   119  GLN119     -0.2717
     66  NE2      -43.4830   -0.9980  -27.9590 N.am  119  GLN119     -0.0878
     67  N        -50.4580    9.2110  -36.0310 N.3   171  VAL171     -0.1231
     68  CA       -50.5970    7.8890  -35.3950 C.3   171  VAL171      0.1692
     69  C        -50.7820    7.9260  -33.8750 C.2   171  VAL171      0.2591
     70  O        -51.4270    7.0530  -33.3060 O.2   171  VAL171     -0.2718
     71  CB       -49.4570    6.9090  -35.7890 C.3   171  VAL171      0.0266
     72  CG1      -49.6040    6.5050  -37.2450 C.3   171  VAL171      0.0020
     73  CG2      -48.0940    7.5290  -35.5350 C.3   171  VAL171      0.0020
     74  N        -50.2100    8.9300  -33.2220 N.am  172  VAL172     -0.1980
     75  CA       -50.5130    9.1880  -31.8180 C.3   172  VAL172      0.1595
     76  C        -51.1250   10.5880  -31.6980 C.2   172  VAL172      0.2287
     77  O        -50.4200   11.5910  -31.8340 O.2   172  VAL172     -0.2864
     78  CB       -49.2720    9.0890  -30.9250 C.3   172  VAL172      0.0276
     79  CG1      -49.6430    9.4060  -29.4700 C.3   172  VAL172      0.0022
     80  CG2      -48.6210    7.6900  -31.0490 C.3   172  VAL172      0.0022
     81  N        -45.4380   12.4290  -36.6940 N.3   201  HIS201     -0.1241
     82  CA       -44.8910   11.4720  -35.7350 C.3   201  HIS201      0.1621
     83  C        -43.3860   11.3030  -35.9650 C.2   201  HIS201      0.2264
     84  O        -42.9410   10.3870  -36.6630 O.2   201  HIS201     -0.2867
     85  CB       -45.6170   10.1300  -35.8780 C.3   201  HIS201      0.0745
     86  CG       -45.4200    9.2060  -34.7220 C.ar  201  HIS201      0.0817
     87  ND1      -45.8510    9.5070  -33.4470 N.ar  201  HIS201     -0.2268
     88  CD2      -44.8440    7.9810  -34.6440 C.ar  201  HIS201      0.1154
     89  CE1      -45.5440    8.5110  -32.6320 C.ar  201  HIS201      0.1986
     90  NE2      -44.9360    7.5710  -33.3350 N.ar  201  HIS201     -0.2212
@<TRIPOS>BOND
     1    20    19    2
     2    19    18    1
     3    50    49    1
     4    18    21    1
     5    18    17    1
     6    72    71    1
     7    47    46    2
     8    81    82    1
     9    84    83    2
    10    42    43   ar
    11    42    40   ar
    12    67    68    1
    13    83    82    1
    14    49    51    1
    15    49    48    1
    16    85    82    1
    17    85    86    1
    18    71    73    1
    19    71    68    1
    20    43    41   ar
    21    16    15    2
    22    46    45    1
    23    33    32    2
    24    68    69    1
    25    40    37   ar
    26    45    48    1
    27    45    44    1
    28    86    88   ar
    29    86    87   ar
    30    88    90   ar
    31    15    14    1
    32    41    39   ar
    33    14    13    1
    34    32    44   am
    35    32    31    1
    36    37    39   ar
    37    37    35   ar
    38     9     7   ar
    39     9    11   ar
    40    69    70    2
    41    69    74   am
    42     4     3    2
    43    12    11    1
    44    39    38   ar
    45     7     6   ar
    46    87    89   ar
    47    90    89   ar
    48    74    75    1
    49    13     3   am
    50    11    10   ar
    51    31    34    1
    52    31    30    1
    53     3     2    1
    54    34    35    1
    55    35    36   ar
    56     6     5    1
    57     6     8   ar
    58    38    36   ar
    59    25    24    2
    60    77    76    2
    61    75    76    1
    62    75    78    1
    63    10     8   ar
    64     2     5    1
    65     2     1    1
    66    28    26    1
    67    80    78    1
    68    78    79    1
    69    29    27    1
    70    26    27    1
    71    26    23    1
    72    24    23    1
    73    57    56    1
    74    56    53    1
    75    23    22    1
    76    53    52    1
    77    53    54    1
    78    58    54   am
    79    58    59    1
    80    66    64   am
    81    62    59    1
    82    62    63    1
    83    54    55    2
    84    65    64    2
    85    64    63    1
    86    59    60    1
    87    60    61    2
