@<TRIPOS>MOLECULE
tmp/4fi1A00.pdb
 202 193 0 0 0
SMALL
GASTEIGER

@<TRIPOS>ATOM
      1  N         25.5830  -32.6590  -24.2520 N.3    46  VAL46      -0.1231
      2  CA        24.3430  -32.1620  -23.6760 C.3    46  VAL46       0.1692
      3  C         24.2340  -30.6330  -23.7860 C.2    46  VAL46       0.2593
      4  O         23.1760  -30.0540  -23.5380 O.2    46  VAL46      -0.2718
      5  CB        24.1850  -32.6400  -22.2070 C.3    46  VAL46       0.0266
      6  CG1       25.2400  -32.0140  -21.2970 C.3    46  VAL46       0.0020
      7  CG2       22.7840  -32.3490  -21.6890 C.3    46  VAL46       0.0020
      8  N         25.3260  -29.9780  -24.1600 N.am   47  GLY47      -0.1942
      9  CA        25.3020  -28.5300  -24.3350 C.3    47  GLY47       0.2014
     10  C         26.6290  -27.9550  -24.7740 C.2    47  GLY47       0.2639
     11  O         27.6380  -28.6660  -24.8540 O.2    47  GLY47      -0.2714
     12  N         26.6190  -26.6560  -25.0600 N.am   48  ARG48      -0.1963
     13  CA        27.8160  -25.9500  -25.4740 C.3    48  ARG48       0.1729
     14  C         27.7240  -24.4630  -25.1490 C.2    48  ARG48       0.2617
     15  O         26.6600  -23.9410  -24.8270 O.2    48  ARG48      -0.2715
     16  CB        28.0910  -26.1690  -26.9720 C.3    48  ARG48       0.0348
     17  CG        26.8970  -25.9910  -27.8730 C.3    48  ARG48       0.0492
     18  CD        27.1370  -26.6340  -29.2360 C.3    48  ARG48       0.2205
     19  NE        28.1710  -25.9360  -29.9980 N.pl3  48  ARG48      -0.0865
     20  CZ        28.8630  -26.4590  -31.0050 C.cat  48  ARG48       0.5346
     21  NH1       28.6500  -27.7070  -31.4060 N.pl3  48  ARG48       0.1354
     22  NH2       29.7810  -25.7280  -31.6070 N.pl3  48  ARG48       0.1354
     23  N         28.8590  -23.7880  -25.2250 N.am   49  GLY49      -0.1940
     24  CA        28.9030  -22.3510  -25.0000 C.3    49  GLY49       0.2014
     25  C         30.1340  -21.7830  -25.6600 C.2    49  GLY49       0.2639
     26  O         30.8920  -22.5170  -26.3030 O.2    49  GLY49      -0.2714
     27  N         30.3420  -20.4820  -25.4780 N.am   50  LYS50      -0.1963
     28  CA        31.4870  -19.7810  -26.0520 C.3    50  LYS50       0.1728
     29  C         32.8210  -20.4160  -25.6440 C.2    50  LYS50       0.2616
     30  O         33.7790  -20.3850  -26.4090 O.2    50  LYS50      -0.2715
     31  CB        31.4450  -18.3090  -25.6420 C.3    50  LYS50       0.0311
     32  CG        32.5200  -17.4350  -26.2720 C.3    50  LYS50       0.0038
     33  CD        32.4650  -16.0250  -25.6830 C.3    50  LYS50       0.0206
     34  CE        33.3810  -15.0550  -26.3920 C.3    50  LYS50       0.1093
     35  NZ        34.8060  -15.3880  -26.2740 N.3    50  LYS50      -0.1314
     36  N         32.8640  -21.0150  -24.4540 N.am   51  TYR51      -0.1960
     37  CA        34.1250  -21.4810  -23.8720 C.3    51  TYR51       0.1771
     38  C         34.2560  -23.0040  -23.7010 C.2    51  TYR51       0.2620
     39  O         35.2840  -23.4910  -23.2120 O.2    51  TYR51      -0.2715
     40  CB        34.3730  -20.7690  -22.5320 C.3    51  TYR51       0.0574
     41  CG        34.4200  -19.2520  -22.6430 C.ar   51  TYR51      -0.0198
     42  CD1       35.5580  -18.5970  -23.1380 C.ar   51  TYR51      -0.0009
     43  CD2       33.3280  -18.4710  -22.2610 C.ar   51  TYR51      -0.0009
     44  CE1       35.6010  -17.2120  -23.2450 C.ar   51  TYR51       0.0417
     45  CE2       33.3620  -17.0850  -22.3610 C.ar   51  TYR51       0.0417
     46  CZ        34.4970  -16.4630  -22.8540 C.ar   51  TYR51       0.1957
     47  OH        34.5270  -15.0870  -22.9500 O.3    51  TYR51      -0.2866
     48  N         33.2360  -23.7570  -24.1130 N.am   52  SER52      -0.1950
     49  CA        33.1720  -25.1750  -23.7670 C.3    52  SER52       0.1924
     50  C         32.2500  -26.0020  -24.6410 C.2    52  SER52       0.2314
     51  O         31.3520  -25.4720  -25.2880 O.2    52  SER52      -0.2863
     52  CB        32.6980  -25.3370  -22.3200 C.3    52  SER52       0.2116
     53  OG        31.3160  -25.0070  -22.1970 O.3    52  SER52      -0.2180
     54  N         30.0250  -29.4590  -23.5430 N.3    54  VAL54      -0.1245
     55  CA        29.6660  -30.1690  -22.3150 C.3    54  VAL54       0.1561
     56  C         29.0200  -31.5230  -22.6170 C.2    54  VAL54       0.2260
     57  O         28.0460  -31.6110  -23.3800 O.2    54  VAL54      -0.2867
     58  CB        28.7610  -29.3060  -21.4010 C.3    54  VAL54       0.0252
     59  CG1       28.4630  -30.0260  -20.0920 C.3    54  VAL54       0.0019
     60  CG2       29.4220  -27.9610  -21.1140 C.3    54  VAL54       0.0019
     61  N         28.2990  -34.1960  -15.5070 N.3    67  VAL67      -0.1245
     62  CA        28.6750  -33.5800  -16.7830 C.3    67  VAL67       0.1561
     63  C         30.1620  -33.2810  -16.7740 C.2    67  VAL67       0.2260
     64  O         30.7580  -33.0970  -15.7110 O.2    67  VAL67      -0.2867
     65  CB        27.8640  -32.3060  -17.1580 C.3    67  VAL67       0.0252
     66  CG1       26.3720  -32.6070  -17.2180 C.3    67  VAL67       0.0019
     67  CG2       28.1540  -31.1460  -16.2120 C.3    67  VAL67       0.0019
     68  N         32.8270  -30.6040  -18.5650 N.3    69  LYS69      -0.1245
     69  CA        32.9560  -29.3720  -19.3350 C.3    69  LYS69       0.1561
     70  C         34.3720  -29.3180  -19.9130 C.2    69  LYS69       0.2260
     71  O         35.3390  -29.0700  -19.1940 O.2    69  LYS69      -0.2867
     72  CB        32.6470  -28.1590  -18.4410 C.3    69  LYS69       0.0271
     73  CG        32.6370  -26.8090  -19.1440 C.3    69  LYS69       0.0035
     74  CD        32.3330  -25.6760  -18.1720 C.3    69  LYS69       0.0206
     75  CE        32.5340  -24.3120  -18.8270 C.3    69  LYS69       0.1093
     76  NZ        32.2010  -23.1710  -17.9300 N.3    69  LYS69      -0.1314
     77  N         25.9770  -24.6640   -8.6340 N.3   134  ILE134     -0.1245
     78  CA        26.4160  -25.9490   -9.1900 C.3   134  ILE134      0.1561
     79  C         27.6320  -26.4690   -8.4180 C.2   134  ILE134      0.2260
     80  O         28.4750  -25.6750   -7.9970 O.2   134  ILE134     -0.2867
     81  CB        26.7010  -25.8570  -10.7190 C.3   134  ILE134      0.0252
     82  CG1       26.7000  -27.2490  -11.3690 C.3   134  ILE134      0.0019
     83  CG2       27.9860  -25.0800  -11.0250 C.3   134  ILE134      0.0019
     84  CD1       25.3150  -27.8570  -11.5330 C.3   134  ILE134      0.0001
     85  N         31.1140  -31.7540  -13.1380 N.3   152  PHE152     -0.1227
     86  CA        30.0540  -31.1490  -12.3340 C.3   152  PHE152      0.1736
     87  C         28.8990  -32.1210  -12.0890 C.2   152  PHE152      0.2595
     88  O         28.6730  -33.0690  -12.8540 O.2   152  PHE152     -0.2718
     89  CB        29.4310  -29.9500  -13.0580 C.3   152  PHE152      0.0547
     90  CG        30.3460  -28.7790  -13.2470 C.ar  152  PHE152     -0.0202
     91  CD1       30.4200  -27.7720  -12.2840 C.ar  152  PHE152     -0.0042
     92  CD2       31.0760  -28.6360  -14.4190 C.ar  152  PHE152     -0.0042
     93  CE1       31.2460  -26.6700  -12.4680 C.ar  152  PHE152     -0.0003
     94  CE2       31.8950  -27.5260  -14.6150 C.ar  152  PHE152     -0.0003
     95  CZ        31.9800  -26.5460  -13.6390 C.ar  152  PHE152     -0.0000
     96  N         28.1750  -31.8450  -11.0120 N.am  153  GLU153     -0.1965
     97  CA        26.8020  -32.2740  -10.8180 C.3   153  GLU153      0.1733
     98  C         25.9940  -32.1360  -12.1150 C.2   153  GLU153      0.2616
     99  O         26.0400  -31.1020  -12.7830 O.2   153  GLU153     -0.2715
    100  CB        26.2110  -31.3900   -9.7140 C.3   153  GLU153      0.0429
    101  CG        24.7050  -31.4460   -9.5170 C.3   153  GLU153      0.1163
    102  CD        24.2240  -30.3590   -8.5680 C.2   153  GLU153      0.3649
    103  OE1       25.0460  -29.4880   -8.1740 O.co2 153  GLU153     -0.2457
    104  OE2       23.0270  -30.3730   -8.2160 O.co2 153  GLU153     -0.2457
    105  N         25.2740  -33.1920  -12.4810 N.am  154  TYR154     -0.1960
    106  CA        24.3640  -33.1540  -13.6320 C.3   154  TYR154      0.1771
    107  C         23.0170  -32.5400  -13.2550 C.2   154  TYR154      0.2619
    108  O         22.4610  -32.8560  -12.2010 O.2   154  TYR154     -0.2715
    109  CB        24.1550  -34.5720  -14.1850 C.3   154  TYR154      0.0574
    110  CG        23.0740  -34.6890  -15.2440 C.ar  154  TYR154     -0.0198
    111  CD1       23.3670  -34.4960  -16.5910 C.ar  154  TYR154     -0.0009
    112  CD2       21.7530  -34.9930  -14.8920 C.ar  154  TYR154     -0.0009
    113  CE1       22.3820  -34.6060  -17.5660 C.ar  154  TYR154      0.0417
    114  CE2       20.7610  -35.1090  -15.8590 C.ar  154  TYR154      0.0417
    115  CZ        21.0830  -34.9130  -17.1940 C.ar  154  TYR154      0.1957
    116  OH        20.1060  -35.0180  -18.1540 O.3   154  TYR154     -0.2866
    117  N         22.4970  -31.6650  -14.1150 N.am  155  VAL155     -0.1977
    118  CA        21.1200  -31.1890  -13.9910 C.3   155  VAL155      0.1596
    119  C         20.3420  -31.5070  -15.2740 C.2   155  VAL155      0.2287
    120  O         20.8170  -31.2480  -16.3750 O.2   155  VAL155     -0.2864
    121  CB        21.0230  -29.6750  -13.6720 C.3   155  VAL155      0.0276
    122  CG1       19.5680  -29.2630  -13.4840 C.3   155  VAL155      0.0022
    123  CG2       21.8300  -29.3290  -12.4260 C.3   155  VAL155      0.0022
    124  N         18.1960  -30.4860  -17.6610 N.3   157  ASN157     -0.1240
    125  CA        17.7640  -29.1590  -18.0820 C.3   157  ASN157      0.1653
    126  C         17.2070  -29.1500  -19.5020 C.2   157  ASN157      0.2266
    127  O         17.6820  -29.8740  -20.3710 O.2   157  ASN157     -0.2867
    128  CB        18.9350  -28.1670  -17.9600 C.3   157  ASN157      0.1155
    129  CG        18.5930  -26.7720  -18.4670 C.2   157  ASN157      0.2627
    130  OD1       19.0730  -26.3470  -19.5200 O.2   157  ASN157     -0.2716
    131  ND2       17.7680  -26.0580  -17.7290 N.am  157  ASN157     -0.0877
    132  N         27.8310  -13.2380  -15.6270 N.3   195  ASP195     -0.1239
    133  CA        27.2740  -13.8420  -16.8490 C.3   195  ASP195      0.1674
    134  C         25.9130  -14.4570  -16.5740 C.2   195  ASP195      0.2266
    135  O         25.6210  -15.5770  -17.0090 O.2   195  ASP195     -0.2867
    136  CB        28.2460  -14.8730  -17.4600 C.3   195  ASP195      0.1410
    137  CG        28.0070  -15.1120  -18.9670 C.2   195  ASP195      0.3668
    138  OD1       27.2970  -14.3110  -19.6270 O.co2 195  ASP195     -0.2456
    139  OD2       28.5420  -16.1140  -19.4930 O.co2 195  ASP195     -0.2456
    140  N         22.3250  -15.2240  -17.0930 N.3   197  LYS197     -0.1245
    141  CA        21.4210  -15.3580  -18.2470 C.3   197  LYS197      0.1561
    142  C         20.8300  -16.7700  -18.2830 C.2   197  LYS197      0.2260
    143  O         21.3910  -17.6820  -17.6690 O.2   197  LYS197     -0.2867
    144  CB        22.1590  -15.0700  -19.5530 C.3   197  LYS197      0.0271
    145  CG        23.2920  -16.0240  -19.8700 C.3   197  LYS197      0.0035
    146  CD        24.3490  -15.2910  -20.6640 C.3   197  LYS197      0.0206
    147  CE        24.7890  -16.0770  -21.8760 C.3   197  LYS197      0.1093
    148  NZ        23.7050  -16.0190  -22.8900 N.3   197  LYS197     -0.1314
    149  N         20.8350  -19.3800  -20.2610 N.3   199  HIS199     -0.1226
    150  CA        21.6890  -20.5190  -20.6180 C.3   199  HIS199      0.1752
    151  C         22.6000  -20.9210  -19.4920 C.2   199  HIS199      0.2596
    152  O         23.1500  -22.0200  -19.4980 O.2   199  HIS199     -0.2718
    153  CB        22.5420  -20.2200  -21.8640 C.3   199  HIS199      0.0759
    154  CG        21.8330  -20.4540  -23.1840 C.ar  199  HIS199      0.0818
    155  ND1       20.8290  -21.3420  -23.3290 N.ar  199  HIS199     -0.2268
    156  CD2       22.0580  -19.9080  -24.4510 C.ar  199  HIS199      0.1154
    157  CE1       20.4150  -21.3480  -24.6180 C.ar  199  HIS199      0.1986
    158  NE2       21.1640  -20.4690  -25.3010 N.ar  199  HIS199     -0.2212
    159  N         22.7740  -20.0250  -18.5220 N.am  200  ASN200     -0.1974
    160  CA        23.6360  -20.2750  -17.3660 C.3   200  ASN200      0.1688
    161  C         22.8460  -20.5830  -16.0920 C.2   200  ASN200      0.2292
    162  O         23.3970  -20.5840  -14.9860 O.2   200  ASN200     -0.2864
    163  CB        24.5950  -19.0890  -17.1680 C.3   200  ASN200      0.1181
    164  CG        25.6640  -19.0190  -18.2560 C.2   200  ASN200      0.2629
    165  OD1       25.9470  -20.0110  -18.9220 O.2   200  ASN200     -0.2716
    166  ND2       26.2700  -17.8440  -18.4280 N.am  200  ASN200     -0.0877
    167  N         20.5110  -23.6020  -14.9110 N.3   202  MET202     -0.1245
    168  CA        19.9610  -24.9400  -15.1270 C.3   202  MET202      0.1570
    169  C         18.7170  -25.1200  -14.2670 C.2   202  MET202      0.2261
    170  O         18.7240  -24.7870  -13.0760 O.2   202  MET202     -0.2867
    171  CB        20.9980  -26.0180  -14.8040 C.3   202  MET202      0.0387
    172  CG        22.2490  -25.9770  -15.6740 C.3   202  MET202      0.0595
    173  SD        21.9230  -26.2220  -17.4340 S.3   202  MET202     -0.1393
    174  CE        21.7180  -24.5440  -18.0440 C.3   202  MET202      0.0692
    175  N         25.0790  -21.9540  -12.9470 N.3   213  ILE213     -0.1231
    176  CA        26.2900  -22.5730  -13.4720 C.3   213  ILE213      0.1692
    177  C         27.1590  -21.5230  -14.1660 C.2   213  ILE213      0.2592
    178  O         26.8500  -20.3320  -14.1280 O.2   213  ILE213     -0.2718
    179  CB        25.9660  -23.7140  -14.4730 C.3   213  ILE213      0.0266
    180  CG1       25.3660  -23.1460  -15.7660 C.3   213  ILE213      0.0019
    181  CG2       25.0440  -24.7520  -13.8400 C.3   213  ILE213      0.0020
    182  CD1       25.4170  -24.0980  -16.9490 C.3   213  ILE213      0.0001
    183  N         28.2320  -21.9890  -14.8030 N.am  214  ASP214     -0.1974
    184  CA        29.1140  -21.1700  -15.6340 C.3   214  ASP214      0.1709
    185  C         29.7580  -20.0370  -14.8620 C.2   214  ASP214      0.2293
    186  O         29.3430  -18.8690  -14.9510 O.2   214  ASP214     -0.2864
    187  CB        28.3930  -20.6220  -16.8600 C.3   214  ASP214      0.1436
    188  CG        29.3610  -20.2040  -17.9670 C.2   214  ASP214      0.3671
    189  OD1       30.5850  -20.3930  -17.8150 O.co2 214  ASP214     -0.2456
    190  OD2       28.8930  -19.7050  -19.0080 O.co2 214  ASP214     -0.2456
    191  N         32.8960  -19.2370  -15.2190 N.3   216  GLY216     -0.1210
    192  CA        34.1120  -18.9400  -15.9890 C.3   216  GLY216      0.1956
    193  C         34.4190  -17.4740  -16.2410 C.2   216  GLY216      0.2611
    194  O         35.5500  -17.1320  -16.5830 O.2   216  GLY216     -0.2717
    195  N         33.4180  -16.6130  -16.0730 N.am  217  LEU217     -0.1979
    196  CA        33.6270  -15.1790  -16.1530 C.3   217  LEU217      0.1596
    197  C         33.5300  -14.4770  -14.7940 C.2   217  LEU217      0.2287
    198  O         33.7080  -13.2660  -14.7170 O.2   217  LEU217     -0.2864
    199  CB        32.6640  -14.5390  -17.1630 C.3   217  LEU217      0.0297
    200  CG        32.8780  -14.9460  -18.6250 C.3   217  LEU217      0.0022
    201  CD1       31.7540  -14.3810  -19.4880 C.3   217  LEU217      0.0001
    202  CD2       34.2420  -14.4670  -19.1300 C.3   217  LEU217      0.0001
@<TRIPOS>BOND
     1    22    20    1
     2    21    20    1
     3    20    19    2
     4    19    18    1
     5    18    17    1
     6    17    16    1
     7    16    13    1
     8    30    29    2
     9    34    35    1
    10    34    33    1
    11    26    25    2
    12    32    33    1
    13    32    31    1
    14    28    29    1
    15    28    31    1
    16    28    27    1
    17    25    27   am
    18    25    24    1
    19    29    36   am
    20    13    14    1
    21    13    12    1
    22   158   157   ar
    23   158   156   ar
    24    51    50    2
    25    23    14   am
    26    23    24    1
    27    14    15    2
    28    12    10   am
    29    11    10    2
    30    10     9    1
    31    50    49    1
    32   157   155   ar
    33    36    37    1
    34   156   154   ar
    35     9     8    1
    36     1     2    1
    37     8     3   am
    38    48    49    1
    39    48    38   am
    40    37    38    1
    41    37    40    1
    42     3     2    1
    43     3     4    2
    44    49    52    1
    45    38    39    2
    46     2     5    1
    47    54    55    1
    48    57    56    2
    49   155   154   ar
    50    44    42   ar
    51    44    46   ar
    52   154   153    1
    53    42    41   ar
    54    47    46    1
    55   148   147    1
    56    46    45   ar
    57    41    40    1
    58    41    43   ar
    59    56    55    1
    60    45    43   ar
    61    52    53    1
    62    55    58    1
    63     5     7    1
    64     5     6    1
    65   147   146    1
    66   153   150    1
    67    58    60    1
    68    58    59    1
    69   146   145    1
    70   150   149    1
    71   150   151    1
    72   127   126    2
    73    70    69    1
    74    70    71    2
    75   145   144    1
    76   138   137   ar
    77   144   141    1
    78   130   129    2
    79   126   125    1
    80   152   151    2
    81   139   137   ar
    82   151   159   am
    83   201   200    1
    84    69    68    1
    85    69    72    1
    86    73    72    1
    87    73    74    1
    88   202   200    1
    89   190   188   ar
    90   137   136    1
    91   165   164    2
    92    75    74    1
    93    75    76    1
    94   200   199    1
    95   159   160    1
    96   129   128    1
    97   129   131   am
    98   166   164   am
    99   142   141    1
   100   142   143    2
   101   164   163    1
   102   141   140    1
   103   116   115    1
   104   125   128    1
   105   125   124    1
   106   174   173    1
   107   188   189   ar
   108   188   187    1
   109   113   115   ar
   110   113   111   ar
   111   136   133    1
   112   173   172    1
   113   160   163    1
   114   160   161    1
   115    66    65    1
   116   115   114   ar
   117   199   196    1
   118    65    62    1
   119    65    67    1
   120   135   134    2
   121   182   180    1
   122   187   184    1
   123   133   134    1
   124   133   132    1
   125    62    63    1
   126    62    61    1
   127    63    64    2
   128   111   110   ar
   129   194   193    2
   130   120   119    2
   131   193   195   am
   132   193   192    1
   133   196   195    1
   134   196   197    1
   135   161   162    2
   136   192   191    1
   137   114   112   ar
   138   180   179    1
   139   172   171    1
   140   184   185    1
   141   184   183    1
   142   119   118    1
   143   110   112   ar
   144   110   109    1
   145   168   167    1
   146   168   171    1
   147   168   169    1
   148   186   185    2
   149   183   177   am
   150   197   198    2
   151    94    92   ar
   152    94    95   ar
   153   179   181    1
   154   179   176    1
   155    92    90   ar
   156   169   170    2
   157   109   106    1
   158   177   178    2
   159   177   176    1
   160   117   118    1
   161   117   107   am
   162   118   121    1
   163   121   122    1
   164   121   123    1
   165    95    93   ar
   166   106   107    1
   167   106   105    1
   168   176   175    1
   169   107   108    2
   170    90    89    1
   171    90    91   ar
   172    85    86    1
   173    89    86    1
   174    88    87    2
   175    99    98    2
   176   105    98   am
   177    93    91   ar
   178    86    87    1
   179    98    97    1
   180    87    96   am
   181    84    82    1
   182    82    81    1
   183    83    81    1
   184    96    97    1
   185    97   100    1
   186    81    78    1
   187   100   101    1
   188   101   102    1
   189    78    77    1
   190    78    79    1
   191   102   104   ar
   192   102   103   ar
   193    79    80    2
