@<TRIPOS>MOLECULE
tmp/4fi7B00.pdb
 86 78 0 0 0
SMALL
GASTEIGER

@<TRIPOS>ATOM
      1  N         -1.9960  -11.4090  -32.3840 N.3     4  MET4       -0.1245
      2  CA        -0.7810  -10.6110  -32.4960 C.3     4  MET4        0.1570
      3  C         -0.3070  -10.2560  -31.0920 C.2     4  MET4        0.2261
      4  O         -1.1330  -10.0510  -30.2160 O.2     4  MET4       -0.2867
      5  CB        -1.0560   -9.2930  -33.2770 C.3     4  MET4        0.0387
      6  CG         0.2630   -8.5670  -33.7110 C.3     4  MET4        0.0595
      7  SD         0.7970   -7.2630  -32.6170 S.3     4  MET4       -0.1393
      8  CE         0.0230   -5.8240  -33.3080 C.3     4  MET4        0.0692
      9  N          2.3160   -7.5420  -28.9950 N.3     6  LYS6       -0.1245
     10  CA         3.0260   -6.2920  -29.0860 C.3     6  LYS6        0.1561
     11  C          3.7280   -6.0850  -27.7760 C.2     6  LYS6        0.2260
     12  O          3.0770   -6.1690  -26.6910 O.2     6  LYS6       -0.2867
     13  CB         1.9840   -5.2130  -29.2830 C.3     6  LYS6        0.0271
     14  CG         2.5890   -3.8510  -29.0620 C.3     6  LYS6        0.0035
     15  CD         3.3690   -3.3720  -30.2400 C.3     6  LYS6        0.0206
     16  CE         2.6930   -2.0510  -30.6040 C.3     6  LYS6        0.1093
     17  NZ         2.2700   -1.9950  -31.9930 N.3     6  LYS6       -0.1314
     18  N          6.3870   -3.5240  -25.4690 N.3     8  LEU8       -0.1245
     19  CA         6.9870   -2.2070  -25.3380 C.3     8  LEU8        0.1561
     20  C          7.8880   -2.1570  -24.1300 C.2     8  LEU8        0.2260
     21  O          7.6510   -2.8650  -23.1500 O.2     8  LEU8       -0.2867
     22  CB         5.8880   -1.1250  -25.2070 C.3     8  LEU8        0.0270
     23  CG         4.9530   -0.9460  -26.3820 C.3     8  LEU8        0.0019
     24  CD1        3.8780    0.0850  -26.0730 C.3     8  LEU8        0.0001
     25  CD2        5.7280   -0.5620  -27.6390 C.3     8  LEU8        0.0001
     26  N          6.5990   -6.2100  -32.4890 N.3    45  GLU45      -0.1245
     27  CA         5.4130   -6.9530  -32.8110 C.3    45  GLU45       0.1567
     28  C          5.7820   -8.3380  -33.2650 C.2    45  GLU45       0.2260
     29  O          6.8200   -8.5490  -33.9080 O.2    45  GLU45      -0.2867
     30  CB         4.6320   -6.2430  -33.9560 C.3    45  GLU45       0.0388
     31  CG         4.0870   -4.8830  -33.5550 C.3    45  GLU45       0.1160
     32  CD         3.4770   -4.0470  -34.6880 C.2    45  GLU45       0.3649
     33  OE1        3.3520   -4.5710  -35.8100 O.co2  45  GLU45      -0.2457
     34  OE2        3.1200   -2.8570  -34.4250 O.co2  45  GLU45      -0.2457
     35  N         -5.1830   -8.7290  -30.0190 N.3    97  THR97      -0.1218
     36  CA        -3.8460   -8.2320  -29.8380 C.3    97  THR97       0.1862
     37  C         -3.5600   -8.2450  -28.3460 C.2    97  THR97       0.2287
     38  O         -4.3080   -7.6760  -27.5320 O.2    97  THR97      -0.2866
     39  CB        -3.6770   -6.8160  -30.3930 C.3    97  THR97       0.1770
     40  OG1       -3.8910   -6.8290  -31.8040 O.3    97  THR97      -0.2211
     41  CG2       -2.3070   -6.2520  -30.0400 C.3    97  THR97       0.0375
     42  N         -0.9580   -6.9750  -25.7060 N.3    99  ALA99      -0.1231
     43  CA         0.1060   -5.9660  -25.5490 C.3    99  ALA99       0.1694
     44  C          0.6730   -6.0670  -24.1520 C.2    99  ALA99       0.2592
     45  O         -0.0650   -6.2780  -23.1900 O.2    99  ALA99      -0.2718
     46  CB        -0.4340   -4.5820  -25.8300 C.3    99  ALA99       0.0304
     47  N          1.9590   -5.8260  -24.0210 N.am  100  ALA100     -0.1966
     48  CA         2.6450   -5.8010  -22.7350 C.3   100  ALA100      0.1728
     49  C          3.6310   -4.6650  -22.7390 C.2   100  ALA100      0.2616
     50  O          4.3340   -4.4190  -23.6950 O.2   100  ALA100     -0.2715
     51  CB         3.3560   -7.0870  -22.4500 C.3   100  ALA100      0.0334
     52  N          3.6560   -3.9490  -21.6170 N.am  101  LEU101     -0.1977
     53  CA         4.5550   -2.8250  -21.3790 C.3   101  LEU101      0.1596
     54  C          5.4660   -3.2060  -20.2180 C.2   101  LEU101      0.2287
     55  O          4.9710   -3.4700  -19.1080 O.2   101  LEU101     -0.2864
     56  CB         3.7530   -1.5750  -21.0630 C.3   101  LEU101      0.0297
     57  CG         4.5540   -0.3520  -20.6490 C.3   101  LEU101      0.0022
     58  CD1        5.4920    0.1000  -21.7600 C.3   101  LEU101      0.0001
     59  CD2        3.5690    0.8000  -20.2040 C.3   101  LEU101      0.0001
     60  N          2.6890   -4.2770  -17.3340 N.3   108  SER108     -0.1202
     61  CA         1.2820   -4.0530  -17.6440 C.3   108  SER108      0.2020
     62  C          0.9350   -4.8880  -18.8770 C.2   108  SER108      0.2619
     63  O          1.7560   -5.0360  -19.7670 O.2   108  SER108     -0.2717
     64  CB         1.0650   -2.5450  -17.9110 C.3   108  SER108      0.2103
     65  OG        -0.2670   -2.2140  -18.3000 O.3   108  SER108     -0.2182
     66  N         -0.2820   -5.4040  -18.9230 N.am  109  THR109     -0.1938
     67  CA        -0.7560   -6.0780  -20.1000 C.3   109  THR109      0.2028
     68  C         -2.1980   -5.7820  -20.3690 C.2   109  THR109      0.2642
     69  O         -2.9700   -5.6230  -19.4310 O.2   109  THR109     -0.2714
     70  CB        -0.4700   -7.5870  -20.0030 C.3   109  THR109      0.1808
     71  OG1       -0.7230   -8.2240  -21.2500 O.3   109  THR109     -0.2208
     72  CG2       -1.3140   -8.2320  -18.9350 C.3   109  THR109      0.0379
     73  N         -2.5800   -5.6930  -21.6200 N.am  110  THR110     -0.1950
     74  CA        -3.9290   -5.4600  -22.0070 C.3   110  THR110      0.1897
     75  C         -4.2260   -6.2680  -23.2780 C.2   110  THR110      0.2313
     76  O         -3.3620   -6.7860  -23.9410 O.2   110  THR110     -0.2863
     77  CB        -4.2280   -3.9550  -22.2100 C.3   110  THR110      0.1794
     78  OG1       -5.6630   -3.7790  -22.2190 O.3   110  THR110     -0.2208
     79  CG2       -3.6100   -3.4230  -23.4700 C.3   110  THR110      0.0378
     80  N         -6.5450   -6.0240  -26.8170 N.3   112  VAL112     -0.1245
     81  CA        -7.3540   -5.2230  -27.7630 C.3   112  VAL112      0.1561
     82  C         -8.0030   -6.2330  -28.6840 C.2   112  VAL112      0.2260
     83  O         -7.3250   -6.9430  -29.4360 O.2   112  VAL112     -0.2867
     84  CB        -6.4510   -4.1750  -28.4950 C.3   112  VAL112      0.0252
     85  CG1       -7.2760   -3.2180  -29.3940 C.3   112  VAL112      0.0019
     86  CG2       -5.5620   -3.3820  -27.4510 C.3   112  VAL112      0.0019
@<TRIPOS>BOND
     1    33    32   ar
     2    32    34   ar
     3    32    31    1
     4    30    31    1
     5    30    27    1
     6    29    28    2
     7     6     5    1
     8     6     7    1
     9     8     7    1
    10     5     2    1
    11    28    27    1
    12    27    26    1
    13     2     1    1
    14     2     3    1
    15    17    16    1
    16    40    39    1
    17     3     4    2
    18    16    15    1
    19    39    41    1
    20    39    36    1
    21    15    14    1
    22    35    36    1
    23    36    37    1
    24    83    82    2
    25    85    84    1
    26    13    10    1
    27    13    14    1
    28    10     9    1
    29    10    11    1
    30    82    81    1
    31    84    81    1
    32    84    86    1
    33    37    38    2
    34    11    12    2
    35    81    80    1
    36    25    23    1
    37    23    24    1
    38    23    22    1
    39    46    43    1
    40    42    43    1
    41    43    44    1
    42    18    19    1
    43    19    22    1
    44    19    20    1
    45    44    47   am
    46    44    45    2
    47    20    21    2
    48    47    48    1
    49    76    75    2
    50    50    49    2
    51    79    77    1
    52    75    74    1
    53    49    48    1
    54    49    52   am
    55    48    51    1
    56    78    77    1
    57    77    74    1
    58    74    73    1
    59    58    57    1
    60    73    68   am
    61    52    53    1
    62    53    56    1
    63    53    54    1
    64    71    70    1
    65    56    57    1
    66    57    59    1
    67    68    67    1
    68    68    69    2
    69    54    55    2
    70    67    70    1
    71    67    66    1
    72    70    72    1
    73    63    62    2
    74    66    62   am
    75    62    61    1
    76    65    64    1
    77    64    61    1
    78    61    60    1
