@<TRIPOS>MOLECULE
tmp/4fiaA01.pdb
 201 194 0 0 0
SMALL
GASTEIGER

@<TRIPOS>ATOM
      1  N         -3.9070   17.6320  -23.5670 N.3    23  VAL23      -0.1231
      2  CA        -3.5670   19.0120  -23.2070 C.3    23  VAL23       0.1692
      3  C         -2.0940   19.2200  -23.5590 C.2    23  VAL23       0.2592
      4  O         -1.2400   18.4070  -23.1780 O.2    23  VAL23      -0.2718
      5  CB        -3.8430   19.3090  -21.6940 C.3    23  VAL23       0.0266
      6  CG1       -3.1870   18.2610  -20.7900 C.3    23  VAL23       0.0020
      7  CG2       -3.4060   20.7350  -21.3060 C.3    23  VAL23       0.0020
      8  N         -1.8030   20.2910  -24.2950 N.am   24  PHE24      -0.1976
      9  CA        -0.4360   20.5570  -24.7730 C.3    24  PHE24       0.1639
     10  C          0.0210   19.4700  -25.7340 C.2    24  PHE24       0.2290
     11  O          1.2280   19.2320  -25.8910 O.2    24  PHE24      -0.2864
     12  CB         0.5390   20.6040  -23.5950 C.3    24  PHE24       0.0560
     13  CG         0.6270   21.9300  -22.9400 C.ar   24  PHE24      -0.0200
     14  CD1       -0.5150   22.7130  -22.7680 C.ar   24  PHE24      -0.0042
     15  CD2        1.8550   22.3920  -22.4740 C.ar   24  PHE24      -0.0042
     16  CE1       -0.4350   23.9350  -22.1700 C.ar   24  PHE24      -0.0003
     17  CE2        1.9540   23.6190  -21.8570 C.ar   24  PHE24      -0.0003
     18  CZ         0.8100   24.3970  -21.7130 C.ar   24  PHE24      -0.0000
     19  N          4.6680   18.1120   -8.9600 N.3    48  LYS48      -0.1245
     20  CA         4.3790   18.6310  -10.2940 C.3    48  LYS48       0.1561
     21  C          5.0020   17.7630  -11.3790 C.2    48  LYS48       0.2260
     22  O          6.0030   17.0830  -11.1410 O.2    48  LYS48      -0.2867
     23  CB         4.8690   20.0800  -10.4460 C.3    48  LYS48       0.0271
     24  CG         4.0180   21.1070   -9.7280 C.3    48  LYS48       0.0035
     25  CD         4.5160   22.5290   -9.9930 C.3    48  LYS48       0.0206
     26  CE         3.6020   23.5320   -9.3460 C.3    48  LYS48       0.1093
     27  NZ         3.8560   24.9040   -9.8200 N.3    48  LYS48      -0.1314
     28  N          4.6920   18.7690  -18.0870 N.3    52  MET52      -0.1230
     29  CA         3.6460   19.7500  -18.3590 C.3    52  MET52       0.1702
     30  C          4.1310   21.2000  -18.2220 C.2    52  MET52       0.2592
     31  O          3.5200   22.1290  -18.7780 O.2    52  MET52      -0.2718
     32  CB         2.4110   19.5030  -17.4780 C.3    52  MET52       0.0401
     33  CG         1.6330   18.2060  -17.7590 C.3    52  MET52       0.0596
     34  SD         1.3600   17.7110  -19.4830 S.3    52  MET52      -0.1393
     35  CE         0.5890   19.1240  -20.2560 C.3    52  MET52       0.0692
     36  N          5.2250   21.3840  -17.4900 N.am   53  TYR53      -0.1976
     37  CA         5.7390   22.7150  -17.1780 C.3    53  TYR53       0.1639
     38  C          6.8780   23.1510  -18.0830 C.2    53  TYR53       0.2290
     39  O          7.3300   24.3100  -18.0210 O.2    53  TYR53      -0.2864
     40  CB         6.1370   22.7940  -15.6960 C.3    53  TYR53       0.0560
     41  CG         4.9130   22.8800  -14.8040 C.ar   53  TYR53      -0.0198
     42  CD1        4.3480   21.7300  -14.2400 C.ar   53  TYR53      -0.0009
     43  CD2        4.2940   24.1130  -14.5620 C.ar   53  TYR53      -0.0009
     44  CE1        3.2030   21.8070  -13.4430 C.ar   53  TYR53       0.0417
     45  CE2        3.1530   24.2060  -13.7670 C.ar   53  TYR53       0.0417
     46  CZ         2.6020   23.0540  -13.2160 C.ar   53  TYR53       0.1957
     47  OH         1.4760   23.1460  -12.4260 O.3    53  TYR53      -0.2866
     48  N          6.8240   24.0130  -20.9860 N.3    55  ALA55      -0.1231
     49  CA         6.3970   25.1840  -21.7660 C.3    55  ALA55       0.1694
     50  C          6.4810   26.5400  -21.0280 C.2    55  ALA55       0.2591
     51  O          6.1570   27.5880  -21.5990 O.2    55  ALA55      -0.2718
     52  CB         5.0080   24.9720  -22.2960 C.3    55  ALA55       0.0304
     53  N          6.8970   26.5110  -19.7660 N.am   56  LEU56      -0.1980
     54  CA         7.1840   27.7380  -19.0280 C.3    56  LEU56       0.1596
     55  C          8.6910   27.8570  -18.8330 C.2    56  LEU56       0.2287
     56  O          9.2550   28.9510  -18.9210 O.2    56  LEU56      -0.2864
     57  CB         6.4770   27.7610  -17.6640 C.3    56  LEU56       0.0297
     58  CG         4.9850   28.0740  -17.5270 C.3    56  LEU56       0.0022
     59  CD1        4.6650   28.1490  -16.0480 C.3    56  LEU56       0.0001
     60  CD2        4.5740   29.3710  -18.2170 C.3    56  LEU56       0.0001
     61  N         11.1570   30.7910  -17.4490 N.3    65  PHE65      -0.1241
     62  CA        10.9630   30.5390  -16.0170 C.3    65  PHE65       0.1605
     63  C         12.0460   29.5890  -15.4760 C.2    65  PHE65       0.2264
     64  O         12.2730   29.5100  -14.2640 O.2    65  PHE65      -0.2867
     65  CB         9.5670   29.9520  -15.7530 C.3    65  PHE65       0.0534
     66  CG         8.4150   30.9240  -15.9650 C.ar   65  PHE65      -0.0203
     67  CD1        7.7060   31.4270  -14.8800 C.ar   65  PHE65      -0.0042
     68  CD2        7.9950   31.2800  -17.2470 C.ar   65  PHE65      -0.0042
     69  CE1        6.6200   32.3060  -15.0640 C.ar   65  PHE65      -0.0003
     70  CE2        6.9170   32.1600  -17.4370 C.ar   65  PHE65      -0.0003
     71  CZ         6.2360   32.6730  -16.3320 C.ar   65  PHE65      -0.0000
     72  N          8.0440   28.4590   -9.7650 N.3    70  VAL70      -0.1245
     73  CA         6.8280   27.8780  -10.3470 C.3    70  VAL70       0.1561
     74  C          7.1600   26.5810  -11.0990 C.2    70  VAL70       0.2260
     75  O          6.5090   25.5560  -10.9070 O.2    70  VAL70      -0.2867
     76  CB         6.0940   28.8750  -11.2750 C.3    70  VAL70       0.0252
     77  CG1        4.9070   28.2060  -11.9460 C.3    70  VAL70       0.0019
     78  CG2        5.6110   30.1050  -10.4780 C.3    70  VAL70       0.0019
     79  N          4.0190   32.1610  -25.3180 N.3   166  ILE166     -0.1245
     80  CA         3.6310   31.0140  -24.5160 C.3   166  ILE166      0.1561
     81  C          2.3210   30.4490  -25.0570 C.2   166  ILE166      0.2260
     82  O          2.1250   29.2410  -25.0520 O.2   166  ILE166     -0.2867
     83  CB         3.5290   31.3630  -23.0200 C.3   166  ILE166      0.0252
     84  CG1        4.9170   31.6970  -22.4700 C.3   166  ILE166      0.0019
     85  CG2        2.9430   30.2010  -22.2350 C.3   166  ILE166      0.0019
     86  CD1        4.9480   32.0500  -21.0040 C.3   166  ILE166      0.0001
     87  N          2.5230   26.1710  -27.1830 N.3   170  ARG170     -0.1245
     88  CA         1.9830   24.9320  -26.6190 C.3   170  ARG170      0.1563
     89  C          0.6720   24.4710  -27.2650 C.2   170  ARG170      0.2260
     90  O          0.2640   23.3190  -27.0900 O.2   170  ARG170     -0.2867
     91  CB         1.7970   25.0740  -25.1000 C.3   170  ARG170      0.0307
     92  CG         0.4230   25.6020  -24.6700 C.3   170  ARG170      0.0489
     93  CD         0.2660   27.0900  -24.8860 C.3   170  ARG170      0.2205
     94  NE        -1.1160   27.4550  -25.1910 N.pl3 170  ARG170     -0.0865
     95  CZ        -2.0000   27.9110  -24.3060 C.cat 170  ARG170      0.5346
     96  NH1       -1.6630   28.0710  -23.0280 N.pl3 170  ARG170      0.1354
     97  NH2       -3.2300   28.2090  -24.7080 N.pl3 170  ARG170      0.1354
     98  N          6.5400   37.8870  -13.7440 N.3   238  ILE238     -0.1231
     99  CA         5.3430   37.4610  -14.4610 C.3   238  ILE238      0.1692
    100  C          4.2200   36.9750  -13.5340 C.2   238  ILE238      0.2591
    101  O          3.1180   37.5070  -13.5620 O.2   238  ILE238     -0.2718
    102  CB         5.6270   36.3220  -15.4910 C.3   238  ILE238      0.0266
    103  CG1        6.6680   36.7530  -16.5390 C.3   238  ILE238      0.0019
    104  CG2        4.2870   35.8380  -16.1410 C.3   238  ILE238      0.0020
    105  CD1        6.3770   38.0840  -17.2230 C.3   238  ILE238      0.0001
    106  N          4.5140   35.9450  -12.7470 N.am  239  ALA239     -0.1980
    107  CA         3.5520   35.3570  -11.8350 C.3   239  ALA239      0.1597
    108  C          3.0670   36.3170  -10.7450 C.2   239  ALA239      0.2287
    109  O          2.0000   36.1280  -10.1750 O.2   239  ALA239     -0.2864
    110  CB         4.1170   34.0930  -11.2190 C.3   239  ALA239      0.0319
    111  N          0.6370   39.0560  -13.3880 N.3   242  GLU242     -0.1231
    112  CA        -0.2930   38.7460  -14.5130 C.3   242  GLU242      0.1699
    113  C         -1.6370   38.2130  -14.0240 C.2   242  GLU242      0.2592
    114  O         -2.6870   38.6810  -14.4560 O.2   242  GLU242     -0.2718
    115  CB         0.3290   37.7780  -15.5440 C.3   242  GLU242      0.0402
    116  CG        -0.6680   37.2290  -16.6020 C.3   242  GLU242      0.1161
    117  CD        -1.0720   38.2460  -17.6670 C.2   242  GLU242      0.3649
    118  OE1       -1.7820   37.8900  -18.6500 O.co2 242  GLU242     -0.2457
    119  OE2       -0.7230   39.4380  -17.5250 O.co2 242  GLU242     -0.2457
    120  N         -1.5890   37.2250  -13.1350 N.am  243  THR243     -0.1953
    121  CA        -2.7970   36.6630  -12.5510 C.3   243  THR243      0.1897
    122  C         -3.5750   37.7140  -11.7570 C.2   243  THR243      0.2313
    123  O         -4.8110   37.7430  -11.8290 O.2   243  THR243     -0.2863
    124  CB        -2.5170   35.3790  -11.6950 C.3   243  THR243      0.1794
    125  OG1       -1.5060   35.6520  -10.6960 O.3   243  THR243     -0.2208
    126  CG2       -1.9930   34.3060  -12.5430 C.3   243  THR243      0.0378
    127  N         -7.7540   32.9250  -13.0510 N.3   303  PRO303     -0.2102
    128  CA        -6.7100   33.1980  -14.0340 C.3   303  PRO303      0.1504
    129  C         -5.8630   31.9450  -14.2550 C.2   303  PRO303      0.2576
    130  O         -5.5430   31.6060  -15.3870 O.2   303  PRO303     -0.2718
    131  CB        -5.8970   34.3200  -13.3790 C.3   303  PRO303      0.0282
    132  CG        -6.8950   35.0560  -12.5350 C.3   303  PRO303      0.0208
    133  CD        -7.7960   33.9490  -11.9780 C.3   303  PRO303      0.0893
    134  N         -5.5200   31.2600  -13.1650 N.am  304  ALA304     -0.1966
    135  CA        -4.7690   30.0230  -13.2270 C.3   304  ALA304      0.1728
    136  C         -5.7650   28.9290  -12.9720 C.2   304  ALA304      0.2616
    137  O         -6.2190   28.7140  -11.8360 O.2   304  ALA304     -0.2715
    138  CB        -3.6280   30.0210  -12.2170 C.3   304  ALA304      0.0334
    139  N         -6.1460   28.2340  -14.0390 N.am  305  TRP305     -0.1960
    140  CA        -7.2700   27.3140  -13.9700 C.3   305  TRP305      0.1771
    141  C         -7.0040   26.0430  -13.1880 C.2   305  TRP305      0.2620
    142  O         -7.9090   25.3880  -12.7560 O.2   305  TRP305     -0.2715
    143  CB        -7.8160   26.9890  -15.3430 C.3   305  TRP305      0.0590
    144  CG        -6.7920   26.3890  -16.2770 C.ar  305  TRP305      0.0006
    145  CD1       -6.2150   27.0060  -17.3530 C.ar  305  TRP305      0.0946
    146  CD2       -6.2300   25.0770  -16.2130 C.ar  305  TRP305      0.0152
    147  NE1       -5.3220   26.1530  -17.9640 N.ar  305  TRP305     -0.2442
    148  CE2       -5.3260   24.9570  -17.2920 C.ar  305  TRP305      0.0810
    149  CE3       -6.3910   23.9850  -15.3380 C.ar  305  TRP305      0.0012
    150  CZ2       -4.5890   23.7950  -17.5230 C.ar  305  TRP305      0.0191
    151  CZ3       -5.6610   22.8170  -15.5700 C.ar  305  TRP305      0.0001
    152  CH2       -4.7660   22.7320  -16.6520 C.ar  305  TRP305      0.0015
    153  N         -5.7480   25.6960  -12.9810 N.am  306  GLY306     -0.1940
    154  CA        -5.4970   24.5010  -12.1740 C.3   306  GLY306      0.2014
    155  C         -4.0450   24.1460  -12.1610 C.2   306  GLY306      0.2640
    156  O         -3.1970   25.0320  -12.2490 O.2   306  GLY306     -0.2714
    157  N         -3.7510   22.8560  -12.0460 N.am  307  THR307     -0.1936
    158  CA        -2.3860   22.4060  -11.8470 C.3   307  THR307      0.2028
    159  C         -2.2680   20.9400  -12.2620 C.2   307  THR307      0.2642
    160  O         -3.2730   20.2660  -12.4460 O.2   307  THR307     -0.2714
    161  CB        -1.9280   22.6120  -10.3490 C.3   307  THR307      0.1808
    162  OG1       -0.5200   22.3490  -10.2160 O.3   307  THR307     -0.2208
    163  CG2       -2.6840   21.6800   -9.4350 C.3   307  THR307      0.0379
    164  N         -1.0300   20.4750  -12.4060 N.am  308  PHE308     -0.1973
    165  CA        -0.7020   19.0790  -12.7540 C.3   308  PHE308      0.1639
    166  C          0.1260   18.4010  -11.6550 C.2   308  PHE308      0.2290
    167  O          1.0370   19.0060  -11.0990 O.2   308  PHE308     -0.2864
    168  CB         0.1480   19.0450  -14.0370 C.3   308  PHE308      0.0560
    169  CG        -0.5980   19.4530  -15.2790 C.ar  308  PHE308     -0.0200
    170  CD1       -1.4340   18.5490  -15.9370 C.ar  308  PHE308     -0.0042
    171  CD2       -0.4730   20.7510  -15.7760 C.ar  308  PHE308     -0.0042
    172  CE1       -2.1340   18.9290  -17.1000 C.ar  308  PHE308     -0.0003
    173  CE2       -1.1600   21.1590  -16.9050 C.ar  308  PHE308     -0.0003
    174  CZ        -2.0130   20.2330  -17.5760 C.ar  308  PHE308     -0.0000
    175  N         -0.1030   28.8180   -4.0830 N.3   374  CYS374     -0.1235
    176  CA         0.4580   30.1050   -4.4830 C.3   374  CYS374      0.1677
    177  C          1.1660   30.7700   -3.3080 C.2   374  CYS374      0.2270
    178  O          0.5380   31.0600   -2.2740 O.2   374  CYS374     -0.2867
    179  CB        -0.6640   31.0560   -4.9320 C.3   374  CYS374      0.0956
    180  SG        -0.0240   32.6890   -5.3770 S.3   374  CYS374     -0.0801
    181  N         -7.5200   32.1570  -23.4470 N.3   409  GLU409     -0.1245
    182  CA        -6.3900   31.5390  -22.7740 C.3   409  GLU409      0.1567
    183  C         -5.0960   31.9680  -23.4390 C.2   409  GLU409      0.2260
    184  O         -4.8500   31.6620  -24.6140 O.2   409  GLU409     -0.2867
    185  CB        -6.5250   30.0030  -22.7160 C.3   409  GLU409      0.0388
    186  CG        -5.2820   29.3070  -22.1300 C.3   409  GLU409      0.1160
    187  CD        -5.4910   27.8710  -21.6490 C.2   409  GLU409      0.3649
    188  OE1       -4.5460   27.3460  -21.0040 O.co2 409  GLU409     -0.2457
    189  OE2       -6.5640   27.2630  -21.8990 O.co2 409  GLU409     -0.2457
    190  N         -1.1970   32.5190  -21.4170 N.3   411  ALA411     -0.1231
    191  CA        -0.5490   31.7360  -20.4010 C.3   411  ALA411      0.1694
    192  C         -1.4530   31.5930  -19.1510 C.2   411  ALA411      0.2592
    193  O         -1.1700   30.7830  -18.2760 O.2   411  ALA411     -0.2718
    194  CB         0.7750   32.3620  -20.0470 C.3   411  ALA411      0.0304
    195  N         -2.5140   32.3940  -19.0840 N.am  412  THR412     -0.1953
    196  CA        -3.5370   32.2870  -18.0360 C.3   412  THR412      0.1897
    197  C         -4.8980   32.5740  -18.6750 C.2   412  THR412      0.2313
    198  O         -4.9610   32.9450  -19.8490 O.2   412  THR412     -0.2863
    199  CB        -3.2930   33.3660  -16.9360 C.3   412  THR412      0.1794
    200  OG1       -3.2790   34.6540  -17.5460 O.3   412  THR412     -0.2208
    201  CG2       -1.9880   33.1580  -16.2250 C.3   412  THR412      0.0378
@<TRIPOS>BOND
     1    89    90    2
     2    89    88    1
     3    87    88    1
     4    88    91    1
     5    11    10    2
     6    10     9    1
     7    79    80    1
     8    94    93    1
     9    94    95    2
    10    91    92    1
    11    81    82    2
    12    81    80    1
    13    93    92    1
    14     9     8    1
    15     9    12    1
    16    97    95    1
    17   184   183    2
    18    80    83    1
    19    95    96    1
    20     8     3   am
    21    12    13    1
    22     1     2    1
    23     3     2    1
    24     3     4    2
    25   181   182    1
    26   183   182    1
    27     2     5    1
    28    83    84    1
    29    83    85    1
    30    13    14   ar
    31    13    15   ar
    32   182   185    1
    33    14    16   ar
    34   185   186    1
    35    15    17   ar
    36    84    86    1
    37    52    49    1
    38    16    18   ar
    39   186   187    1
    40   189   187   ar
    41    17    18   ar
    42    49    50    1
    43    49    48    1
    44     5     7    1
    45     5     6    1
    46   187   188   ar
    47    51    50    2
    48   190   191    1
    49    50    53   am
    50   191   194    1
    51   191   192    1
    52    35    34    1
    53   198   197    2
    54    53    54    1
    55    34    33    1
    56   192   195   am
    57   192   193    2
    58   195   196    1
    59    54    55    1
    60    54    57    1
    61    56    55    2
    62    31    30    2
    63   197   196    1
    64   118   117   ar
    65    29    30    1
    66    29    28    1
    67    29    32    1
    68    30    36   am
    69    60    58    1
    70    38    39    2
    71    38    37    1
    72   196   199    1
    73   147   145   ar
    74   147   148   ar
    75    33    32    1
    76   117   119   ar
    77   117   116    1
    78    57    58    1
    79   174   172   ar
    80   174   173   ar
    81   200   199    1
    82    58    59    1
    83   150   148   ar
    84   150   152   ar
    85    36    37    1
    86    61    62    1
    87    70    68   ar
    88    70    71   ar
    89   145   144   ar
    90   148   146   ar
    91    68    66   ar
    92   105   103    1
    93    37    40    1
    94   172   170   ar
    95   199   201    1
    96   173   171   ar
    97   152   151   ar
    98   116   115    1
    99   103   102    1
   100    71    69   ar
   101   144   146   ar
   102   144   143    1
   103   146   149   ar
   104   104   102    1
   105    62    65    1
   106    62    63    1
   107    66    65    1
   108    66    67   ar
   109   170   169   ar
   110   171   169   ar
   111    40    41    1
   112   151   149   ar
   113   115   112    1
   114   102    99    1
   115    63    64    2
   116   130   129    2
   117   143   140    1
   118   169   168    1
   119    69    67   ar
   120    41    43   ar
   121    41    42   ar
   122    43    45   ar
   123   112   113    1
   124   112   111    1
   125    99    98    1
   126    99   100    1
   127   114   113    2
   128   129   128    1
   129   129   134   am
   130    42    44   ar
   131   139   140    1
   132   139   136   am
   133   168   165    1
   134   128   131    1
   135   128   127    1
   136   113   120   am
   137   140   141    1
   138    45    46   ar
   139   101   100    2
   140   100   106   am
   141    44    46   ar
   142   131   132    1
   143   135   134    1
   144   135   136    1
   145   135   138    1
   146    46    47    1
   147   141   153   am
   148   141   142    2
   149   120   121    1
   150   127   133    1
   151   153   154    1
   152   136   137    2
   153   165   164    1
   154   165   166    1
   155   106   107    1
   156   121   122    1
   157   121   124    1
   158   126   124    1
   159   132   133    1
   160   160   159    2
   161   164   159   am
   162   159   158    1
   163   156   155    2
   164   154   155    1
   165   155   157   am
   166   157   158    1
   167    77    76    1
   168   158   161    1
   169   107   110    1
   170   107   108    1
   171   123   122    2
   172   124   125    1
   173   166   167    2
   174    21    22    2
   175    21    20    1
   176    76    78    1
   177    76    73    1
   178    74    75    2
   179    74    73    1
   180   108   109    2
   181    23    20    1
   182    23    24    1
   183   161   162    1
   184   161   163    1
   185    73    72    1
   186    20    19    1
   187    25    24    1
   188    25    26    1
   189    27    26    1
   190   180   179    1
   191   179   176    1
   192   176   175    1
   193   176   177    1
   194   177   178    2
