@<TRIPOS>MOLECULE
tmp/4ficB00.pdb
 104 98 0 0 0
SMALL
GASTEIGER

@<TRIPOS>ATOM
      1  N          4.1490  -12.3310   35.8120 N.3    16  LEU16      -0.1245
      2  CA         4.3020  -11.7600   34.4670 C.3    16  LEU16       0.1561
      3  C          5.5860  -12.1970   33.7420 C.2    16  LEU16       0.2260
      4  O          5.6590  -12.1130   32.5220 O.2    16  LEU16      -0.2867
      5  CB         4.1520  -10.2310   34.4870 C.3    16  LEU16       0.0270
      6  CG         2.8600   -9.6310   35.0940 C.3    16  LEU16       0.0019
      7  CD1        2.9880   -8.1160   35.3130 C.3    16  LEU16       0.0001
      8  CD2        1.5760   -9.9500   34.3090 C.3    16  LEU16       0.0001
      9  N          8.6990  -10.8720   38.0110 N.3    24  VAL24      -0.1245
     10  CA         7.8230   -9.7060   37.8740 C.3    24  VAL24       0.1561
     11  C          6.3630  -10.1230   38.0260 C.2    24  VAL24       0.2260
     12  O          5.9190  -11.0580   37.3530 O.2    24  VAL24      -0.2867
     13  CB         7.9410   -9.0460   36.4760 C.3    24  VAL24       0.0252
     14  CG1        7.3110   -7.6450   36.4980 C.3    24  VAL24       0.0019
     15  CG2        9.3940   -9.0040   35.9920 C.3    24  VAL24       0.0019
     16  N          2.8580   -2.8700   40.1300 N.3    36  ALA36      -0.1245
     17  CA         3.7850   -3.8230   39.5610 C.3    36  ALA36       0.1562
     18  C          4.8700   -4.1180   40.5840 C.2    36  ALA36       0.2260
     19  O          5.3760   -3.1990   41.2390 O.2    36  ALA36      -0.2867
     20  CB         4.3900   -3.2700   38.2800 C.3    36  ALA36       0.0290
     21  N          8.1510    5.5220   34.3290 N.3    52  VAL52      -0.1245
     22  CA         7.4660    4.6290   35.2590 C.3    52  VAL52       0.1561
     23  C          7.8800    5.0620   36.6640 C.2    52  VAL52       0.2260
     24  O          9.0700    5.0540   36.9940 O.2    52  VAL52      -0.2867
     25  CB         7.9030    3.1550   35.0550 C.3    52  VAL52       0.0252
     26  CG1        7.2320    2.2580   36.0850 C.3    52  VAL52       0.0019
     27  CG2        7.6080    2.6810   33.6560 C.3    52  VAL52       0.0019
     28  N          6.3170   -0.5050   41.6120 N.3    67  THR67      -0.1203
     29  CA         6.2130    0.6370   40.6690 C.3    67  THR67       0.1994
     30  C          4.7900    0.7760   40.1740 C.2    67  THR67       0.2618
     31  O          3.9710   -0.1280   40.3950 O.2    67  THR67      -0.2717
     32  CB         7.0800    0.4500   39.4110 C.3    67  THR67       0.1784
     33  OG1        6.6370   -0.7140   38.6980 O.3    67  THR67      -0.2211
     34  CG2        8.5480    0.3130   39.7560 C.3    67  THR67       0.0376
     35  N          4.4880    1.8830   39.4890 N.am   68  GLU68      -0.1965
     36  CA         3.1820    1.9970   38.8480 C.3    68  GLU68       0.1733
     37  C          3.0460    0.8490   37.8510 C.2    68  GLU68       0.2616
     38  O          4.0410    0.3770   37.2970 O.2    68  GLU68      -0.2715
     39  CB         2.9630    3.3680   38.1930 C.3    68  GLU68       0.0429
     40  CG         3.7600    3.6460   36.9310 C.3    68  GLU68       0.1163
     41  CD         3.3730    4.9630   36.2740 C.2    68  GLU68       0.3649
     42  OE1        4.1710    5.9150   36.3600 O.co2  68  GLU68      -0.2457
     43  OE2        2.2750    5.0550   35.6780 O.co2  68  GLU68      -0.2457
     44  N          1.8210    0.3710   37.6770 N.am   69  TYR69      -0.1960
     45  CA         1.5450   -0.7670   36.8270 C.3    69  TYR69       0.1771
     46  C          1.1770   -0.2710   35.4270 C.2    69  TYR69       0.2619
     47  O          0.3720    0.6480   35.2660 O.2    69  TYR69      -0.2715
     48  CB         0.4070   -1.6050   37.4290 C.3    69  TYR69       0.0574
     49  CG        -0.0450   -2.7830   36.5910 C.ar   69  TYR69      -0.0198
     50  CD1        0.7320   -3.9300   36.4910 C.ar   69  TYR69      -0.0009
     51  CD2       -1.2490   -2.7430   35.9010 C.ar   69  TYR69      -0.0009
     52  CE1        0.3360   -5.0020   35.7180 C.ar   69  TYR69       0.0417
     53  CE2       -1.6660   -3.8190   35.1230 C.ar   69  TYR69       0.0417
     54  CZ        -0.8700   -4.9450   35.0390 C.ar   69  TYR69       0.1957
     55  OH        -1.2870   -6.0230   34.2680 O.3    69  TYR69      -0.2866
     56  N          1.7670   -0.8960   34.4140 N.am   70  MET70      -0.1963
     57  CA         1.5190   -0.5050   33.0380 C.3    70  MET70       0.1736
     58  C          0.8040   -1.6540   32.3700 C.2    70  MET70       0.2617
     59  O          1.4010   -2.6930   32.0690 O.2    70  MET70      -0.2715
     60  CB         2.8370   -0.1670   32.3420 C.3    70  MET70       0.0427
     61  CG         3.6660    0.9110   33.0770 C.3    70  MET70       0.0599
     62  SD         2.9310    2.5650   32.9950 S.3    70  MET70      -0.1393
     63  CE         2.9620    2.8910   31.2230 C.3    70  MET70       0.0692
     64  N         -0.4860   -1.4590   32.1450 N.am   71  SER71      -0.1936
     65  CA        -1.3990   -2.5640   31.8780 C.3    71  SER71       0.2055
     66  C         -1.1270   -3.3340   30.6020 C.2    71  SER71       0.2643
     67  O         -1.4750   -4.5070   30.5230 O.2    71  SER71      -0.2714
     68  CB        -2.8440   -2.0680   31.8950 C.3    71  SER71       0.2130
     69  OG        -2.9930   -0.9170   31.0770 O.3    71  SER71      -0.2179
     70  N         -0.4900   -2.7060   29.6140 N.am   72  LYS72      -0.1963
     71  CA        -0.3450   -3.3410   28.2850 C.3    72  LYS72       0.1728
     72  C          1.0140   -3.9970   28.0850 C.2    72  LYS72       0.2617
     73  O          1.2530   -4.6210   27.0560 O.2    72  LYS72      -0.2715
     74  CB        -0.6590   -2.3670   27.1330 C.3    72  LYS72       0.0311
     75  CG        -1.8630   -1.4330   27.3830 C.3    72  LYS72       0.0038
     76  CD        -3.1670   -1.8480   26.6620 C.3    72  LYS72       0.0206
     77  CE        -3.9590   -2.9310   27.3830 C.3    72  LYS72       0.1093
     78  NZ        -5.4320   -2.6440   27.4140 N.3    72  LYS72      -0.1314
     79  N          1.8930   -3.8740   29.0790 N.am   73  GLY73      -0.1940
     80  CA         3.2040   -4.5210   29.0170 C.3    73  GLY73       0.2014
     81  C          4.2470   -3.7800   28.1920 C.2    73  GLY73       0.2639
     82  O          4.1430   -2.5690   27.9840 O.2    73  GLY73      -0.2714
     83  N          5.2570   -4.5110   27.7310 N.am   74  SER74      -0.1949
     84  CA         6.3460   -3.9280   26.9650 C.3    74  SER74       0.1924
     85  C          5.8270   -3.4380   25.6120 C.2    74  SER74       0.2314
     86  O          4.9160   -4.0250   25.0380 O.2    74  SER74      -0.2863
     87  CB         7.4880   -4.9390   26.7560 C.3    74  SER74       0.2116
     88  OG         7.2440   -5.7760   25.6250 O.3    74  SER74      -0.2180
     89  N          6.1020   -6.2130   22.9480 N.3    77  ASP77      -0.1239
     90  CA         4.9410   -7.1300   22.9880 C.3    77  ASP77       0.1674
     91  C          3.6960   -6.4600   22.4320 C.2    77  ASP77       0.2266
     92  O          2.9300   -7.0670   21.7070 O.2    77  ASP77      -0.2867
     93  CB         4.6700   -7.6210   24.4060 C.3    77  ASP77       0.1410
     94  CG         5.8510   -8.3620   24.9980 C.2    77  ASP77       0.3668
     95  OD1        6.6380   -8.9530   24.2210 O.co2  77  ASP77      -0.2456
     96  OD2        6.0030   -8.3430   26.2410 O.co2  77  ASP77      -0.2456
     97  N          7.3630    0.7340   28.5340 N.3   122  LEU122     -0.1245
     98  CA         6.0890    0.1680   28.9900 C.3   122  LEU122      0.1561
     99  C          4.8790    0.9590   28.4840 C.2   122  LEU122      0.2260
    100  O          4.9350    2.1840   28.3680 O.2   122  LEU122     -0.2867
    101  CB         6.0850    0.0460   30.5060 C.3   122  LEU122      0.0270
    102  CG         7.2120   -0.8830   30.9770 C.3   122  LEU122      0.0019
    103  CD1        7.2870   -1.0090   32.4650 C.3   122  LEU122      0.0001
    104  CD2        7.0560   -2.2580   30.3620 C.3   122  LEU122      0.0001
@<TRIPOS>BOND
     1    92    91    2
     2    91    90    1
     3    89    90    1
     4    90    93    1
     5    95    94   ar
     6    93    94    1
     7    94    96   ar
     8    86    85    2
     9    85    84    1
    10    88    87    1
    11    76    77    1
    12    76    75    1
    13    87    84    1
    14    84    83    1
    15    73    72    2
    16    74    75    1
    17    74    71    1
    18    77    78    1
    19    83    81   am
    20    82    81    2
    21    72    71    1
    22    72    79   am
    23    81    80    1
    24    71    70    1
    25   100    99    2
    26    99    98    1
    27    97    98    1
    28    98   101    1
    29    80    79    1
    30    70    66   am
    31   104   102    1
    32   101   102    1
    33    67    66    2
    34    66    65    1
    35   102   103    1
    36    69    68    1
    37    63    62    1
    38    65    68    1
    39    65    64    1
    40    59    58    2
    41    64    58   am
    42    60    57    1
    43    60    61    1
    44    58    57    1
    45     4     3    2
    46    62    61    1
    47    57    56    1
    48    27    25    1
    49     3     2    1
    50    55    54    1
    51     8     6    1
    52    21    22    1
    53    56    46   am
    54     2     5    1
    55     2     1    1
    56     5     6    1
    57    54    53   ar
    58    54    52   ar
    59    25    22    1
    60    25    26    1
    61     6     7    1
    62    53    51   ar
    63    22    23    1
    64    47    46    2
    65    46    45    1
    66    43    41   ar
    67    52    50   ar
    68    51    49   ar
    69    15    13    1
    70    41    42   ar
    71    41    40    1
    72    13    14    1
    73    13    10    1
    74    50    49   ar
    75    49    48    1
    76    23    24    2
    77    45    48    1
    78    45    44    1
    79    40    39    1
    80    38    37    2
    81    12    11    2
    82    44    37   am
    83    37    36    1
    84    10     9    1
    85    10    11    1
    86    39    36    1
    87    20    17    1
    88    33    32    1
    89    36    35    1
    90    32    34    1
    91    32    29    1
    92    35    30   am
    93    17    16    1
    94    17    18    1
    95    30    31    2
    96    30    29    1
    97    18    19    2
    98    29    28    1
