@<TRIPOS>MOLECULE
tmp/4fidA00.pdb
 169 163 0 0 0
SMALL
GASTEIGER

@<TRIPOS>ATOM
      1  N          5.3400    4.2940   58.6880 N.3     9  SER9       -0.1202
      2  CA         5.1370    4.3260   60.1270 C.3     9  SER9        0.2020
      3  C          5.9890    5.4310   60.7150 C.2     9  SER9        0.2619
      4  O          6.5860    6.2360   59.9830 O.2     9  SER9       -0.2717
      5  CB         5.5120    2.9920   60.7570 C.3     9  SER9        0.2103
      6  OG         4.6620    1.9730   60.2640 O.3     9  SER9       -0.2182
      7  N          6.0350    5.4760   62.0390 N.am   10  GLY10      -0.1942
      8  CA         6.8390    6.4640   62.7250 C.3    10  GLY10       0.2014
      9  C          8.2690    5.9960   62.8720 C.2    10  GLY10       0.2639
     10  O          8.5270    4.8220   63.1620 O.2    10  GLY10      -0.2714
     11  N          9.2010    6.9240   62.6740 N.am   11  GLU11      -0.1963
     12  CA        10.6270    6.6290   62.7730 C.3    11  GLU11       0.1733
     13  C         11.0570    5.6820   61.6770 C.2    11  GLU11       0.2617
     14  O         11.9380    4.8550   61.8680 O.2    11  GLU11      -0.2715
     15  CB        10.9860    6.0520   64.1450 C.3    11  GLU11       0.0429
     16  CG        11.4570    7.0910   65.1520 C.3    11  GLU11       0.1163
     17  CD        11.0670    6.7230   66.5630 C.2    11  GLU11       0.3649
     18  OE1       11.8900    6.9120   67.4910 O.co2  11  GLU11      -0.2457
     19  OE2        9.9300    6.2340   66.7370 O.co2  11  GLU11      -0.2457
     20  N         10.4110    5.8060   60.5310 N.am   12  SER12      -0.1936
     21  CA        10.8250    5.0930   59.3510 C.3    12  SER12       0.2055
     22  C         11.8640    5.9220   58.6010 C.2    12  SER12       0.2644
     23  O         12.5470    5.4310   57.7050 O.2    12  SER12      -0.2714
     24  CB         9.6170    4.8770   58.4650 C.3    12  SER12       0.2130
     25  OG         8.8920    6.0810   58.3570 O.3    12  SER12      -0.2179
     26  N         11.9780    7.1880   58.9850 N.am   13  GLY13      -0.1939
     27  CA        12.8330    8.1370   58.3040 C.3    13  GLY13       0.2014
     28  C         12.1990    8.7650   57.0690 C.2    13  GLY13       0.2639
     29  O         12.9050    9.3330   56.2390 O.2    13  GLY13      -0.2714
     30  N         10.8760    8.6950   56.9310 N.am   14  LYS14      -0.1963
     31  CA        10.2480    9.2340   55.7170 C.3    14  LYS14       0.1728
     32  C         10.3450   10.7530   55.6520 C.2    14  LYS14       0.2617
     33  O         10.4200   11.3450   54.5610 O.2    14  LYS14      -0.2715
     34  CB         8.8050    8.7370   55.5690 C.3    14  LYS14       0.0311
     35  CG         7.7200    9.7390   55.8290 C.3    14  LYS14       0.0038
     36  CD         6.3410    9.0340   55.8780 C.3    14  LYS14       0.0206
     37  CE         5.5540    9.4230   57.1260 C.3    14  LYS14       0.1093
     38  NZ         5.9130   10.8130   57.5800 N.3    14  LYS14      -0.1314
     39  N         10.3720   11.3840   56.8220 N.am   15  SER15      -0.1936
     40  CA        10.5220   12.8410   56.9100 C.3    15  SER15       0.2055
     41  C         11.9460   13.2600   56.5290 C.2    15  SER15       0.2643
     42  O         12.1590   14.3060   55.9300 O.2    15  SER15      -0.2714
     43  CB        10.1220   13.3430   58.3050 C.3    15  SER15       0.2130
     44  OG        11.1090   14.1900   58.8690 O.3    15  SER15      -0.2179
     45  N         12.9190   12.4150   56.8440 N.am   16  THR16      -0.1950
     46  CA        14.2850   12.6610   56.4170 C.3    16  THR16       0.1897
     47  C         14.4280   12.5420   54.8990 C.2    16  THR16       0.2313
     48  O         15.1530   13.3000   54.2600 O.2    16  THR16      -0.2863
     49  CB        15.2290   11.6640   57.0450 C.3    16  THR16       0.1794
     50  OG1       15.1030   11.7210   58.4760 O.3    16  THR16      -0.2208
     51  CG2       16.6710   11.9810   56.6040 C.3    16  THR16       0.0378
     52  N         18.4070    8.1660   67.0470 N.3   111  ASP111     -0.1225
     53  CA        19.4710    7.8950   66.0690 C.3   111  ASP111      0.1805
     54  C         20.5070    9.0190   65.9640 C.2   111  ASP111      0.2598
     55  O         21.6510    8.7830   65.5680 O.2   111  ASP111     -0.2718
     56  CB        18.8720    7.6620   64.6700 C.3   111  ASP111      0.1424
     57  CG        17.9890    6.4040   64.5910 C.2   111  ASP111      0.3668
     58  OD1       17.4420    6.1250   63.4960 O.co2 111  ASP111     -0.2456
     59  OD2       17.8410    5.6940   65.6120 O.co2 111  ASP111     -0.2456
     60  N         20.1010   10.2410   66.2980 N.am  112  CYS112     -0.1970
     61  CA        20.9330   11.4010   66.0410 C.3   112  CYS112      0.1712
     62  C         21.9830   11.6500   67.1340 C.2   112  CYS112      0.2296
     63  O         22.7490   12.6240   67.0510 O.2   112  CYS112     -0.2864
     64  CB        20.0540   12.6370   65.8840 C.3   112  CYS112      0.0983
     65  SG        19.1270   13.0270   67.3810 S.3   112  CYS112     -0.0798
     66  N         18.9560   17.3090   58.5670 N.3   135  ILE135     -0.1231
     67  CA        18.8550   15.9370   58.0910 C.3   135  ILE135      0.1692
     68  C         18.9410   14.9660   59.2590 C.2   135  ILE135      0.2592
     69  O         18.1770   13.9980   59.3350 O.2   135  ILE135     -0.2718
     70  CB        19.9900   15.5740   57.0950 C.3   135  ILE135      0.0266
     71  CG1       19.7990   16.2850   55.7450 C.3   135  ILE135      0.0019
     72  CG2       20.1260   14.0260   56.9480 C.3   135  ILE135      0.0020
     73  CD1       18.4880   15.9870   55.1060 C.3   135  ILE135      0.0001
     74  N         19.8640   15.2380   60.1810 N.am  136  HIS136     -0.1962
     75  CA        20.1570   14.2910   61.2570 C.3   136  HIS136      0.1787
     76  C         19.3160   14.4770   62.5020 C.2   136  HIS136      0.2620
     77  O         19.2510   13.5890   63.3530 O.2   136  HIS136     -0.2715
     78  CB        21.6280   14.3530   61.6520 C.3   136  HIS136      0.0785
     79  CG        22.5360   13.7250   60.6570 C.ar  136  HIS136      0.0821
     80  ND1       23.0650   14.4200   59.5880 N.ar  136  HIS136     -0.2267
     81  CD2       23.0180   12.4650   60.5670 C.ar  136  HIS136      0.1154
     82  CE1       23.8330   13.6100   58.8780 C.ar  136  HIS136      0.1986
     83  NE2       23.8230   12.4210   59.4530 N.ar  136  HIS136     -0.2212
     84  N         18.6840   15.6260   62.6360 N.am  137  ASN137     -0.1958
     85  CA        17.9480   15.8620   63.8610 C.3   137  ASN137      0.1819
     86  C         16.5700   15.2410   63.8530 C.2   137  ASN137      0.2621
     87  O         15.9040   15.1690   62.8260 O.2   137  ASN137     -0.2715
     88  CB        17.8500   17.3350   64.1940 C.3   137  ASN137      0.1195
     89  CG        17.4270   17.5580   65.6220 C.2   137  ASN137      0.2630
     90  OD1       18.0580   17.0240   66.5340 O.2   137  ASN137     -0.2716
     91  ND2       16.3470   18.3350   65.8350 N.am  137  ASN137     -0.0877
     92  N         16.1440   14.7970   65.0250 N.am  138  ARG138     -0.1963
     93  CA        14.8220   14.2270   65.1790 C.3   138  ARG138      0.1729
     94  C         13.7570   15.3210   65.2930 C.2   138  ARG138      0.2616
     95  O         13.8420   16.1900   66.1640 O.2   138  ARG138     -0.2715
     96  CB        14.8150   13.3060   66.4010 C.3   138  ARG138      0.0348
     97  CG        16.0450   12.4000   66.4520 C.3   138  ARG138      0.0492
     98  CD        15.7240   11.0240   67.0180 C.3   138  ARG138      0.2205
     99  NE        15.5860    9.9830   65.9980 N.pl3 138  ARG138     -0.0865
    100  CZ        15.1010    8.7670   66.2410 C.cat 138  ARG138      0.5346
    101  NH1       14.7040    8.4450   67.4670 N.pl3 138  ARG138      0.1354
    102  NH2       15.0000    7.8740   65.2620 N.pl3 138  ARG138      0.1354
    103  N         12.7760   15.2970   64.3930 N.am  139  THR139     -0.1951
    104  CA        11.5850   16.1380   64.5480 C.3   139  THR139      0.1897
    105  C         10.3120   15.3260   64.3520 C.2   139  THR139      0.2313
    106  O         10.3090   14.3270   63.6310 O.2   139  THR139     -0.2863
    107  CB        11.5510   17.3460   63.5740 C.3   139  THR139      0.1794
    108  OG1       11.7870   16.8930   62.2360 O.3   139  THR139     -0.2208
    109  CG2       12.5870   18.3840   63.9570 C.3   139  THR139      0.0378
    110  N          6.9960   15.3410   62.5760 N.3   141  THR141     -0.1218
    111  CA         6.1730   15.9880   61.5590 C.3   141  THR141      0.1862
    112  C          4.7110   15.5580   61.6880 C.2   141  THR141      0.2287
    113  O          4.2870   14.5750   61.0770 O.2   141  THR141     -0.2866
    114  CB         6.7070   15.7810   60.0990 C.3   141  THR141      0.1770
    115  OG1        6.3690   14.4750   59.6130 O.3   141  THR141     -0.2211
    116  CG2        8.2200   15.9950   60.0310 C.3   141  THR141      0.0375
    117  N         14.4890    1.5740   54.6450 N.3   224  ASN224     -0.1225
    118  CA        15.3710    2.6390   55.0840 C.3   224  ASN224      0.1785
    119  C         16.2170    2.2570   56.2860 C.2   224  ASN224      0.2597
    120  O         15.9100    1.2850   57.0120 O.2   224  ASN224     -0.2718
    121  CB        14.5490    3.8810   55.4010 C.3   224  ASN224      0.1169
    122  CG        15.3930    5.1170   55.5070 C.2   224  ASN224      0.2627
    123  OD1       16.3120    5.3230   54.7080 O.2   224  ASN224     -0.2716
    124  ND2       15.0760    5.9690   56.4880 N.am  224  ASN224     -0.0877
    125  N         17.2880    3.0210   56.4800 N.am  225  LYS225     -0.1980
    126  CA        18.2210    2.8050   57.5860 C.3   225  LYS225      0.1596
    127  C         19.0280    1.5380   57.4000 C.2   225  LYS225      0.2287
    128  O         19.3020    0.8290   58.3620 O.2   225  LYS225     -0.2864
    129  CB        17.4950    2.7960   58.9350 C.3   225  LYS225      0.0298
    130  CG        16.6530    4.0780   59.1680 C.3   225  LYS225      0.0038
    131  CD        16.1500    4.1590   60.6060 C.3   225  LYS225      0.0206
    132  CE        15.4970    5.4970   60.9040 C.3   225  LYS225      0.1093
    133  NZ        14.9560    5.5470   62.2860 N.3   225  LYS225     -0.1314
    134  N         22.1140    1.3250   56.7840 N.3   226  ASP226     -0.1225
    135  CA        23.3380    1.4820   57.5840 C.3   226  ASP226      0.1805
    136  C         23.1580    0.9820   59.0240 C.2   226  ASP226      0.2597
    137  O         23.9530    0.1520   59.5090 O.2   226  ASP226     -0.2718
    138  CB        23.8560    2.9460   57.5620 C.3   226  ASP226      0.1424
    139  CG        22.7550    3.9970   57.8910 C.2   226  ASP226      0.3668
    140  OD1       21.5620    3.7970   57.5390 O.co2 226  ASP226     -0.2456
    141  OD2       23.1060    5.0460   58.4900 O.co2 226  ASP226     -0.2456
    142  N         22.1000    1.4730   59.6830 N.am  227  LEU227     -0.1979
    143  CA        21.7890    1.1170   61.0630 C.3   227  LEU227      0.1596
    144  C         21.5070   -0.3600   61.1690 C.2   227  LEU227      0.2287
    145  O         21.8920   -1.0100   62.1400 O.2   227  LEU227     -0.2864
    146  CB        20.5910    1.9130   61.5750 C.3   227  LEU227      0.0297
    147  CG        20.8750    3.4140   61.7220 C.3   227  LEU227      0.0022
    148  CD1       19.6680    4.1790   62.2870 C.3   227  LEU227      0.0001
    149  CD2       22.1280    3.6240   62.5930 C.3   227  LEU227      0.0001
    150  N         19.6050    4.7490   52.6520 N.3   279  ASN279     -0.1225
    151  CA        20.1820    5.4110   53.8030 C.3   279  ASN279      0.1785
    152  C         19.8690    6.9090   53.6830 C.2   279  ASN279      0.2597
    153  O         20.6080    7.6780   53.0650 O.2   279  ASN279     -0.2718
    154  CB        21.6790    5.0970   53.9270 C.3   279  ASN279      0.1169
    155  CG        22.3600    5.8900   55.0440 C.2   279  ASN279      0.2627
    156  OD1       21.6980    6.5670   55.8480 O.2   279  ASN279     -0.2716
    157  ND2       23.6970    5.8130   55.0990 N.am  279  ASN279     -0.0877
    158  N         18.7310    7.2890   54.2610 N.am  280  ALA280     -0.1966
    159  CA        18.1810    8.6430   54.1720 C.3   280  ALA280      0.1728
    160  C         19.0950    9.7940   54.6570 C.2   280  ALA280      0.2616
    161  O         18.8990   10.9470   54.2810 O.2   280  ALA280     -0.2715
    162  CB        16.8290    8.6990   54.8900 C.3   280  ALA280      0.0334
    163  N         20.0710    9.4980   55.5020 N.am  281  THR281     -0.1951
    164  CA        20.9780   10.5360   55.9760 C.3   281  THR281      0.1897
    165  C         22.1670   10.7110   55.0350 C.2   281  THR281      0.2313
    166  O         23.0890   11.4590   55.3380 O.2   281  THR281     -0.2863
    167  CB        21.5060   10.2300   57.3810 C.3   281  THR281      0.1794
    168  OG1       22.1990    8.9800   57.3570 O.3   281  THR281     -0.2208
    169  CG2       20.3600   10.1480   58.3620 C.3   281  THR281      0.0378
@<TRIPOS>BOND
     1   150   151    1
     2   153   152    2
     3   152   151    1
     4   152   158   am
     5   151   154    1
     6   154   155    1
     7   159   158    1
     8   159   160    1
     9   159   162    1
    10    48    47    2
    11   161   160    2
    12    33    32    2
    13   117   118    1
    14   160   163   am
    15   123   122    2
    16    47    46    1
    17   165   166    2
    18   165   164    1
    19   155   157   am
    20   155   156    2
    21   118   121    1
    22   118   119    1
    23    73    71    1
    24   121   122    1
    25   163   164    1
    26   122   124   am
    27    34    31    1
    28    34    35    1
    29    32    31    1
    30    32    39   am
    31    31    30    1
    32    71    70    1
    33    35    36    1
    34    36    37    1
    35    42    41    2
    36   164   167    1
    37    29    28    2
    38   119   125   am
    39   119   120    2
    40    46    45    1
    41    46    49    1
    42   125   126    1
    43    41    45   am
    44    41    40    1
    45    51    49    1
    46   134   135    1
    47    39    40    1
    48    40    43    1
    49    30    28   am
    50    72    70    1
    51    49    50    1
    52    28    27    1
    53    70    67    1
    54    37    38    1
    55   168   167    1
    56   167   169    1
    57   127   126    1
    58   127   128    2
    59   140   139   ar
    60   138   135    1
    61   138   139    1
    62   135   136    1
    63   126   129    1
    64    23    22    2
    65   139   141   ar
    66    67    66    1
    67    67    68    1
    68    27    26    1
    69    43    44    1
    70    25    24    1
    71    24    21    1
    72    22    26   am
    73    22    21    1
    74     1     2    1
    75    82    83   ar
    76    82    80   ar
    77   129   130    1
    78   136   137    2
    79   136   142   am
    80   130   131    1
    81    68    69    2
    82    68    74   am
    83    21    20    1
    84    83    81   ar
    85    80    79   ar
    86   115   114    1
    87   142   143    1
    88     4     3    2
    89   116   114    1
    90   114   111    1
    91     2     3    1
    92     2     5    1
    93    74    75    1
    94     6     5    1
    95    20    13   am
    96    81    79   ar
    97   131   132    1
    98    79    78    1
    99     3     7   am
   100   132   133    1
   101   143   144    1
   102   143   146    1
   103   113   112    2
   104   144   145    2
   105    75    78    1
   106    75    76    1
   107   111   112    1
   108   111   110    1
   109   146   147    1
   110    13    14    2
   111    13    12    1
   112   147   148    1
   113   147   149    1
   114     7     8    1
   115   108   107    1
   116    76    84   am
   117    76    77    2
   118    84    85    1
   119    11    12    1
   120    11     9   am
   121     8     9    1
   122    12    15    1
   123    87    86    2
   124     9    10    2
   125    58    57   ar
   126   107   109    1
   127   107   104    1
   128   106   105    2
   129    86    85    1
   130    86    92   am
   131    85    88    1
   132    15    16    1
   133    88    89    1
   134   105   104    1
   135   103   104    1
   136   103    94   am
   137    57    56    1
   138    57    59   ar
   139    56    53    1
   140    92    93    1
   141    16    17    1
   142    93    94    1
   143    93    96    1
   144   102   100    1
   145    94    95    2
   146    55    54    2
   147    89    91   am
   148    89    90    2
   149    64    61    1
   150    64    65    1
   151    54    53    1
   152    54    60   am
   153    99   100    2
   154    99    98    1
   155    61    60    1
   156    61    62    1
   157    53    52    1
   158   100   101    1
   159    96    97    1
   160    97    98    1
   161    17    19   ar
   162    17    18   ar
   163    63    62    2
