@<TRIPOS>MOLECULE
tmp/4fieB00.pdb
 200 187 0 0 0
SMALL
GASTEIGER

@<TRIPOS>ATOM
      1  N         50.5930  -10.2630  -12.6510 N.3     4  PRO4       -0.2116
      2  CA        50.7790  -10.5940  -14.0700 C.3     4  PRO4        0.1372
      3  C         50.4550   -9.4230  -15.0040 C.2     4  PRO4        0.2244
      4  O         49.5070   -8.6770  -14.7540 O.2     4  PRO4       -0.2868
      5  CB        49.7900  -11.7370  -14.2860 C.3     4  PRO4        0.0268
      6  CG        49.7220  -12.4220  -12.9670 C.3     4  PRO4        0.0207
      7  CD        49.9210  -11.3580  -11.9210 C.3     4  PRO4        0.0892
      8  N         38.9060  -17.1390   -1.9280 N.3    38  ILE38      -0.1231
      9  CA        40.1850  -17.6410   -1.4390 C.3    38  ILE38       0.1692
     10  C         41.2720  -16.5920   -1.6690 C.2    38  ILE38       0.2593
     11  O         41.9480  -16.1730   -0.7290 O.2    38  ILE38      -0.2718
     12  CB        40.5810  -18.9720   -2.1140 C.3    38  ILE38       0.0266
     13  CG1       39.5710  -20.0740   -1.7770 C.3    38  ILE38       0.0019
     14  CG2       41.9910  -19.3820   -1.7020 C.3    38  ILE38       0.0020
     15  CD1       39.6480  -21.2730   -2.7010 C.3    38  ILE38       0.0001
     16  N         41.4300  -16.1700   -2.9180 N.am   39  GLY39      -0.1942
     17  CA        42.4490  -15.1930   -3.2710 C.3    39  GLY39       0.2014
     18  C         42.2080  -14.5880   -4.6350 C.2    39  GLY39       0.2639
     19  O         41.7210  -15.2590   -5.5450 O.2    39  GLY39      -0.2714
     20  N         42.5460  -13.3120   -4.7700 N.am   40  GLU40      -0.1963
     21  CA        42.4240  -12.6180   -6.0430 C.3    40  GLU40       0.1733
     22  C         43.6770  -12.8130   -6.8920 C.2    40  GLU40       0.2617
     23  O         44.7820  -12.9500   -6.3630 O.2    40  GLU40      -0.2715
     24  CB        42.1400  -11.1260   -5.8310 C.3    40  GLU40       0.0429
     25  CG        43.1530  -10.3950   -4.9590 C.3    40  GLU40       0.1163
     26  CD        43.2000   -8.9030   -5.2350 C.2    40  GLU40       0.3649
     27  OE1       43.2050   -8.1210   -4.2590 O.co2  40  GLU40      -0.2457
     28  OE2       43.2320   -8.5090   -6.4230 O.co2  40  GLU40      -0.2457
     29  N         43.4920  -12.8350   -8.2070 N.am   41  GLY41      -0.1940
     30  CA        44.6080  -12.9030   -9.1410 C.3    41  GLY41       0.2014
     31  C         44.6830  -11.6500   -9.9900 C.2    41  GLY41       0.2640
     32  O         44.3960  -10.5480   -9.5140 O.2    41  GLY41      -0.2714
     33  N         45.0760  -11.8210  -11.2490 N.am   42  SER42      -0.1935
     34  CA        45.1150  -10.7200  -12.2100 C.3    42  SER42       0.2055
     35  C         43.8360  -10.6910  -13.0440 C.2    42  SER42       0.2644
     36  O         43.2610   -9.6240  -13.2740 O.2    42  SER42      -0.2714
     37  CB        46.3400  -10.8420  -13.1190 C.3    42  SER42       0.2130
     38  OG        46.4010   -9.7710  -14.0470 O.3    42  SER42      -0.2179
     39  N         43.4050  -11.8700  -13.4870 N.am   43  THR43      -0.1936
     40  CA        42.1940  -12.0220  -14.2920 C.3    43  THR43       0.2028
     41  C         40.9230  -11.8780  -13.4520 C.2    43  THR43       0.2642
     42  O         39.8730  -11.4810  -13.9640 O.2    43  THR43      -0.2714
     43  CB        42.1680  -13.3780  -15.0290 C.3    43  THR43       0.1808
     44  OG1       42.4180  -14.4380  -14.0970 O.3    43  THR43      -0.2208
     45  CG2       43.2200  -13.4150  -16.1340 C.3    43  THR43       0.0379
     46  N         41.0260  -12.2010  -12.1660 N.am   44  GLY44      -0.1954
     47  CA        39.8990  -12.0950  -11.2450 C.3    44  GLY44       0.1869
     48  C         40.1010  -12.9220   -9.9940 C.2    44  GLY44       0.2309
     49  O         41.1880  -13.4540   -9.7590 O.2    44  GLY44      -0.2863
     50  N         39.6070  -16.0360   -7.2730 N.3    46  VAL46      -0.1245
     51  CA        39.3710  -17.4680   -7.1490 C.3    46  VAL46       0.1561
     52  C         38.6560  -17.6710   -5.8270 C.2    46  VAL46       0.2260
     53  O         39.0560  -17.1040   -4.8070 O.2    46  VAL46      -0.2867
     54  CB        40.6830  -18.2870   -7.1560 C.3    46  VAL46       0.0252
     55  CG1       40.3920  -19.7800   -7.0810 C.3    46  VAL46       0.0019
     56  CG2       41.5110  -17.9760   -8.3950 C.3    46  VAL46       0.0019
     57  N         36.7860  -25.5700   -6.8740 N.3    59  ALA59      -0.1245
     58  CA        37.1600  -24.1650   -6.9250 C.3    59  ALA59       0.1562
     59  C         36.4180  -23.5030   -8.0760 C.2    59  ALA59       0.2260
     60  O         36.0430  -24.1660   -9.0420 O.2    59  ALA59      -0.2867
     61  CB        38.6650  -24.0110   -7.0890 C.3    59  ALA59       0.0290
     62  N         36.8350  -20.0050  -10.4600 N.3    61  LYS61      -0.1245
     63  CA        37.4860  -18.7700  -10.8510 C.3    61  LYS61       0.1561
     64  C         36.4270  -17.8590  -11.4470 C.2    61  LYS61       0.2260
     65  O         35.6880  -18.2590  -12.3460 O.2    61  LYS61      -0.2867
     66  CB        38.6090  -19.0400  -11.8550 C.3    61  LYS61       0.0271
     67  CG        39.6270  -17.9150  -11.9660 C.3    61  LYS61       0.0035
     68  CD        40.9160  -18.4110  -12.6030 C.3    61  LYS61       0.0206
     69  CE        42.0410  -17.3940  -12.4730 C.3    61  LYS61       0.1093
     70  NZ        43.3570  -17.9850  -12.8490 N.3    61  LYS61      -0.1314
     71  N         41.3560  -19.8860  -20.7620 N.3    77  GLU77      -0.1245
     72  CA        40.8820  -20.4840  -19.5120 C.3    77  GLU77       0.1567
     73  C         39.9750  -21.6920  -19.7450 C.2    77  GLU77       0.2260
     74  O         40.0510  -22.6820  -19.0110 O.2    77  GLU77      -0.2867
     75  CB        40.1550  -19.4410  -18.6590 C.3    77  GLU77       0.0388
     76  CG        40.9960  -18.2260  -18.2800 C.3    77  GLU77       0.1160
     77  CD        41.8930  -18.4490  -17.0690 C.2    77  GLU77       0.3649
     78  OE1       41.8680  -19.5520  -16.4720 O.co2  77  GLU77      -0.2457
     79  OE2       42.6270  -17.5020  -16.7080 O.co2  77  GLU77      -0.2457
     80  N         45.9780  -29.0120  -13.9220 N.3    90  VAL90      -0.1245
     81  CA        44.7390  -28.7920  -13.1790 C.3    90  VAL90       0.1561
     82  C         43.5360  -29.1900  -14.0270 C.2    90  VAL90       0.2260
     83  O         43.3800  -28.7150  -15.1550 O.2    90  VAL90      -0.2867
     84  CB        44.5990  -27.3150  -12.7440 C.3    90  VAL90       0.0252
     85  CG1       43.2650  -27.0700  -12.0540 C.3    90  VAL90       0.0019
     86  CG2       45.7390  -26.9230  -11.8210 C.3    90  VAL90       0.0019
     87  N         36.9490  -25.5820  -11.7210 N.3   106  MET106     -0.1230
     88  CA        38.0900  -26.4960  -11.7560 C.3   106  MET106      0.1702
     89  C         38.2840  -27.2290  -10.4240 C.2   106  MET106      0.2592
     90  O         37.5650  -26.9690   -9.4610 O.2   106  MET106     -0.2718
     91  CB        39.3580  -25.7430  -12.1740 C.3   106  MET106      0.0401
     92  CG        39.7570  -24.5820  -11.2790 C.3   106  MET106      0.0596
     93  SD        40.4370  -23.2380  -12.2680 S.3   106  MET106     -0.1393
     94  CE        41.6800  -22.5640  -11.1680 C.3   106  MET106      0.0692
     95  N         39.2450  -28.1520  -10.3810 N.am  107  GLU107     -0.1966
     96  CA        39.5290  -28.9290   -9.1690 C.3   107  GLU107      0.1733
     97  C         40.1880  -28.0850   -8.0820 C.2   107  GLU107      0.2616
     98  O         40.9790  -27.1820   -8.3730 O.2   107  GLU107     -0.2715
     99  CB        40.3890  -30.1620   -9.4830 C.3   107  GLU107      0.0429
    100  CG        41.7710  -29.8580  -10.0530 C.3   107  GLU107      0.1163
    101  CD        42.7230  -31.0410   -9.9950 C.2   107  GLU107      0.3649
    102  OE1       42.9960  -31.5380   -8.8800 O.co2 107  GLU107     -0.2457
    103  OE2       43.2150  -31.4630  -11.0660 O.co2 107  GLU107     -0.2457
    104  N         39.8510  -28.3770   -6.8300 N.am  108  PHE108     -0.1960
    105  CA        40.4560  -27.6690   -5.7110 C.3   108  PHE108      0.1771
    106  C         41.7890  -28.3020   -5.3400 C.2   108  PHE108      0.2619
    107  O         41.8720  -29.5110   -5.1170 O.2   108  PHE108     -0.2715
    108  CB        39.5170  -27.6260   -4.4980 C.3   108  PHE108      0.0574
    109  CG        40.1430  -27.0190   -3.2710 C.ar  108  PHE108     -0.0200
    110  CD1       40.4790  -25.6660   -3.2360 C.ar  108  PHE108     -0.0042
    111  CD2       40.4100  -27.8000   -2.1540 C.ar  108  PHE108     -0.0042
    112  CE1       41.0660  -25.1070   -2.1110 C.ar  108  PHE108     -0.0003
    113  CE2       40.9930  -27.2470   -1.0250 C.ar  108  PHE108     -0.0003
    114  CZ        41.3200  -25.8980   -1.0020 C.ar  108  PHE108     -0.0000
    115  N         42.8290  -27.4770   -5.2770 N.am  109  LEU109     -0.1977
    116  CA        44.1580  -27.9580   -4.9140 C.3   109  LEU109      0.1596
    117  C         44.5530  -27.5570   -3.4930 C.2   109  LEU109      0.2287
    118  O         44.8430  -26.3870   -3.2070 O.2   109  LEU109     -0.2864
    119  CB        45.2050  -27.5410   -5.9570 C.3   109  LEU109      0.0297
    120  CG        45.0760  -28.2700   -7.3020 C.3   109  LEU109      0.0022
    121  CD1       46.0180  -27.6740   -8.3280 C.3   109  LEU109      0.0001
    122  CD2       45.3190  -29.7670   -7.1700 C.3   109  LEU109      0.0001
    123  N         47.9250  -25.6010   -2.0030 N.3   112  GLY112     -0.1210
    124  CA        48.1340  -24.1950   -2.3420 C.3   112  GLY112      0.1956
    125  C         49.2980  -23.9630   -3.2920 C.2   112  GLY112      0.2611
    126  O         49.8210  -24.9020   -3.8930 O.2   112  GLY112     -0.2717
    127  N         49.7060  -22.7040   -3.4210 N.am  113  ALA113     -0.1979
    128  CA        50.7700  -22.3170   -4.3430 C.3   113  ALA113      0.1597
    129  C         52.1470  -22.7880   -3.8840 C.2   113  ALA113      0.2287
    130  O         52.3610  -23.0760   -2.7040 O.2   113  ALA113     -0.2864
    131  CB        50.7680  -20.8080   -4.5470 C.3   113  ALA113      0.0319
    132  N         54.5530  -20.7540   -4.2010 N.3   115  THR115     -0.1218
    133  CA        55.0690  -19.4850   -3.6810 C.3   115  THR115      0.1862
    134  C         55.1660  -19.5380   -2.1610 C.2   115  THR115      0.2287
    135  O         56.1800  -19.1530   -1.5740 O.2   115  THR115     -0.2866
    136  CB        54.1520  -18.3060   -4.0530 C.3   115  THR115      0.1770
    137  OG1       53.4470  -18.6000   -5.2630 O.3   115  THR115     -0.2211
    138  CG2       54.9650  -17.0370   -4.2290 C.3   115  THR115      0.0375
    139  N         53.4380  -17.6600  -18.6290 N.3   151  ASP151     -0.1239
    140  CA        53.4300  -17.2290  -17.2250 C.3   151  ASP151      0.1674
    141  C         53.8610  -18.3140  -16.2300 C.2   151  ASP151      0.2266
    142  O         53.0940  -18.7130  -15.3490 O.2   151  ASP151     -0.2867
    143  CB        52.0600  -16.6510  -16.8460 C.3   151  ASP151      0.1410
    144  CG        52.1370  -15.6750  -15.6790 C.2   151  ASP151      0.3668
    145  OD1       53.1540  -14.9530  -15.5620 O.co2 151  ASP151     -0.2456
    146  OD2       51.1730  -15.6230  -14.8820 O.co2 151  ASP151     -0.2456
    147  N         55.7550  -19.3660  -13.0740 N.3   153  LYS153     -0.1245
    148  CA        56.2470  -18.8560  -11.7920 C.3   153  LYS153      0.1561
    149  C         55.7290  -19.7770  -10.6880 C.2   153  LYS153      0.2260
    150  O         54.8230  -20.5800  -10.9230 O.2   153  LYS153     -0.2867
    151  CB        55.7980  -17.4050  -11.5550 C.3   153  LYS153      0.0271
    152  CG        54.2990  -17.1750  -11.6940 C.3   153  LYS153      0.0035
    153  CD        53.9190  -15.7130  -11.5170 C.3   153  LYS153      0.0206
    154  CE        52.4250  -15.5120  -11.7270 C.3   153  LYS153      0.1093
    155  NZ        51.9480  -14.1940  -11.2290 N.3   153  LYS153     -0.1314
    156  N         53.8450  -19.1700   -8.4240 N.3   155  ASP155     -0.1239
    157  CA        52.4390  -18.8500   -8.2010 C.3   155  ASP155      0.1674
    158  C         51.5240  -19.6860   -9.0910 C.2   155  ASP155      0.2266
    159  O         50.3880  -19.9930   -8.7140 O.2   155  ASP155     -0.2867
    160  CB        52.1940  -17.3570   -8.4400 C.3   155  ASP155      0.1410
    161  CG        53.2830  -16.4770   -7.8350 C.2   155  ASP155      0.3668
    162  OD1       54.4360  -16.5260   -8.3190 O.co2 155  ASP155     -0.2456
    163  OD2       52.9830  -15.7290   -6.8800 O.co2 155  ASP155     -0.2456
    164  N         50.6920  -25.4180   -8.3600 N.3   158  LEU158     -0.1245
    165  CA        49.8720  -25.7390   -7.1910 C.3   158  LEU158      0.1561
    166  C         50.0510  -27.1920   -6.7670 C.2   158  LEU158      0.2260
    167  O         50.5230  -28.0110   -7.5550 O.2   158  LEU158     -0.2867
    168  CB        48.3940  -25.4400   -7.4610 C.3   158  LEU158      0.0270
    169  CG        47.9930  -24.1230   -8.1370 C.3   158  LEU158      0.0019
    170  CD1       46.4920  -24.0860   -8.3640 C.3   158  LEU158      0.0001
    171  CD2       48.4360  -22.9080   -7.3360 C.3   158  LEU158      0.0001
    172  N         48.9290  -24.5820  -13.4110 N.3   168  SER168     -0.1202
    173  CA        47.6720  -23.8390  -13.4840 C.3   168  SER168      0.2020
    174  C         47.8610  -22.4440  -14.0760 C.2   168  SER168      0.2618
    175  O         48.9680  -22.0730  -14.4730 O.2   168  SER168     -0.2717
    176  CB        47.0540  -23.7290  -12.0870 C.3   168  SER168      0.2103
    177  OG        45.7140  -23.2750  -12.1540 O.3   168  SER168     -0.2182
    178  N         46.7650  -21.6840  -14.1300 N.am  169  ASP169     -0.1973
    179  CA        46.7610  -20.2800  -14.5640 C.3   169  ASP169      0.1709
    180  C         47.1830  -20.1310  -16.0220 C.2   169  ASP169      0.2293
    181  O         48.2430  -19.5710  -16.3270 O.2   169  ASP169     -0.2864
    182  CB        47.6270  -19.4100  -13.6380 C.3   169  ASP169      0.1436
    183  CG        47.2040  -19.5040  -12.1760 C.2   169  ASP169      0.3671
    184  OD1       46.0020  -19.7400  -11.9050 O.co2 169  ASP169     -0.2456
    185  OD2       48.0800  -19.3400  -11.2970 O.co2 169  ASP169     -0.2456
    186  N         45.7290  -18.4210  -18.3850 N.3   171  GLY171     -0.1210
    187  CA        45.1130  -17.2320  -18.9760 C.3   171  GLY171      0.1956
    188  C         45.9660  -16.4190  -19.9370 C.2   171  GLY171      0.2611
    189  O         45.4660  -15.4860  -20.5720 O.2   171  GLY171     -0.2717
    190  N         47.2460  -16.7690  -20.0480 N.am  172  PHE172     -0.1976
    191  CA        48.1750  -16.0350  -20.9090 C.3   172  PHE172      0.1639
    192  C         48.7260  -16.8890  -22.0450 C.2   172  PHE172      0.2290
    193  O         49.6420  -16.4730  -22.7570 O.2   172  PHE172     -0.2864
    194  CB        49.3230  -15.4530  -20.0830 C.3   172  PHE172      0.0560
    195  CG        48.8780  -14.4740  -19.0380 C.ar  172  PHE172     -0.0200
    196  CD1       48.5730  -13.1620  -19.3800 C.ar  172  PHE172     -0.0042
    197  CD2       48.7600  -14.8630  -17.7110 C.ar  172  PHE172     -0.0042
    198  CE1       48.1620  -12.2570  -18.4170 C.ar  172  PHE172     -0.0003
    199  CE2       48.3500  -13.9600  -16.7440 C.ar  172  PHE172     -0.0003
    200  CZ        48.0470  -12.6560  -17.0980 C.ar  172  PHE172     -0.0000
@<TRIPOS>BOND
     1   193   192    2
     2   192   191    1
     3   191   194    1
     4   191   190    1
     5    71    72    1
     6   189   188    2
     7   194   195    1
     8   190   188   am
     9   188   187    1
    10    73    72    1
    11    73    74    2
    12    72    75    1
    13   196   195   ar
    14   196   198   ar
    15   195   197   ar
    16   187   186    1
    17    75    76    1
    18   139   140    1
    19   198   200   ar
    20    76    77    1
    21   197   199   ar
    22   140   143    1
    23   140   141    1
    24   200   199   ar
    25    77    79   ar
    26    77    78   ar
    27   143   144    1
    28   181   180    2
    29   141   142    2
    30    45    43    1
    31   180   179    1
    32   144   145   ar
    33   144   146   ar
    34    83    82    2
    35    43    40    1
    36    43    44    1
    37     3     4    2
    38     3     2    1
    39   179   178    1
    40   179   182    1
    41   175   174    2
    42    40    39    1
    43    40    41    1
    44     5     2    1
    45     5     6    1
    46   178   174   am
    47   174   173    1
    48     2     1    1
    49    38    37    1
    50    82    81    1
    51    42    41    2
    52    80    81    1
    53   182   183    1
    54    39    35   am
    55   173   172    1
    56   173   176    1
    57    41    46   am
    58    36    35    2
    59    81    84    1
    60    37    34    1
    61   147   148    1
    62    35    34    1
    63     6     7    1
    64    70    69    1
    65    84    85    1
    66    84    86    1
    67     1     7    1
    68    68    69    1
    69    68    67    1
    70    65    64    2
    71    93    92    1
    72    93    94    1
    73    34    33    1
    74   183   184   ar
    75   183   185   ar
    76    91    88    1
    77    91    92    1
    78    46    47    1
    79   177   176    1
    80    67    66    1
    81    66    63    1
    82   148   151    1
    83   148   149    1
    84    88    87    1
    85    88    89    1
    86   154   153    1
    87   154   155    1
    88   152   151    1
    89   152   153    1
    90    64    63    1
    91    33    31   am
    92    47    48    1
    93   103   101   ar
    94   150   149    2
    95    63    62    1
    96    89    95   am
    97    89    90    2
    98    95    96    1
    99   100   101    1
   100   100    99    1
   101   101   102   ar
   102    48    49    2
   103    31    32    2
   104    31    30    1
   105    99    96    1
   106    96    97    1
   107    30    29    1
   108   158   159    2
   109   158   157    1
   110    60    59    2
   111   160   157    1
   112   160   161    1
   113   156   157    1
   114    56    54    1
   115    98    97    2
   116   170   169    1
   117   164   165    1
   118   121   120    1
   119   162   161   ar
   120    29    22   am
   121   169   168    1
   122   169   171    1
   123    97   104   am
   124    59    58    1
   125   161   163   ar
   126   167   166    2
   127   168   165    1
   128   120   122    1
   129   120   119    1
   130    50    51    1
   131   165   166    1
   132    54    51    1
   133    54    55    1
   134    51    52    1
   135    61    58    1
   136    58    57    1
   137    22    23    2
   138    22    21    1
   139   104   105    1
   140    28    26   ar
   141    21    24    1
   142    21    20    1
   143   119   116    1
   144    24    25    1
   145    52    53    2
   146   105   106    1
   147   105   108    1
   148    19    18    2
   149   106   115   am
   150   106   107    2
   151   115   116    1
   152   137   136    1
   153    26    25    1
   154    26    27   ar
   155   116   117    1
   156    20    18   am
   157    18    17    1
   158   131   128    1
   159   108   109    1
   160   128   129    1
   161   128   127    1
   162   138   136    1
   163   132   133    1
   164   136   133    1
   165   126   125    2
   166   129   130    2
   167   133   134    1
   168   117   118    2
   169   127   125   am
   170   125   124    1
   171   109   110   ar
   172   109   111   ar
   173    17    16    1
   174   110   112   ar
   175    16    10   am
   176    15    13    1
   177   124   123    1
   178   134   135    2
   179   111   113   ar
   180    12    13    1
   181    12    14    1
   182    12     9    1
   183   112   114   ar
   184     8     9    1
   185    10     9    1
   186    10    11    2
   187   113   114   ar
