@<TRIPOS>MOLECULE
tmp/4fiiA00.pdb
 215 208 0 0 0
SMALL
GASTEIGER

@<TRIPOS>ATOM
      1  N         26.2920  -20.3530  -12.9000 N.3    32  GLY32      -0.1210
      2  CA        25.5490  -19.7810  -11.8220 C.3    32  GLY32       0.1956
      3  C         24.2830  -20.5470  -11.5950 C.2    32  GLY32       0.2612
      4  O         24.2180  -21.7770  -11.8860 O.2    32  GLY32      -0.2717
      5  N         23.3100  -19.8050  -11.0380 N.am   33  SER33      -0.1952
      6  CA        21.9490  -20.2610  -10.7730 C.3    33  SER33       0.1924
      7  C         21.5020  -21.4000  -11.7180 C.2    33  SER33       0.2314
      8  O         21.4880  -22.5750  -11.3040 O.2    33  SER33      -0.2863
      9  CB        20.9540  -19.0550  -10.7560 C.3    33  SER33       0.2116
     10  OG        20.9550  -18.2160  -11.9290 O.3    33  SER33      -0.2180
     11  N         15.2450  -27.3990  -12.3870 N.3    60  GLN60      -0.1231
     12  CA        14.2370  -27.9060  -11.4150 C.3    60  GLN60       0.1698
     13  C         12.8110  -27.4850  -11.8210 C.2    60  GLN60       0.2592
     14  O         11.9350  -28.2950  -11.8740 O.2    60  GLN60      -0.2718
     15  CB        14.5160  -27.4160   -9.9900 C.3    60  GLN60       0.0381
     16  CG        15.9080  -27.7060   -9.4210 C.3    60  GLN60       0.0905
     17  CD        16.1360  -29.1880   -9.1530 C.2    60  GLN60       0.2608
     18  OE1       15.4120  -29.8170   -8.3700 O.2    60  GLN60      -0.2717
     19  NE2       17.1470  -29.7570   -9.8160 N.am   60  GLN60      -0.0878
     20  N         12.6080  -26.2110  -12.1650 N.am   61  ARG61      -0.1980
     21  CA        11.3020  -25.7520  -12.6100 C.3    61  ARG61       0.1597
     22  C         11.5130  -24.9930  -13.9230 C.2    61  ARG61       0.2287
     23  O         11.9250  -23.8280  -13.9070 O.2    61  ARG61      -0.2864
     24  CB        10.7260  -24.8040  -11.5310 C.3    61  ARG61       0.0334
     25  CG        10.2570  -25.5050  -10.2300 C.3    61  ARG61       0.0492
     26  CD         9.7300  -24.5600   -9.1350 C.3    61  ARG61       0.2205
     27  NE         8.7280  -23.6430   -9.6740 N.pl3  61  ARG61      -0.0865
     28  CZ         8.3930  -22.4650   -9.1240 C.cat  61  ARG61       0.5346
     29  NH1        8.9520  -22.0210   -7.9620 N.pl3  61  ARG61       0.1354
     30  NH2        7.5240  -21.7290   -9.7790 N.pl3  61  ARG61       0.1354
     31  N         10.2670  -21.3330  -14.6620 N.3    64  LEU64      -0.1245
     32  CA        10.9920  -20.1200  -14.1940 C.3    64  LEU64       0.1561
     33  C         11.9050  -19.4880  -15.2990 C.2    64  LEU64       0.2260
     34  O         12.2960  -18.3140  -15.2080 O.2    64  LEU64      -0.2867
     35  CB        11.8200  -20.4220  -12.9230 C.3    64  LEU64       0.0270
     36  CG        10.9890  -20.8200  -11.7010 C.3    64  LEU64       0.0019
     37  CD1       11.9570  -21.0970  -10.5420 C.3    64  LEU64       0.0001
     38  CD2       10.0680  -19.6560  -11.4000 C.3    64  LEU64       0.0001
     39  N         31.1780  -11.5320   -5.2650 N.3   106  THR106     -0.1218
     40  CA        31.7890  -12.6690   -4.5520 C.3   106  THR106      0.1862
     41  C         33.3130  -12.6520   -4.6130 C.2   106  THR106      0.2287
     42  O         33.9970  -13.0020   -3.6390 O.2   106  THR106     -0.2866
     43  CB        31.3060  -14.0120   -5.1630 C.3   106  THR106      0.1770
     44  OG1       29.8660  -13.9990   -5.1510 O.3   106  THR106     -0.2211
     45  CG2       31.7800  -15.1870   -4.3350 C.3   106  THR106      0.0375
     46  N         35.4930  -12.5750   -1.0600 N.3   110  THR110     -0.1218
     47  CA        36.2870  -13.7250   -0.5840 C.3   110  THR110      0.1862
     48  C         37.8410  -13.4270   -0.5550 C.2   110  THR110      0.2287
     49  O         38.6400  -14.1870   -0.0010 O.2   110  THR110     -0.2866
     50  CB        35.9580  -14.9940   -1.3960 C.3   110  THR110      0.1770
     51  OG1       36.0970  -14.6730   -2.7800 O.3   110  THR110     -0.2211
     52  CG2       34.4820  -15.4870   -1.1970 C.3   110  THR110      0.0375
     53  N         16.9520  -14.2650   -4.9430 N.3   142  ASP142     -0.1239
     54  CA        18.2990  -14.8870   -4.8410 C.3   142  ASP142      0.1674
     55  C         19.3820  -13.8320   -4.6670 C.2   142  ASP142      0.2266
     56  O         20.4350  -13.8630   -5.3260 O.2   142  ASP142     -0.2867
     57  CB        18.5660  -15.7340   -6.0960 C.3   142  ASP142      0.1410
     58  CG        19.5740  -16.8420   -5.8550 C.2   142  ASP142      0.3668
     59  OD1       19.8890  -17.1900   -4.6930 O.co2 142  ASP142     -0.2456
     60  OD2       20.0490  -17.3880   -6.8860 O.co2 142  ASP142     -0.2456
     61  N         22.4150  -12.3310   -3.1030 N.3   144  LYS144     -0.1231
     62  CA        23.6710  -12.8810   -2.5630 C.3   144  LYS144      0.1693
     63  C         24.8190  -12.1690   -3.3230 C.2   144  LYS144      0.2593
     64  O         24.5750  -11.5550   -4.3640 O.2   144  LYS144     -0.2718
     65  CB        23.7650  -14.4260   -2.7260 C.3   144  LYS144      0.0285
     66  CG        23.6820  -14.9120   -4.1700 C.3   144  LYS144      0.0035
     67  CD        23.6530  -16.4280   -4.1810 C.3   144  LYS144      0.0206
     68  CE        23.5660  -17.0590   -5.5940 C.3   144  LYS144      0.1093
     69  NZ        23.5750  -18.5310   -5.3110 N.3   144  LYS144     -0.1314
     70  N         26.0520  -12.1860   -2.7770 N.am  145  SER145     -0.1938
     71  CA        27.1650  -11.5460   -3.4950 C.3   145  SER145      0.2055
     72  C         27.3440  -12.0770   -4.9340 C.2   145  SER145      0.2643
     73  O         27.7340  -11.2960   -5.8250 O.2   145  SER145     -0.2714
     74  CB        28.4990  -11.7100   -2.7600 C.3   145  SER145      0.2130
     75  OG        28.8490  -13.0900   -2.7270 O.3   145  SER145     -0.2179
     76  N         27.0440  -13.3710   -5.1910 N.am  146  ASP146     -0.1971
     77  CA        27.1620  -13.9220   -6.5560 C.3   146  ASP146      0.1709
     78  C         26.2620  -13.2650   -7.5950 C.2   146  ASP146      0.2293
     79  O         26.6140  -13.2330   -8.7820 O.2   146  ASP146     -0.2864
     80  CB        26.9820  -15.4630   -6.6000 C.3   146  ASP146      0.1436
     81  CG        27.4360  -16.1480   -5.3250 C.2   146  ASP146      0.3671
     82  OD1       27.0630  -15.7580   -4.1870 O.co2 146  ASP146     -0.2456
     83  OD2       28.2230  -17.0870   -5.4490 O.co2 146  ASP146     -0.2456
     84  N         15.0120  -16.7100  -10.6210 N.3   163  PHE163     -0.1241
     85  CA        14.1420  -17.2060   -9.5420 C.3   163  PHE163      0.1605
     86  C         13.1180  -16.2290   -9.0760 C.2   163  PHE163      0.2264
     87  O         12.4320  -16.4840   -8.0780 O.2   163  PHE163     -0.2867
     88  CB        14.9520  -17.7320   -8.3620 C.3   163  PHE163      0.0534
     89  CG        15.8590  -18.8860   -8.7240 C.ar  163  PHE163     -0.0203
     90  CD1       15.4590  -19.8620   -9.6630 C.ar  163  PHE163     -0.0042
     91  CD2       17.1190  -19.0050   -8.1550 C.ar  163  PHE163     -0.0042
     92  CE1       16.3080  -20.9160  -10.0320 C.ar  163  PHE163     -0.0003
     93  CE2       17.9710  -20.0440   -8.5360 C.ar  163  PHE163     -0.0003
     94  CZ        17.5600  -21.0110   -9.4620 C.ar  163  PHE163     -0.0000
     95  N          9.6130  -22.5920   -2.3530 N.3   176  LEU176     -0.1231
     96  CA        10.8970  -22.7390   -1.6300 C.3   176  LEU176      0.1693
     97  C         12.0050  -22.4890   -2.6620 C.2   176  LEU176      0.2592
     98  O         12.2890  -23.3410   -3.5030 O.2   176  LEU176     -0.2718
     99  CB        11.0000  -24.1190   -0.9490 C.3   176  LEU176      0.0284
    100  CG        12.4100  -24.3530   -0.3230 C.3   176  LEU176      0.0019
    101  CD1       12.6640  -23.3660    0.7720 C.3   176  LEU176      0.0001
    102  CD2       12.5300  -25.8190    0.1720 C.3   176  LEU176      0.0001
    103  N         12.5600  -21.2790   -2.6580 N.am  177  VAL177     -0.1966
    104  CA        13.4790  -20.8270   -3.7190 C.3   177  VAL177      0.1727
    105  C         14.5290  -19.8710   -3.1220 C.2   177  VAL177      0.2617
    106  O         14.2520  -19.0970   -2.2120 O.2   177  VAL177     -0.2715
    107  CB        12.6920  -20.1890   -4.9140 C.3   177  VAL177      0.0290
    108  CG1       13.0250  -18.7440   -5.1320 C.3   177  VAL177      0.0023
    109  CG2       12.9500  -20.9610   -6.1940 C.3   177  VAL177      0.0023
    110  N         15.7450  -19.9810   -3.6380 N.am  178  GLY178     -0.1940
    111  CA        16.8630  -19.1200   -3.2410 C.3   178  GLY178      0.2014
    112  C         18.1030  -19.9790   -3.1080 C.2   178  GLY178      0.2640
    113  O         18.2040  -21.0240   -3.7530 O.2   178  GLY178     -0.2714
    114  N         19.0670  -19.5110   -2.3010 N.am  179  THR179     -0.1937
    115  CA        20.2880  -20.2590   -1.9440 C.3   179  THR179      0.2013
    116  C         20.3080  -20.3760   -0.4190 C.2   179  THR179      0.2484
    117  O         20.2480  -19.3500    0.2700 O.2   179  THR179     -0.2729
    118  CB        21.5220  -19.5190   -2.4580 C.3   179  THR179      0.1807
    119  OG1       21.3370  -19.2640   -3.8550 O.3   179  THR179     -0.2208
    120  CG2       22.8370  -20.3640   -2.2080 C.3   179  THR179      0.0379
    121  N         20.3460  -21.6310    0.1140 N.am  180  PRO180     -0.2715
    122  CA        20.0730  -21.8820    1.5240 C.3   180  PRO180      0.1536
    123  C         20.5440  -20.7850    2.5240 C.2   180  PRO180      0.2599
    124  O         19.7240  -20.3130    3.3740 O.2   180  PRO180     -0.2715
    125  CB        20.7590  -23.2600    1.7490 C.3   180  PRO180      0.0310
    126  CG        20.5090  -23.9560    0.4440 C.3   180  PRO180      0.0237
    127  CD        20.5200  -22.9130   -0.6260 C.3   180  PRO180      0.0939
    128  N         21.8170  -20.3740    2.4340 N.am  181  TYR181     -0.1960
    129  CA        22.4490  -19.6000    3.5410 C.3   181  TYR181      0.1771
    130  C         21.8930  -18.1950    3.5570 C.2   181  TYR181      0.2620
    131  O         22.0280  -17.4840    4.5290 O.2   181  TYR181     -0.2715
    132  CB        24.0010  -19.5310    3.3910 C.3   181  TYR181      0.0574
    133  CG        24.6180  -20.9010    3.2820 C.ar  181  TYR181     -0.0198
    134  CD1       24.8690  -21.6480    4.4280 C.ar  181  TYR181     -0.0009
    135  CD2       24.9330  -21.4550    2.0570 C.ar  181  TYR181     -0.0009
    136  CE1       25.3700  -22.9290    4.3470 C.ar  181  TYR181      0.0417
    137  CE2       25.4830  -22.7280    1.9690 C.ar  181  TYR181      0.0417
    138  CZ        25.6840  -23.4550    3.1410 C.ar  181  TYR181      0.1957
    139  OH        26.1590  -24.7500    3.1410 O.3   181  TYR181     -0.2866
    140  N         21.3100  -17.7950    2.4270 N.am  182  TRP182     -0.1960
    141  CA        20.7540  -16.4650    2.2920 C.3   182  TRP182      0.1771
    142  C         19.2510  -16.4110    2.4730 C.2   182  TRP182      0.2619
    143  O         18.6890  -15.3130    2.4010 O.2   182  TRP182     -0.2715
    144  CB        21.1080  -15.8380    0.9320 C.3   182  TRP182      0.0590
    145  CG        22.5820  -15.4870    0.7990 C.ar  182  TRP182      0.0006
    146  CD1       23.2070  -14.2310    0.9860 C.ar  182  TRP182      0.0946
    147  CD2       23.6380  -16.3970    0.3950 C.ar  182  TRP182      0.0152
    148  NE1       24.5740  -14.3220    0.7670 N.ar  182  TRP182     -0.2442
    149  CE2       24.8970  -15.6020    0.3920 C.ar  182  TRP182      0.0810
    150  CE3       23.6780  -17.7730    0.0280 C.ar  182  TRP182      0.0012
    151  CZ2       26.1250  -16.1690    0.0400 C.ar  182  TRP182      0.0191
    152  CZ3       24.9330  -18.3320   -0.3170 C.ar  182  TRP182      0.0001
    153  CH2       26.1220  -17.5360   -0.3180 C.ar  182  TRP182      0.0015
    154  N         18.5870  -17.5520    2.6460 N.am  183  MET183     -0.1977
    155  CA        17.1030  -17.5610    2.6030 C.3   183  MET183      0.1605
    156  C         16.4600  -16.9250    3.8310 C.2   183  MET183      0.2287
    157  O         16.9190  -17.1620    4.9510 O.2   183  MET183     -0.2864
    158  CB        16.6030  -18.9640    2.4440 C.3   183  MET183      0.0413
    159  CG        16.9370  -19.5700    1.0960 C.3   183  MET183      0.0598
    160  SD        16.3290  -21.2740    1.2540 S.3   183  MET183     -0.1393
    161  CE        16.8050  -21.8520   -0.3800 C.3   183  MET183      0.0692
    162  N         28.4080  -11.1870    4.4590 N.3   208  GLU208     -0.1245
    163  CA        29.4260  -11.5330    3.4820 C.3   208  GLU208      0.1567
    164  C         30.4540  -10.4310    3.3200 C.2   208  GLU208      0.2260
    165  O         31.6630  -10.6910    3.3560 O.2   208  GLU208     -0.2867
    166  CB        28.7810  -11.7300    2.1240 C.3   208  GLU208      0.0388
    167  CG        28.1220  -13.0940    1.8970 C.3   208  GLU208      0.1160
    168  CD        27.8500  -13.2180    0.4080 C.2   208  GLU208      0.3649
    169  OE1       26.8170  -12.7190   -0.0130 O.co2 208  GLU208     -0.2457
    170  OE2       28.7170  -13.7480   -0.3220 O.co2 208  GLU208     -0.2457
    171  N         33.2720  -12.0740    4.8810 N.3   212  GLY212     -0.1225
    172  CA        33.8510  -12.8530    3.7910 C.3   212  GLY212      0.1811
    173  C         32.9320  -14.0320    3.4460 C.2   212  GLY212      0.2280
    174  O         33.0610  -14.5820    2.3530 O.2   212  GLY212     -0.2866
    175  N         28.6220  -15.7910    4.4110 N.3   214  PRO214     -0.2116
    176  CA        27.3540  -15.7650    5.1340 C.3   214  PRO214      0.1372
    177  C         27.5170  -16.6610    6.3750 C.2   214  PRO214      0.2244
    178  O         28.4640  -17.4740    6.4000 O.2   214  PRO214     -0.2868
    179  CB        26.4070  -16.4710    4.1540 C.3   214  PRO214      0.0268
    180  CG        27.2860  -17.4720    3.4330 C.3   214  PRO214      0.0207
    181  CD        28.5890  -16.7400    3.2600 C.3   214  PRO214      0.0892
    182  N         28.2190  -21.0590    7.0280 N.3   217  PHE217     -0.1241
    183  CA        28.7010  -21.4310    5.6880 C.3   217  PHE217      0.1605
    184  C         29.4120  -22.7750    5.7520 C.2   217  PHE217      0.2264
    185  O         29.4610  -23.4800    4.7670 O.2   217  PHE217     -0.2867
    186  CB        29.6430  -20.3640    5.1190 C.3   217  PHE217      0.0534
    187  CG        29.8650  -20.4350    3.6110 C.ar  217  PHE217     -0.0203
    188  CD1       28.7850  -20.4890    2.7180 C.ar  217  PHE217     -0.0042
    189  CD2       31.1690  -20.3580    3.0900 C.ar  217  PHE217     -0.0042
    190  CE1       29.0140  -20.5200    1.3490 C.ar  217  PHE217     -0.0003
    191  CE2       31.4060  -20.3870    1.7230 C.ar  217  PHE217     -0.0003
    192  CZ        30.3200  -20.4420    0.8510 C.ar  217  PHE217     -0.0000
    193  N         23.9950  -27.3920    3.6080 N.3   221  PRO221     -0.2102
    194  CA        22.8670  -26.4600    3.3420 C.3   221  PRO221      0.1504
    195  C         21.6080  -26.6760    4.2130 C.2   221  PRO221      0.2575
    196  O         21.0640  -25.6910    4.7470 O.2   221  PRO221     -0.2718
    197  CB        22.5500  -26.7150    1.8670 C.3   221  PRO221      0.0282
    198  CG        23.8630  -27.1390    1.2680 C.3   221  PRO221      0.0208
    199  CD        24.5790  -27.9240    2.3560 C.3   221  PRO221      0.0893
    200  N         21.1950  -27.9450    4.3630 N.am  222  LEU222     -0.1980
    201  CA        19.9170  -28.3140    4.9980 C.3   222  LEU222      0.1596
    202  C         19.9450  -28.0000    6.4620 C.2   222  LEU222      0.2287
    203  O         18.9450  -27.5420    7.0110 O.2   222  LEU222     -0.2864
    204  CB        19.5190  -29.7820    4.7640 C.3   222  LEU222      0.0297
    205  CG        19.1360  -30.1980    3.3270 C.3   222  LEU222      0.0022
    206  CD1       18.8500  -31.6970    3.2340 C.3   222  LEU222      0.0001
    207  CD2       18.0030  -29.3770    2.6920 C.3   222  LEU222      0.0001
    208  N         19.7860  -24.0030    7.0260 N.3   225  MET225     -0.1245
    209  CA        18.3910  -23.5390    6.9410 C.3   225  MET225      0.1570
    210  C         17.6620  -23.7710    8.2440 C.2   225  MET225      0.2261
    211  O         16.9950  -22.8490    8.7470 O.2   225  MET225     -0.2867
    212  CB        17.6390  -24.2300    5.7930 C.3   225  MET225      0.0387
    213  CG        18.2390  -23.8920    4.4360 C.3   225  MET225      0.0595
    214  SD        17.6200  -24.8430    3.0100 S.3   225  MET225     -0.1393
    215  CE        17.3940  -26.5040    3.5930 C.3   225  MET225      0.0692
@<TRIPOS>BOND
     1    33    34    2
     2    33    32    1
     3    31    32    1
     4    32    35    1
     5    22    23    2
     6    22    21    1
     7    35    36    1
     8     1     2    1
     9    21    20    1
    10    21    24    1
    11    11    12    1
    12    20    13   am
    13    10     9    1
    14     4     3    2
    15    14    13    2
    16     2     3    1
    17    13    12    1
    18     7     8    2
    19     7     6    1
    20    36    38    1
    21    36    37    1
    22     3     5   am
    23    24    25    1
    24    12    15    1
    25     5     6    1
    26     6     9    1
    27    84    85    1
    28    25    26    1
    29    92    90   ar
    30    92    94   ar
    31    15    16    1
    32    19    17   am
    33    30    28    1
    34    27    26    1
    35    27    28    2
    36    90    89   ar
    37    85    86    1
    38    85    88    1
    39    94    93   ar
    40    16    17    1
    41    17    18    2
    42    28    29    1
    43    86    87    2
    44    79    78    2
    45    89    88    1
    46    89    91   ar
    47    93    91   ar
    48    78    77    1
    49    60    58   ar
    50    80    77    1
    51    80    81    1
    52    77    76    1
    53   109   107    1
    54    57    58    1
    55    57    54    1
    56    58    59   ar
    57    73    72    2
    58    68    69    1
    59    68    67    1
    60    83    81   ar
    61    56    55    2
    62    81    82   ar
    63    39    40    1
    64    76    72   am
    65    43    44    1
    66    43    40    1
    67    43    45    1
    68   108   107    1
    69    53    54    1
    70    72    71    1
    71   107   104    1
    72    54    55    1
    73    41    40    1
    74    41    42    2
    75    64    63    2
    76    67    66    1
    77    66    65    1
    78   119   118    1
    79   113   112    2
    80   104   105    1
    81   104   103    1
    82   110   111    1
    83   110   105   am
    84    98    97    2
    85    71    70    1
    86    71    74    1
    87    63    70   am
    88    63    62    1
    89   111   112    1
    90   105   106    2
    91   112   114   am
    92    61    62    1
    93    51    50    1
    94    74    75    1
    95    65    62    1
    96    97   103   am
    97    97    96    1
    98   118   120    1
    99   118   115    1
   100    95    96    1
   101   114   115    1
   102   115   116    1
   103    96    99    1
   104    50    52    1
   105    50    47    1
   106    46    47    1
   107    99   100    1
   108   127   121    1
   109   127   126    1
   110    47    48    1
   111    48    49    2
   112   116   121   am
   113   116   117    2
   114   161   160    1
   115   100   102    1
   116   100   101    1
   117   170   168   ar
   118   153   152   ar
   119   153   151   ar
   120   152   150   ar
   121   169   168   ar
   122   150   147   ar
   123   151   149   ar
   124   121   122    1
   125   149   147   ar
   126   149   148   ar
   127   147   145   ar
   128   168   167    1
   129   126   125    1
   130   148   146   ar
   131   145   144    1
   132   145   146   ar
   133   192   190   ar
   134   192   191   ar
   135   144   141    1
   136   159   160    1
   137   159   158    1
   138   198   197    1
   139   198   199    1
   140   190   188   ar
   141   122   125    1
   142   122   123    1
   143   191   189   ar
   144   197   194    1
   145   167   166    1
   146   137   135   ar
   147   137   138   ar
   148   135   133   ar
   149   166   163    1
   150   141   140    1
   151   141   142    1
   152   174   173    2
   153   199   193    1
   154   143   142    2
   155   140   130   am
   156   128   123   am
   157   128   129    1
   158   158   155    1
   159   142   154   am
   160   123   124    2
   161   155   154    1
   162   155   156    1
   163   207   205    1
   164   188   187   ar
   165   214   215    1
   166   214   213    1
   167   189   187   ar
   168   139   138    1
   169   138   136   ar
   170   206   205    1
   171   181   180    1
   172   181   175    1
   173   133   132    1
   174   133   134   ar
   175   164   165    2
   176   164   163    1
   177   205   204    1
   178   194   193    1
   179   194   195    1
   180   132   129    1
   181   180   179    1
   182   173   172    1
   183   163   162    1
   184   129   130    1
   185   130   131    2
   186   187   186    1
   187   172   171    1
   188   156   157    2
   189   179   176    1
   190   195   200   am
   191   195   196    2
   192   136   134   ar
   193   200   201    1
   194   175   176    1
   195   213   212    1
   196   204   201    1
   197   185   184    2
   198   201   202    1
   199   186   183    1
   200   176   177    1
   201   183   184    1
   202   183   182    1
   203   212   209    1
   204   177   178    2
   205   202   203    2
   206   209   208    1
   207   209   210    1
   208   210   211    2
