@<TRIPOS>MOLECULE
tmp/4fikA00.pdb
 115 110 0 0 0
SMALL
GASTEIGER

@<TRIPOS>ATOM
      1  N        -12.6140    6.3150   11.3640 N.3    89  GLN89      -0.1245
      2  CA       -12.2540    5.1700   10.5240 C.3    89  GLN89       0.1566
      3  C        -12.5140    3.8810   11.2670 C.2    89  GLN89       0.2260
      4  O        -12.5990    3.8780   12.4940 O.2    89  GLN89      -0.2867
      5  CB       -10.7810    5.2100   10.0730 C.3    89  GLN89       0.0367
      6  CG        -9.7700    5.2450   11.2200 C.3    89  GLN89       0.0905
      7  CD        -8.9280    3.9950   11.3260 C.2    89  GLN89       0.2608
      8  OE1       -9.4300    2.8840   11.2960 O.2    89  GLN89      -0.2717
      9  NE2       -7.6390    4.1800   11.5700 N.am   89  GLN89      -0.0878
     10  N        -10.9830   -0.3860   11.0020 N.3    91  HIS91      -0.1241
     11  CA       -10.0960   -1.3790   10.4190 C.3    91  HIS91       0.1621
     12  C        -10.2090   -2.6590   11.2160 C.2    91  HIS91       0.2264
     13  O        -10.8150   -2.6730   12.2850 O.2    91  HIS91      -0.2867
     14  CB        -8.6470   -0.8790   10.3910 C.3    91  HIS91       0.0745
     15  CG        -8.0970   -0.6030   11.7510 C.ar   91  HIS91       0.0817
     16  ND1       -8.2500    0.6100   12.3790 N.ar   91  HIS91      -0.2268
     17  CD2       -7.4490   -1.3970   12.6320 C.ar   91  HIS91       0.1154
     18  CE1       -7.7070    0.5540   13.5860 C.ar   91  HIS91       0.1986
     19  NE2       -7.2000   -0.6620   13.7660 N.ar   91  HIS91      -0.2212
     20  N         -7.8840   -6.3860   12.4830 N.3    93  HIS93      -0.1241
     21  CA        -6.6870   -7.1810   12.6440 C.3    93  HIS93       0.1621
     22  C         -7.1310   -8.6340   12.5540 C.2    93  HIS93       0.2264
     23  O         -8.1870   -8.9910   13.0820 O.2    93  HIS93      -0.2867
     24  CB        -6.0260   -6.8960   13.9870 C.3    93  HIS93       0.0745
     25  CG        -5.7300   -5.4390   14.2260 C.ar   93  HIS93       0.0817
     26  ND1       -4.5170   -4.8600   13.9440 N.ar   93  HIS93      -0.2268
     27  CD2       -6.5050   -4.4400   14.7240 C.ar   93  HIS93       0.1154
     28  CE1       -4.5400   -3.5780   14.2780 C.ar   93  HIS93       0.1986
     29  NE2       -5.7480   -3.2890   14.7430 N.ar   93  HIS93      -0.2212
     30  N        -11.8220   -2.6320   14.9110 N.3   116  HIS116     -0.1241
     31  CA       -11.5750   -1.4030   15.6640 C.3   116  HIS116      0.1621
     32  C        -12.2910   -0.2390   15.0010 C.2   116  HIS116      0.2264
     33  O        -11.9130    0.1690   13.8980 O.2   116  HIS116     -0.2867
     34  CB       -10.0800   -1.1180   15.7060 C.3   116  HIS116      0.0745
     35  CG        -9.3550   -2.0740   16.5960 C.ar  116  HIS116      0.0817
     36  ND1       -7.9820   -2.2200   16.6240 N.ar  116  HIS116     -0.2268
     37  CD2       -9.8600   -2.9610   17.4900 C.ar  116  HIS116      0.1154
     38  CE1       -7.6730   -3.1420   17.5240 C.ar  116  HIS116      0.1986
     39  NE2       -8.7930   -3.6070   18.0570 N.ar  116  HIS116     -0.2212
     40  N        -12.7660    3.5510   15.3290 N.3   118  VAL118     -0.1245
     41  CA       -11.9200    4.5680   15.9480 C.3   118  VAL118      0.1561
     42  C        -12.6290    5.9140   15.9820 C.2   118  VAL118      0.2260
     43  O        -13.0970    6.3990   14.9440 O.2   118  VAL118     -0.2867
     44  CB       -10.6100    4.7260   15.1560 C.3   118  VAL118      0.0252
     45  CG1       -9.7040    5.7560   15.7930 C.3   118  VAL118      0.0019
     46  CG2       -9.8830    3.3790   15.0080 C.3   118  VAL118      0.0019
     47  N         -8.3800   14.8740   14.8990 N.3   127  PHE127     -0.1241
     48  CA        -7.7590   13.6030   15.2630 C.3   127  PHE127      0.1605
     49  C         -6.2900   13.7810   15.6790 C.2   127  PHE127      0.2264
     50  O         -5.8450   13.1630   16.6490 O.2   127  PHE127     -0.2867
     51  CB        -7.8920   12.6100   14.0990 C.3   127  PHE127      0.0534
     52  CG        -7.2580   11.2950   14.3410 C.ar  127  PHE127     -0.0203
     53  CD1       -7.9660   10.2770   14.9830 C.ar  127  PHE127     -0.0042
     54  CD2       -5.9380   11.0630   13.9670 C.ar  127  PHE127     -0.0042
     55  CE1       -7.3770    9.0370   15.1950 C.ar  127  PHE127     -0.0003
     56  CE2       -5.3490    9.8220   14.1900 C.ar  127  PHE127     -0.0003
     57  CZ        -6.0750    8.8140   14.8120 C.ar  127  PHE127     -0.0000
     58  N         -8.9330    9.3610   22.2410 N.3   137  LEU137     -0.1245
     59  CA        -9.6220    8.4240   21.3650 C.3   137  LEU137      0.1561
     60  C        -10.4890    7.4930   22.1980 C.2   137  LEU137      0.2260
     61  O        -10.1790    7.1670   23.3540 O.2   137  LEU137     -0.2867
     62  CB        -8.6470    7.5630   20.5500 C.3   137  LEU137      0.0270
     63  CG        -7.7540    8.2430   19.5240 C.3   137  LEU137      0.0019
     64  CD1       -7.0460    7.1570   18.7130 C.3   137  LEU137      0.0001
     65  CD2       -8.4080    9.3110   18.6880 C.3   137  LEU137      0.0001
     66  N        -11.9120    3.6700   21.2000 N.3   139  VAL139     -0.1245
     67  CA       -11.9400    2.6230   20.1820 C.3   139  VAL139      0.1561
     68  C        -12.8820    1.5360   20.6500 C.2   139  VAL139      0.2260
     69  O        -12.7250    0.9990   21.7410 O.2   139  VAL139     -0.2867
     70  CB       -10.5410    2.0820   19.8210 C.3   139  VAL139      0.0252
     71  CG1      -10.6550    1.0410   18.7230 C.3   139  VAL139      0.0019
     72  CG2       -9.6270    3.2150   19.3930 C.3   139  VAL139      0.0019
     73  N         -2.9360    2.7630   21.0710 N.3   194  LEU194     -0.1231
     74  CA        -2.9690    2.1590   19.7330 C.3   194  LEU194      0.1693
     75  C         -2.2320    0.8170   19.8000 C.2   194  LEU194      0.2593
     76  O         -1.2750    0.6660   20.5870 O.2   194  LEU194     -0.2718
     77  CB        -2.2780    3.0530   18.7050 C.3   194  LEU194      0.0284
     78  CG        -2.6320    4.5410   18.6890 C.3   194  LEU194      0.0019
     79  CD1       -1.8080    5.2480   17.6070 C.3   194  LEU194      0.0001
     80  CD2       -4.0930    4.7590   18.4520 C.3   194  LEU194      0.0001
     81  N         -2.6640   -0.1430   18.9890 N.am  195  THR195     -0.1939
     82  CA        -1.9840   -1.4240   18.9720 C.3   195  THR195      0.2028
     83  C         -0.9460   -1.5210   17.8600 C.2   195  THR195      0.2642
     84  O         -0.3290   -2.5590   17.6940 O.2   195  THR195     -0.2714
     85  CB        -2.9520   -2.5960   18.8430 C.3   195  THR195      0.1808
     86  OG1       -3.5590   -2.5090   17.5570 O.3   195  THR195     -0.2208
     87  CG2       -4.0040   -2.6080   19.9470 C.3   195  THR195      0.0379
     88  N         -0.7470   -0.4310   17.1230 N.am  196  THR196     -0.1950
     89  CA         0.2880   -0.3180   16.1010 C.3   196  THR196      0.1897
     90  C          1.1110    0.9240   16.4050 C.2   196  THR196      0.2313
     91  O          0.6090    1.8680   17.0200 O.2   196  THR196     -0.2863
     92  CB        -0.3370   -0.1390   14.7080 C.3   196  THR196      0.1794
     93  OG1       -1.1710    1.0280   14.6970 O.3   196  THR196     -0.2208
     94  CG2       -1.1870   -1.3180   14.3710 C.3   196  THR196      0.0378
     95  N         -5.9840    6.0430   24.2510 N.3   203  VAL203     -0.1245
     96  CA        -7.2250    5.3260   23.9460 C.3   203  VAL203      0.1561
     97  C         -8.0070    4.8820   25.1920 C.2   203  VAL203      0.2260
     98  O         -7.4420    4.2100   26.0560 O.2   203  VAL203     -0.2867
     99  CB        -6.9570    4.0470   23.0870 C.3   203  VAL203      0.0252
    100  CG1       -8.2610    3.3370   22.7550 C.3   203  VAL203      0.0019
    101  CG2       -6.1810    4.3990   21.7990 C.3   203  VAL203      0.0019
    102  N        -10.4050    2.1250   25.6700 N.3   205  TRP205     -0.1241
    103  CA       -10.8560    0.9370   24.9900 C.3   205  TRP205      0.1605
    104  C        -12.2260    0.5400   25.4930 C.2   205  TRP205      0.2264
    105  O        -12.4540    0.4910   26.6970 O.2   205  TRP205     -0.2867
    106  CB        -9.8680   -0.2400   25.2030 C.3   205  TRP205      0.0550
    107  CG        -8.7180   -0.1430   24.2560 C.ar  205  TRP205      0.0003
    108  CD1       -7.4950    0.4110   24.4680 C.ar  205  TRP205      0.0946
    109  CD2       -8.7590   -0.5120   22.8710 C.ar  205  TRP205      0.0152
    110  NE1       -6.7570    0.3690   23.3200 N.ar  205  TRP205     -0.2442
    111  CE2       -7.5160   -0.1850   22.3140 C.ar  205  TRP205      0.0810
    112  CE3       -9.7270   -1.1040   22.0770 C.ar  205  TRP205      0.0012
    113  CZ2       -7.2280   -0.4210   20.9830 C.ar  205  TRP205      0.0191
    114  CZ3       -9.4450   -1.3630   20.7700 C.ar  205  TRP205      0.0001
    115  CH2       -8.2030   -1.0310   20.2190 C.ar  205  TRP205      0.0015
@<TRIPOS>BOND
     1     5     2    1
     2     5     6    1
     3    14    11    1
     4    14    15    1
     5    11    10    1
     6    11    12    1
     7     2     3    1
     8     2     1    1
     9    12    13    2
    10     6     7    1
    11     3     4    2
    12     8     7    2
    13     7     9   am
    14    15    16   ar
    15    15    17   ar
    16    16    18   ar
    17    20    21    1
    18    22    21    1
    19    22    23    2
    20    17    19   ar
    21    21    24    1
    22    18    19   ar
    23    33    32    2
    24    26    25   ar
    25    26    28   ar
    26    54    56   ar
    27    54    52   ar
    28    24    25    1
    29    51    52    1
    30    51    48    1
    31    56    57   ar
    32    25    27   ar
    33    28    29   ar
    34    52    53   ar
    35    94    92    1
    36    93    92    1
    37    92    89    1
    38    27    29   ar
    39    57    55   ar
    40    47    48    1
    41    30    31    1
    42    43    42    2
    43    53    55   ar
    44    32    31    1
    45    46    44    1
    46    44    45    1
    47    44    41    1
    48    48    49    1
    49    40    41    1
    50    31    34    1
    51    49    50    2
    52    34    35    1
    53    41    42    1
    54    89    90    1
    55    89    88    1
    56    90    91    2
    57    35    36   ar
    58    35    37   ar
    59    36    38   ar
    60    88    83   am
    61    37    39   ar
    62    38    39   ar
    63    86    85    1
    64    79    78    1
    65    84    83    2
    66    83    82    1
    67    80    78    1
    68    65    63    1
    69    78    77    1
    70    77    74    1
    71    64    63    1
    72    71    70    1
    73    85    82    1
    74    85    87    1
    75    82    81    1
    76    81    75   am
    77    72    70    1
    78    63    62    1
    79    74    75    1
    80    74    73    1
    81    75    76    2
    82    70    67    1
    83    67    68    1
    84    67    66    1
    85   115   114   ar
    86   115   113   ar
    87    62    59    1
    88    68    69    2
    89   114   112   ar
    90   113   111   ar
    91    59    60    1
    92    59    58    1
    93   101    99    1
    94   112   109   ar
    95    60    61    2
    96   111   109   ar
    97   111   110   ar
    98   100    99    1
    99   109   107   ar
   100    99    96    1
   101   110   108   ar
   102    96    95    1
   103    96    97    1
   104   107   108   ar
   105   107   106    1
   106   103   106    1
   107   103   104    1
   108   103   102    1
   109    97    98    2
   110   104   105    2
