@<TRIPOS>MOLECULE
tmp/4fikA01.pdb
 96 91 0 0 0
SMALL
GASTEIGER

@<TRIPOS>ATOM
      1  N        -16.3260    7.3930    3.0630 N.3    54  LEU54      -0.1245
      2  CA       -15.7170    8.0180    1.8850 C.3    54  LEU54       0.1561
      3  C        -14.9140    7.0580    1.0160 C.2    54  LEU54       0.2260
      4  O        -15.1280    6.9720   -0.1990 O.2    54  LEU54      -0.2867
      5  CB       -14.8020    9.1830    2.2970 C.3    54  LEU54       0.0270
      6  CG       -15.5010   10.3150    3.0510 C.3    54  LEU54       0.0019
      7  CD1      -14.4770   11.2850    3.6450 C.3    54  LEU54       0.0001
      8  CD2      -16.4920   11.0310    2.1400 C.3    54  LEU54       0.0001
      9  N         -8.7700    2.1690    2.1010 N.3    57  LEU57      -0.1245
     10  CA        -7.3480    2.3230    1.8150 C.3    57  LEU57       0.1561
     11  C         -6.5690    1.1380    2.3850 C.2    57  LEU57       0.2260
     12  O         -6.7330    0.8240    3.5620 O.2    57  LEU57      -0.2867
     13  CB        -6.8200    3.6190    2.4810 C.3    57  LEU57       0.0270
     14  CG        -5.2970    3.7850    2.5020 C.3    57  LEU57       0.0019
     15  CD1       -4.7480    3.9980    1.0960 C.3    57  LEU57       0.0001
     16  CD2       -4.8540    4.9200    3.4110 C.3    57  LEU57       0.0001
     17  N         -3.1850    0.4230    3.7550 N.3    59  ASN59      -0.1240
     18  CA        -2.0540    1.2190    4.2180 C.3    59  ASN59       0.1653
     19  C         -0.8040    0.3810    4.4920 C.2    59  ASN59       0.2266
     20  O          0.1700    0.8980    5.0290 O.2    59  ASN59      -0.2867
     21  CB        -2.4440    2.0360    5.4410 C.3    59  ASN59       0.1155
     22  CG        -2.7770    1.1780    6.6230 C.2    59  ASN59       0.2627
     23  OD1       -2.4020    0.0150    6.7030 O.2    59  ASN59      -0.2716
     24  ND2       -3.4760    1.7520    7.5710 N.am   59  ASN59      -0.0877
     25  N         -8.2330    0.5780    5.9860 N.3    64  ASN64      -0.1240
     26  CA        -9.0770    1.5030    6.7230 C.3    64  ASN64       0.1653
     27  C        -10.2540    1.9490    5.8690 C.2    64  ASN64       0.2266
     28  O        -10.0650    2.3800    4.7220 O.2    64  ASN64      -0.2867
     29  CB        -8.2960    2.7590    7.1010 C.3    64  ASN64       0.1155
     30  CG        -7.2370    2.5000    8.1580 C.2    64  ASN64       0.2627
     31  OD1       -7.2250    1.4780    8.7850 O.2    64  ASN64      -0.2716
     32  ND2       -6.3080    3.4130    8.3190 N.am   64  ASN64      -0.0877
     33  N        -12.7000    4.9160    5.7370 N.3    66  GLU66      -0.1231
     34  CA       -12.4940    6.2750    6.1850 C.3    66  GLU66       0.1699
     35  C        -13.7810    7.0610    6.0640 C.2    66  GLU66       0.2592
     36  O        -14.4510    6.9410    5.0440 O.2    66  GLU66      -0.2718
     37  CB       -11.3800    6.9110    5.3350 C.3    66  GLU66       0.0402
     38  CG       -10.1180    6.0770    5.3970 C.3    66  GLU66       0.1161
     39  CD        -8.9870    6.5770    4.5170 C.2    66  GLU66       0.3649
     40  OE1       -9.2490    6.9580    3.3590 O.co2  66  GLU66      -0.2457
     41  OE2       -7.8370    6.5450    4.9740 O.co2  66  GLU66      -0.2457
     42  N        -14.0870    7.8600    7.0950 N.am   67  PHE67      -0.1962
     43  CA       -15.3310    8.6100    7.1800 C.3    67  PHE67       0.1771
     44  C        -15.1180   10.1140    7.1490 C.2    67  PHE67       0.2620
     45  O        -14.0610   10.6420    7.5340 O.2    67  PHE67      -0.2715
     46  CB       -16.0780    8.2420    8.4730 C.3    67  PHE67       0.0574
     47  CG       -16.6420    6.8490    8.4640 C.ar   67  PHE67      -0.0200
     48  CD1      -15.8250    5.7620    8.7240 C.ar   67  PHE67      -0.0042
     49  CD2      -17.9820    6.6180    8.1690 C.ar   67  PHE67      -0.0042
     50  CE1      -16.3320    4.4500    8.6230 C.ar   67  PHE67      -0.0003
     51  CE2      -18.4950    5.3200    8.0830 C.ar   67  PHE67      -0.0003
     52  CZ       -17.6540    4.2490    8.3190 C.ar   67  PHE67      -0.0000
     53  N        -16.1630   10.8290    6.7660 N.am   68  ASP68      -0.1957
     54  CA       -16.2280   12.2830    6.9000 C.3    68  ASP68       0.1840
     55  C        -16.4840   12.5670    8.3750 C.2    68  ASP68       0.2622
     56  O        -17.5320   12.2240    8.9170 O.2    68  ASP68      -0.2715
     57  CB       -17.3640   12.8110    6.0090 C.3    68  ASP68       0.1450
     58  CG       -17.6640   14.2730    6.2200 C.2    68  ASP68       0.3671
     59  OD1      -16.9170   14.9590    6.9240 O.co2  68  ASP68      -0.2456
     60  OD2      -18.6660   14.7310    5.6550 O.co2  68  ASP68      -0.2456
     61  N        -15.5170   13.2040    9.0290 N.am   69  ASP69      -0.1971
     62  CA       -15.6190   13.5460   10.4500 C.3    69  ASP69       0.1709
     63  C        -15.6100   15.0610   10.6370 C.2    69  ASP69       0.2293
     64  O        -15.2100   15.5400   11.6880 O.2    69  ASP69      -0.2864
     65  CB       -14.4800   12.9130   11.2680 C.3    69  ASP69       0.1436
     66  CG       -13.1290   13.4510   10.9090 C.2    69  ASP69       0.3671
     67  OD1      -12.9920   14.0740    9.8130 O.co2  69  ASP69      -0.2456
     68  OD2      -12.1570   13.2380   11.6840 O.co2  69  ASP69      -0.2456
     69  N        -14.0050    8.2890   12.8730 N.3    88  ILE88      -0.1231
     70  CA       -13.1440    8.6950   11.7610 C.3    88  ILE88       0.1692
     71  C        -12.8010    7.5200   10.8220 C.2    88  ILE88       0.2591
     72  O        -12.7150    7.6790    9.6060 O.2    88  ILE88      -0.2718
     73  CB       -11.8490    9.4130   12.2390 C.3    88  ILE88       0.0266
     74  CG1      -11.0050    9.8820   11.0380 C.3    88  ILE88       0.0019
     75  CG2      -11.0310    8.5580   13.1830 C.3    88  ILE88       0.0020
     76  CD1       -9.8580   10.7960   11.4250 C.3    88  ILE88       0.0001
     77  N        -12.6140    6.3150   11.3640 N.am   89  GLN89      -0.1979
     78  CA       -12.2540    5.1700   10.5240 C.3    89  GLN89       0.1601
     79  C        -12.5140    3.8810   11.2670 C.2    89  GLN89       0.2287
     80  O        -12.5990    3.8780   12.4940 O.2    89  GLN89      -0.2864
     81  CB       -10.7810    5.2100   10.0730 C.3    89  GLN89       0.0394
     82  CG        -9.7700    5.2450   11.2200 C.3    89  GLN89       0.0908
     83  CD        -8.9280    3.9950   11.3260 C.2    89  GLN89       0.2608
     84  OE1       -9.4300    2.8840   11.2960 O.2    89  GLN89      -0.2717
     85  NE2       -7.6390    4.1800   11.5700 N.am   89  GLN89      -0.0878
     86  N         -8.3800   14.8740   14.8990 N.3   127  PHE127     -0.1241
     87  CA        -7.7590   13.6030   15.2630 C.3   127  PHE127      0.1605
     88  C         -6.2900   13.7810   15.6790 C.2   127  PHE127      0.2264
     89  O         -5.8450   13.1630   16.6490 O.2   127  PHE127     -0.2867
     90  CB        -7.8920   12.6100   14.0990 C.3   127  PHE127      0.0534
     91  CG        -7.2580   11.2950   14.3410 C.ar  127  PHE127     -0.0203
     92  CD1       -7.9660   10.2770   14.9830 C.ar  127  PHE127     -0.0042
     93  CD2       -5.9380   11.0630   13.9670 C.ar  127  PHE127     -0.0042
     94  CE1       -7.3770    9.0370   15.1950 C.ar  127  PHE127     -0.0003
     95  CE2       -5.3490    9.8220   14.1900 C.ar  127  PHE127     -0.0003
     96  CZ        -6.0750    8.8140   14.8120 C.ar  127  PHE127     -0.0000
@<TRIPOS>BOND
     1     4     3    2
     2     3     2    1
     3    15    14    1
     4    10     9    1
     5    10    11    1
     6    10    13    1
     7     2     5    1
     8     2     1    1
     9     8     6    1
    10     5     6    1
    11    11    12    2
    12    13    14    1
    13    14    16    1
    14     6     7    1
    15    40    39   ar
    16    17    18    1
    17    18    19    1
    18    18    21    1
    19    19    20    2
    20    39    41   ar
    21    39    38    1
    22    28    27    2
    23    36    35    2
    24    37    38    1
    25    37    34    1
    26    21    22    1
    27    60    58   ar
    28    33    34    1
    29    27    26    1
    30    25    26    1
    31    57    58    1
    32    57    54    1
    33    35    34    1
    34    35    42   am
    35    58    59   ar
    36    22    23    2
    37    22    24   am
    38    26    29    1
    39    53    54    1
    40    53    44   am
    41    54    55    1
    42    42    43    1
    43    29    30    1
    44    44    43    1
    45    44    45    2
    46    43    46    1
    47    51    49   ar
    48    51    52   ar
    49    30    32   am
    50    30    31    2
    51    49    47   ar
    52    52    50   ar
    53    55    56    2
    54    55    61   am
    55    47    46    1
    56    47    48   ar
    57    50    48   ar
    58    61    62    1
    59    72    71    2
    60    67    66   ar
    61    81    78    1
    62    81    82    1
    63    62    63    1
    64    62    65    1
    65    78    79    1
    66    78    77    1
    67    63    64    2
    68    71    77   am
    69    71    70    1
    70    66    65    1
    71    66    68   ar
    72    74    76    1
    73    74    73    1
    74    82    83    1
    75    79    80    2
    76    84    83    2
    77    83    85   am
    78    70    73    1
    79    70    69    1
    80    73    75    1
    81    93    95   ar
    82    93    91   ar
    83    90    91    1
    84    90    87    1
    85    95    96   ar
    86    91    92   ar
    87    96    94   ar
    88    86    87    1
    89    92    94   ar
    90    87    88    1
    91    88    89    2
