@<TRIPOS>MOLECULE
tmp/4filC00.pdb
 180 182 0 0 0
SMALL
GASTEIGER

@<TRIPOS>ATOM
      1  N        -19.1410    7.2530   29.0530 N.3     9  PRO9       -0.2102
      2  CA       -17.7640    7.2910   28.5400 C.3     9  PRO9        0.1504
      3  C        -17.6510    7.5880   27.0430 C.2     9  PRO9        0.2576
      4  O        -16.5750    7.9680   26.5860 O.2     9  PRO9       -0.2718
      5  CB       -17.2300    5.8780   28.8290 C.3     9  PRO9        0.0282
      6  CG       -18.2420    5.2250   29.7150 C.3     9  PRO9        0.0208
      7  CD       -19.5440    5.8990   29.4660 C.3     9  PRO9        0.0893
      8  N        -18.7390    7.4210   26.3000 N.am   10  THR10      -0.1953
      9  CA       -18.7370    7.6750   24.8610 C.3    10  THR10       0.1897
     10  C        -18.3800    9.1250   24.5280 C.2    10  THR10       0.2313
     11  O        -17.7410    9.4030   23.5130 O.2    10  THR10      -0.2863
     12  CB       -20.1150    7.3540   24.2440 C.3    10  THR10       0.1794
     13  OG1      -20.4880    6.0110   24.5740 O.3    10  THR10      -0.2208
     14  CG2      -20.0870    7.5100   22.7310 C.3    10  THR10       0.0378
     15  N        -13.9220    4.2110   32.9390 N.3    28  GLN28      -0.1245
     16  CA       -13.5960    3.3670   31.7910 C.3    28  GLN28       0.1566
     17  C        -12.6910    4.0360   30.7560 C.2    28  GLN28       0.2260
     18  O        -12.1950    3.3760   29.8440 O.2    28  GLN28      -0.2867
     19  CB       -14.8700    2.8270   31.1320 C.3    28  GLN28       0.0367
     20  CG       -15.5290    1.6930   31.9020 C.3    28  GLN28       0.0905
     21  CD       -16.9310    1.3940   31.4120 C.2    28  GLN28       0.2608
     22  OE1      -17.6320    2.2800   30.9240 O.2    28  GLN28      -0.2717
     23  NE2      -17.3500    0.1410   31.5450 N.am   28  GLN28      -0.0878
     24  N        -26.2860    8.1110   29.7220 N.3    64  TYR64      -0.1227
     25  CA       -27.0340    7.3660   28.7200 C.3    64  TYR64       0.1736
     26  C        -28.5080    7.3640   29.0970 C.2    64  TYR64       0.2596
     27  O        -28.8620    7.5530   30.2630 O.2    64  TYR64      -0.2718
     28  CB       -26.5280    5.9280   28.6240 C.3    64  TYR64       0.0548
     29  CG       -25.1270    5.8030   28.0720 C.ar   64  TYR64      -0.0200
     30  CD1      -24.8130    6.2700   26.8020 C.ar   64  TYR64      -0.0009
     31  CD2      -24.1200    5.2100   28.8190 C.ar   64  TYR64      -0.0009
     32  CE1      -23.5310    6.1540   26.2960 C.ar   64  TYR64       0.0417
     33  CE2      -22.8400    5.0870   28.3230 C.ar   64  TYR64       0.0417
     34  CZ       -22.5490    5.5600   27.0630 C.ar   64  TYR64       0.1957
     35  OH       -21.2710    5.4370   26.5730 O.3    64  TYR64      -0.2866
     36  N        -29.3670    7.1560   28.1060 N.am   65  SER65      -0.1938
     37  CA       -30.8080    7.1240   28.3300 C.3    65  SER65       0.2055
     38  C        -31.2880    5.8670   29.0520 C.2    65  SER65       0.2643
     39  O        -32.4470    5.7830   29.4600 O.2    65  SER65      -0.2714
     40  CB       -31.5520    7.2970   27.0070 C.3    65  SER65       0.2130
     41  OG       -31.2860    6.2150   26.1300 O.3    65  SER65      -0.2179
     42  N        -30.3970    4.8950   29.2090 N.am   66  THR66      -0.1950
     43  CA       -30.7330    3.6650   29.9150 C.3    66  THR66       0.1897
     44  C        -30.1300    3.6440   31.3170 C.2    66  THR66       0.2313
     45  O        -30.1760    2.6250   32.0070 O.2    66  THR66      -0.2863
     46  CB       -30.2520    2.4230   29.1410 C.3    66  THR66       0.1794
     47  OG1      -28.8220    2.4300   29.0620 O.3    66  THR66      -0.2208
     48  CG2      -30.8370    2.4160   27.7350 C.3    66  THR66       0.0378
     49  N        -27.7380    6.7540   22.7110 N.3    84  TYR84      -0.1241
     50  CA       -26.5930    6.3490   21.9000 C.3    84  TYR84       0.1605
     51  C        -26.9670    6.1060   20.4360 C.2    84  TYR84       0.2264
     52  O        -26.2890    6.5830   19.5270 O.2    84  TYR84      -0.2867
     53  CB       -25.9300    5.1010   22.4900 C.3    84  TYR84       0.0534
     54  CG       -24.7380    4.6210   21.6980 C.ar   84  TYR84      -0.0201
     55  CD1      -23.5270    5.2970   21.7540 C.ar   84  TYR84      -0.0009
     56  CD2      -24.8230    3.4930   20.8930 C.ar   84  TYR84      -0.0009
     57  CE1      -22.4360    4.8640   21.0290 C.ar   84  TYR84       0.0417
     58  CE2      -23.7360    3.0520   20.1650 C.ar   84  TYR84       0.0417
     59  CZ       -22.5450    3.7410   20.2370 C.ar   84  TYR84       0.1957
     60  OH       -21.4600    3.3040   19.5130 O.3    84  TYR84      -0.2866
     61  N        -14.4020   -9.4250   18.6870 N.3   138  ASP138     -0.1239
     62  CA       -14.0920   -8.8770   19.9990 C.3   138  ASP138      0.1674
     63  C        -14.5270   -9.8290   21.1020 C.2   138  ASP138      0.2266
     64  O        -15.6910  -10.2240   21.1680 O.2   138  ASP138     -0.2867
     65  CB       -14.7780   -7.5230   20.1760 C.3   138  ASP138      0.1410
     66  CG       -14.5630   -6.9360   21.5560 C.2   138  ASP138      0.3668
     67  OD1      -13.4270   -7.0070   22.0680 O.co2 138  ASP138     -0.2456
     68  OD2      -15.5330   -6.3970   22.1280 O.co2 138  ASP138     -0.2456
     69  N        -15.0740  -10.5530   25.1320 N.3   140  PHE140     -0.1241
     70  CA       -15.2320  -10.0150   26.4740 C.3   140  PHE140      0.1605
     71  C        -16.1150  -10.9550   27.2810 C.2   140  PHE140      0.2264
     72  O        -17.1060  -11.4750   26.7630 O.2   140  PHE140     -0.2867
     73  CB       -15.8530   -8.6200   26.4350 C.3   140  PHE140      0.0534
     74  CG       -15.9790   -7.9810   27.7880 C.ar  140  PHE140     -0.0203
     75  CD1      -17.1610   -8.0700   28.5040 C.ar  140  PHE140     -0.0042
     76  CD2      -14.9120   -7.2990   28.3480 C.ar  140  PHE140     -0.0042
     77  CE1      -17.2800   -7.4850   29.7490 C.ar  140  PHE140     -0.0003
     78  CE2      -15.0240   -6.7120   29.5950 C.ar  140  PHE140     -0.0003
     79  CZ       -16.2100   -6.8060   30.2960 C.ar  140  PHE140     -0.0000
     80  N        -17.9820  -11.3960   20.1760 N.3   145  TYR145     -0.1241
     81  CA       -18.8860  -10.3760   19.6530 C.3   145  TYR145      0.1605
     82  C        -18.4330   -9.8230   18.3050 C.2   145  TYR145      0.2264
     83  O        -17.2380   -9.7530   18.0170 O.2   145  TYR145     -0.2867
     84  CB       -19.0150   -9.2160   20.6450 C.3   145  TYR145      0.0534
     85  CG       -19.6670   -9.5760   21.9600 C.ar  145  TYR145     -0.0201
     86  CD1      -21.0470   -9.6830   22.0660 C.ar  145  TYR145     -0.0009
     87  CD2      -18.9030   -9.7960   23.0990 C.ar  145  TYR145     -0.0009
     88  CE1      -21.6490  -10.0080   23.2670 C.ar  145  TYR145      0.0417
     89  CE2      -19.4970  -10.1220   24.3050 C.ar  145  TYR145      0.0417
     90  CZ       -20.8700  -10.2260   24.3830 C.ar  145  TYR145      0.1957
     91  OH       -21.4650  -10.5490   25.5810 O.3   145  TYR145     -0.2866
     92  N        -19.7380   -6.5200   15.3130 N.3   147  TYR147     -0.1241
     93  CA       -20.3730   -5.2070   15.3740 C.3   147  TYR147      0.1605
     94  C        -20.7040   -4.6180   14.0080 C.2   147  TYR147      0.2264
     95  O        -20.1510   -5.0260   12.9880 O.2   147  TYR147     -0.2867
     96  CB       -19.4840   -4.2300   16.1480 C.3   147  TYR147      0.0534
     97  CG       -19.0930   -4.7240   17.5210 C.ar  147  TYR147     -0.0201
     98  CD1      -19.9480   -4.5770   18.6050 C.ar  147  TYR147     -0.0009
     99  CD2      -17.8730   -5.3530   17.7300 C.ar  147  TYR147     -0.0009
    100  CE1      -19.5920   -5.0340   19.8590 C.ar  147  TYR147      0.0417
    101  CE2      -17.5130   -5.8140   18.9770 C.ar  147  TYR147      0.0417
    102  CZ       -18.3730   -5.6530   20.0390 C.ar  147  TYR147      0.1957
    103  OH       -18.0050   -6.1140   21.2840 O.3   147  TYR147     -0.2866
    104  N        -20.4690    0.8270   16.5260 N.3   151  TRP151     -0.1227
    105  CA       -20.4890    0.2960   17.8860 C.3   151  TRP151      0.1737
    106  C        -19.0690    0.1410   18.4210 C.2   151  TRP151      0.2596
    107  O        -18.7730   -0.7970   19.1600 O.2   151  TRP151     -0.2718
    108  CB       -21.2220   -1.0450   17.9410 C.3   151  TRP151      0.0564
    109  CG       -22.0240   -1.2240   19.1930 C.ar  151  TRP151      0.0003
    110  CD1      -21.6240   -1.8120   20.3590 C.ar  151  TRP151      0.0946
    111  CD2      -23.3760   -0.8050   19.3980 C.ar  151  TRP151      0.0152
    112  NE1      -22.6470   -1.7820   21.2780 N.ar  151  TRP151     -0.2442
    113  CE2      -23.7340   -1.1690   20.7100 C.ar  151  TRP151      0.0810
    114  CE3      -24.3190   -0.1560   18.5960 C.ar  151  TRP151      0.0012
    115  CZ2      -24.9960   -0.9030   21.2390 C.ar  151  TRP151      0.0191
    116  CZ3      -25.5690    0.1040   19.1210 C.ar  151  TRP151      0.0001
    117  CH2      -25.8970   -0.2690   20.4290 C.ar  151  TRP151      0.0015
    118  N        -18.1980    1.0730   18.0470 N.am  152  GLY152     -0.1942
    119  CA       -16.8070    1.0280   18.4600 C.3   152  GLY152      0.2014
    120  C        -16.0190   -0.0140   17.6900 C.2   152  GLY152      0.2638
    121  O        -16.4590   -0.4800   16.6390 O.2   152  GLY152     -0.2714
    122  N        -14.8430   -0.3590   18.2080 N.am  153  ARG153     -0.1977
    123  CA       -14.0060   -1.4250   17.6530 C.3   153  ARG153      0.1597
    124  C        -13.4560   -1.0990   16.2610 C.2   153  ARG153      0.2287
    125  O        -13.0220   -1.9910   15.5330 O.2   153  ARG153     -0.2864
    126  CB       -14.7260   -2.7850   17.6770 C.3   153  ARG153      0.0334
    127  CG       -14.9510   -3.3630   19.0820 C.3   153  ARG153      0.0492
    128  CD       -16.1260   -2.6950   19.7930 C.3   153  ARG153      0.2205
    129  NE       -16.3880   -3.2450   21.1200 N.pl3 153  ARG153     -0.0865
    130  CZ       -17.3550   -2.8130   21.9240 C.cat 153  ARG153      0.5346
    131  NH1      -18.1520   -1.8280   21.5340 N.pl3 153  ARG153      0.1354
    132  NH2      -17.5280   -3.3660   23.1180 N.pl3 153  ARG153      0.1354
    133  N        -24.9090   -4.5200   17.0250 N.3   179  TRP179     -0.1241
    134  CA       -23.9660   -5.4650   17.6080 C.3   179  TRP179      0.1605
    135  C        -24.6580   -6.8070   17.7940 C.2   179  TRP179      0.2264
    136  O        -25.8870   -6.8840   17.7510 O.2   179  TRP179     -0.2867
    137  CB       -23.4770   -4.9600   18.9640 C.3   179  TRP179      0.0550
    138  CG       -24.5470   -4.9650   20.0090 C.ar  179  TRP179      0.0003
    139  CD1      -25.4740   -3.9920   20.2400 C.ar  179  TRP179      0.0946
    140  CD2      -24.8020   -5.9980   20.9680 C.ar  179  TRP179      0.0152
    141  NE1      -26.2910   -4.3560   21.2840 N.ar  179  TRP179     -0.2442
    142  CE2      -25.8990   -5.5840   21.7470 C.ar  179  TRP179      0.0810
    143  CE3      -24.2090   -7.2350   21.2410 C.ar  179  TRP179      0.0012
    144  CZ2      -26.4140   -6.3600   22.7830 C.ar  179  TRP179      0.0191
    145  CZ3      -24.7220   -8.0040   22.2690 C.ar  179  TRP179      0.0001
    146  CH2      -25.8140   -7.5640   23.0270 C.ar  179  TRP179      0.0015
    147  N        -12.7200    0.6880   22.1200 N.3   233  TRP233     -0.1227
    148  CA       -14.1300    0.7780   22.4940 C.3   233  TRP233      0.1737
    149  C        -14.7520    2.0770   21.9990 C.2   233  TRP233      0.2595
    150  O        -15.9620    2.1580   21.7920 O.2   233  TRP233     -0.2718
    151  CB       -14.3010    0.7020   24.0140 C.3   233  TRP233      0.0564
    152  CG       -14.0380   -0.6400   24.6190 C.ar  233  TRP233      0.0003
    153  CD1      -13.9540   -1.8350   23.9680 C.ar  233  TRP233      0.0946
    154  CD2      -13.8540   -0.9260   26.0100 C.ar  233  TRP233      0.0152
    155  NE1      -13.7140   -2.8480   24.8670 N.ar  233  TRP233     -0.2442
    156  CE2      -13.6490   -2.3140   26.1280 C.ar  233  TRP233      0.0810
    157  CE3      -13.8360   -0.1410   27.1670 C.ar  233  TRP233      0.0012
    158  CZ2      -13.4300   -2.9340   27.3560 C.ar  233  TRP233      0.0191
    159  CZ3      -13.6180   -0.7580   28.3850 C.ar  233  TRP233      0.0001
    160  CH2      -13.4180   -2.1400   28.4700 C.ar  233  TRP233      0.0015
    161  N        -13.9120    3.0880   21.8070 N.am  234  TYR234     -0.1962
    162  CA       -14.3820    4.4560   21.6180 C.3   234  TYR234      0.1771
    163  C        -14.4660    4.9160   20.1640 C.2   234  TYR234      0.2619
    164  O        -13.9310    4.2760   19.2580 O.2   234  TYR234     -0.2715
    165  CB       -13.5150    5.4200   22.4300 C.3   234  TYR234      0.0574
    166  CG       -13.5840    5.1720   23.9190 C.ar  234  TYR234     -0.0198
    167  CD1      -12.7430    4.2510   24.5310 C.ar  234  TYR234     -0.0009
    168  CD2      -14.5010    5.8470   24.7120 C.ar  234  TYR234     -0.0009
    169  CE1      -12.8080    4.0160   25.8900 C.ar  234  TYR234      0.0417
    170  CE2      -14.5730    5.6190   26.0710 C.ar  234  TYR234      0.0417
    171  CZ       -13.7250    4.7040   26.6550 C.ar  234  TYR234      0.1957
    172  OH       -13.7980    4.4780   28.0090 O.3   234  TYR234     -0.2866
    173  N        -15.1490    6.0390   19.9610 N.am  235  ASN235     -0.1972
    174  CA       -15.2800    6.6530   18.6470 C.3   235  ASN235      0.1688
    175  C        -15.1860    8.1750   18.7230 C.2   235  ASN235      0.2292
    176  O        -15.7970    8.8900   17.9280 O.2   235  ASN235     -0.2864
    177  CB       -16.5840    6.2170   17.9720 C.3   235  ASN235      0.1181
    178  CG       -17.8010    6.4260   18.8570 C.2   235  ASN235      0.2629
    179  OD1      -17.7370    7.1200   19.8710 O.2   235  ASN235     -0.2716
    180  ND2      -18.9190    5.8200   18.4740 N.am  235  ASN235     -0.0877
@<TRIPOS>BOND
     1    95    94    2
     2    94    93    1
     3    92    93    1
     4    93    96    1
     5   125   124    2
     6    96    97    1
     7   124   123    1
     8   104   105    1
     9   121   120    2
    10   133   134    1
    11    97    99   ar
    12    97    98   ar
    13   134   135    1
    14   134   137    1
    15   123   126    1
    16   123   122    1
    17   126   127    1
    18   120   122   am
    19   120   119    1
    20    99   101   ar
    21   136   135    2
    22   105   108    1
    23   105   106    1
    24   176   175    2
    25   108   109    1
    26   177   174    1
    27   177   178    1
    28    83    82    2
    29   118   106   am
    30   118   119    1
    31    82    81    1
    32   106   107    2
    33   180   178   am
    34   114   116   ar
    35   114   111   ar
    36    98   100   ar
    37   174   175    1
    38   174   173    1
    39    61    62    1
    40   178   179    2
    41   137   138    1
    42   101   102   ar
    43   127   128    1
    44   116   117   ar
    45   109   111   ar
    46   109   110   ar
    47   164   163    2
    48   111   113   ar
    49    60    59    1
    50    52    51    2
    51    81    80    1
    52    81    84    1
    53   128   129    1
    54   100   102   ar
    55   173   163   am
    56    62    65    1
    57    62    63    1
    58   138   139   ar
    59   138   140   ar
    60   102   103    1
    61   163   162    1
    62    58    59   ar
    63    58    56   ar
    64    65    66    1
    65    59    57   ar
    66   139   141   ar
    67   110   112   ar
    68   117   115   ar
    69    51    50    1
    70    84    85    1
    71   113   115   ar
    72   113   112   ar
    73    56    54   ar
    74   140   143   ar
    75   140   142   ar
    76    57    55   ar
    77    63    64    2
    78   129   130    2
    79   143   145   ar
    80   141   142   ar
    81   131   130    1
    82    66    67   ar
    83    66    68   ar
    84   162   161    1
    85   162   165    1
    86    54    55   ar
    87    54    53    1
    88   142   144   ar
    89   150   149    2
    90   161   149   am
    91    50    53    1
    92    50    49    1
    93   130   132    1
    94    85    86   ar
    95    85    87   ar
    96   149   148    1
    97    86    88   ar
    98   147   148    1
    99   145   146   ar
   100   165   166    1
   101   148   151    1
   102    14    12    1
   103   144   146   ar
   104    87    89   ar
   105    88    90   ar
   106    11    10    2
   107   166   167   ar
   108   166   168   ar
   109   153   152   ar
   110   153   155   ar
   111   151   152    1
   112    12    13    1
   113    12     9    1
   114    89    90   ar
   115    90    91    1
   116    10     9    1
   117   167   169   ar
   118   152   154   ar
   119   168   170   ar
   120     9     8    1
   121   155   156   ar
   122    69    70    1
   123   169   171   ar
   124   154   156   ar
   125   154   157   ar
   126   170   171   ar
   127   156   158   ar
   128    41    40    1
   129    32    30   ar
   130    32    34   ar
   131     8     3   am
   132    73    70    1
   133    73    74    1
   134    70    71    1
   135    35    34    1
   136     4     3    2
   137   171   172    1
   138    72    71    2
   139    30    29   ar
   140    40    37    1
   141     3     2    1
   142    34    33   ar
   143   157   159   ar
   144   158   160   ar
   145    48    46    1
   146    74    76   ar
   147    74    75   ar
   148    29    28    1
   149    29    31   ar
   150    36    37    1
   151    36    26   am
   152    33    31   ar
   153    37    38    1
   154    76    78   ar
   155   159   160   ar
   156    75    77   ar
   157     2     5    1
   158     2     1    1
   159    28    25    1
   160    25    26    1
   161    25    24    1
   162     5     6    1
   163    38    42   am
   164    38    39    2
   165     1     7    1
   166    47    46    1
   167    26    27    2
   168    46    43    1
   169    42    43    1
   170     7     6    1
   171    78    79   ar
   172    77    79   ar
   173    18    17    2
   174    43    44    1
   175    17    16    1
   176    22    21    2
   177    19    16    1
   178    19    20    1
   179    44    45    2
   180    21    23   am
   181    21    20    1
   182    16    15    1
