@<TRIPOS>MOLECULE
tmp/4fimA04.pdb
 127 126 0 0 0
SMALL
GASTEIGER

@<TRIPOS>ATOM
      1  N         18.1450   16.4070   10.6160 N.3    89  THR89      -0.1203
      2  CA        17.8740   15.0100   10.2980 C.3    89  THR89       0.1994
      3  C         16.4360   14.9530    9.7600 C.2    89  THR89       0.2618
      4  O         15.6050   15.8200   10.0860 O.2    89  THR89      -0.2717
      5  CB        18.0620   14.0870   11.5310 C.3    89  THR89       0.1784
      6  OG1       17.0980   14.4360   12.5460 O.3    89  THR89      -0.2211
      7  CG2       19.5570   14.1400   12.0710 C.3    89  THR89       0.0376
      8  N         16.1760   13.9730    8.8970 N.am   90  GLU90      -0.1965
      9  CA        14.8540   13.6630    8.4120 C.3    90  GLU90       0.1733
     10  C         14.6000   12.2800    8.9970 C.2    90  GLU90       0.2616
     11  O         15.3260   11.3520    8.6860 O.2    90  GLU90      -0.2715
     12  CB        14.8340   13.5370    6.8880 C.3    90  GLU90       0.0429
     13  CG        15.3340   14.7740    6.1450 C.3    90  GLU90       0.1163
     14  CD        15.5900   14.4790    4.6800 C.2    90  GLU90       0.3649
     15  OE1       16.7790   14.4520    4.2910 O.co2  90  GLU90      -0.2457
     16  OE2       14.6020   14.2510    3.9340 O.co2  90  GLU90      -0.2457
     17  N         13.6320   12.1590    9.8710 N.am   91  GLY91      -0.1955
     18  CA        13.2740   10.8490   10.4410 C.3    91  GLY91       0.1869
     19  C         13.1360    9.7580    9.3650 C.2    91  GLY91       0.2309
     20  O         13.2140    9.9900    8.1510 O.2    91  GLY91      -0.2863
     21  N          6.4480    8.6690   10.9610 N.3   250  VAL250     -0.1231
     22  CA         7.8030    9.0830   10.7390 C.3   250  VAL250      0.1692
     23  C          8.4820    9.0020   12.1550 C.2   250  VAL250      0.2592
     24  O          8.0030    9.5920   13.1440 O.2   250  VAL250     -0.2718
     25  CB         7.8620   10.5360   10.2510 C.3   250  VAL250      0.0266
     26  CG1        9.3150   10.9450   10.0460 C.3   250  VAL250      0.0020
     27  CG2        7.0710   10.6800    8.9470 C.3   250  VAL250      0.0020
     28  N          9.6100    8.3000   12.2290 N.am  251  ALA251     -0.1966
     29  CA        10.3640    8.0160   13.4730 C.3   251  ALA251      0.1713
     30  C         11.5360    8.9950   13.5600 C.2   251  ALA251      0.2458
     31  O         12.1960    9.2570   12.5930 O.2   251  ALA251     -0.2730
     32  CB        10.9570    6.6240   13.3580 C.3   251  ALA251      0.0333
     33  N         11.9080    9.4050   14.7870 N.am  252  PRO252     -0.2716
     34  CA        13.1290   10.1660   14.9600 C.3   252  PRO252      0.1536
     35  C         14.3540    9.2750   14.8260 C.2   252  PRO252      0.2598
     36  O         14.2930    8.1060   15.2080 O.2   252  PRO252     -0.2715
     37  CB        13.0160   10.7020   16.4100 C.3   252  PRO252      0.0310
     38  CG        12.1520    9.7060   17.1340 C.3   252  PRO252      0.0237
     39  CD        11.1580    9.1530   16.0360 C.3   252  PRO252      0.0939
     40  N         15.3860    9.7770   14.1200 N.am  253  ASN253     -0.1973
     41  CA        16.5280    8.9690   13.8370 C.3   253  ASN253      0.1688
     42  C         17.1430    8.4430   15.1310 C.2   253  ASN253      0.2292
     43  O         17.0340    9.0680   16.2160 O.2   253  ASN253     -0.2864
     44  CB        17.6240    9.7420   13.0660 C.3   253  ASN253      0.1181
     45  CG        17.2650    9.9690   11.5620 C.2   253  ASN253      0.2629
     46  OD1       16.3670    9.3450   11.0300 O.2   253  ASN253     -0.2716
     47  ND2       18.1020   10.7510   10.8650 N.am  253  ASN253     -0.0877
     48  N         22.9660   18.1850   16.9210 N.3   310  LEU310     -0.1231
     49  CA        21.5790   18.4220   17.1430 C.3   310  LEU310      0.1693
     50  C         21.3420   19.9680   17.1710 C.2   310  LEU310      0.2592
     51  O         22.2270   20.6890   17.6010 O.2   310  LEU310     -0.2718
     52  CB        21.1200   17.8190   18.4750 C.3   310  LEU310      0.0284
     53  CG        21.6320   16.3270   18.5790 C.3   310  LEU310      0.0019
     54  CD1       21.3450   15.7880   19.9790 C.3   310  LEU310      0.0001
     55  CD2       20.8390   15.5700   17.5330 C.3   310  LEU310      0.0001
     56  N         20.2100   20.4490   16.7080 N.am  311  GLY311     -0.1957
     57  CA        19.8920   21.9120   16.8870 C.3   311  GLY311      0.1869
     58  C         19.1190   22.1340   18.1760 C.2   311  GLY311      0.2309
     59  O         18.2570   21.3190   18.5220 O.2   311  GLY311     -0.2863
     60  N         18.6420   19.7880   22.4280 N.3   314  PRO314     -0.2168
     61  CA        17.3440   19.2780   22.8460 C.3   314  PRO314      0.1057
     62  C         17.4110   18.3310   23.9930 C.3   314  PRO314      0.1993
     63  O         18.3590   17.4510   24.0800 O.3   314  PRO314     -0.2189
     64  CB        16.8120   18.5380   21.6060 C.3   314  PRO314      0.0215
     65  CG        18.0490   18.1400   20.8890 C.3   314  PRO314      0.0203
     66  CD        19.1280   19.1990   21.1620 C.3   314  PRO314      0.0888
     67  N         12.2340   16.7900   23.4970 N.3   318  GLU318     -0.1231
     68  CA        12.3100   17.6210   22.3400 C.3   318  GLU318      0.1699
     69  C         12.8800   16.8250   21.1450 C.2   318  GLU318      0.2592
     70  O         12.4020   17.0070   19.9910 O.2   318  GLU318     -0.2718
     71  CB        13.1950   18.9000   22.5400 C.3   318  GLU318      0.0402
     72  CG        12.5530   19.8440   23.5460 C.3   318  GLU318      0.1161
     73  CD        13.5110   20.9740   23.8800 C.2   318  GLU318      0.3649
     74  OE1       14.6580   20.6920   24.1360 O.co2 318  GLU318     -0.2457
     75  OE2       13.1080   22.1690   23.7610 O.co2 318  GLU318     -0.2457
     76  N         13.8750   15.9840   21.3950 N.am  319  TYR319     -0.1962
     77  CA        14.4240   15.2000   20.3100 C.3   319  TYR319      0.1771
     78  C         13.3750   14.1760   19.7340 C.2   319  TYR319      0.2619
     79  O         13.2270   14.0700   18.5030 O.2   319  TYR319     -0.2715
     80  CB        15.7170   14.4550   20.7370 C.3   319  TYR319      0.0574
     81  CG        16.3050   13.6810   19.5990 C.ar  319  TYR319     -0.0198
     82  CD1       17.0190   14.3150   18.5830 C.ar  319  TYR319     -0.0009
     83  CD2       16.0280   12.2890   19.4570 C.ar  319  TYR319     -0.0009
     84  CE1       17.5160   13.6100   17.4760 C.ar  319  TYR319      0.0417
     85  CE2       16.4680   11.5890   18.3450 C.ar  319  TYR319      0.0417
     86  CZ        17.2040   12.2340   17.3770 C.ar  319  TYR319      0.1957
     87  OH        17.7130   11.5490   16.2840 O.3   319  TYR319     -0.2866
     88  N         12.6860   13.4700   20.5970 N.am  320  LEU320     -0.1963
     89  CA        11.7200   12.4710   20.1610 C.3   320  LEU320      0.1728
     90  C         10.4580   13.1480   19.5830 C.2   320  LEU320      0.2617
     91  O          9.8400   12.5840   18.6840 O.2   320  LEU320     -0.2715
     92  CB        11.3100   11.5810   21.3010 C.3   320  LEU320      0.0311
     93  CG        12.4810   10.6990   21.7640 C.3   320  LEU320      0.0022
     94  CD1       11.9090    9.8580   22.9340 C.3   320  LEU320      0.0001
     95  CD2       13.0450    9.7620   20.6080 C.3   320  LEU320      0.0001
     96  N         10.1390   14.3570   20.0940 N.am  321  GLY321     -0.1940
     97  CA         8.9830   15.1380   19.7030 C.3   321  GLY321      0.2014
     98  C          7.7670   14.7880   20.5350 C.2   321  GLY321      0.2640
     99  O          7.5100   13.6090   20.8860 O.2   321  GLY321     -0.2714
    100  N          6.9230   15.7820   20.8280 N.am  322  THR322     -0.1936
    101  CA         5.8620   15.5840   21.8310 C.3   322  THR322      0.2028
    102  C          4.8110   14.5300   21.4510 C.2   322  THR322      0.2642
    103  O          4.3860   13.7820   22.3180 O.2   322  THR322     -0.2714
    104  CB         5.0890   16.8810   22.1930 C.3   322  THR322      0.1808
    105  OG1        6.0370   17.8740   22.5310 O.3   322  THR322     -0.2208
    106  CG2        4.1960   16.6310   23.4210 C.3   322  THR322      0.0379
    107  N          4.4620   14.4610   20.1880 N.am  323  GLU323     -0.1963
    108  CA         3.5250   13.4290   19.6980 C.3   323  GLU323      0.1733
    109  C          4.0490   11.9960   19.9740 C.2   323  GLU323      0.2616
    110  O          3.3210   11.1640   20.5040 O.2   323  GLU323     -0.2715
    111  CB         3.3760   13.5720   18.1980 C.3   323  GLU323      0.0429
    112  CG         1.9440   13.8740   17.7700 C.3   323  GLU323      0.1163
    113  CD         1.8610   14.5580   16.4120 C.2   323  GLU323      0.3649
    114  OE1        2.3340   13.9660   15.4000 O.co2 323  GLU323     -0.2457
    115  OE2        1.3120   15.6950   16.3610 O.co2 323  GLU323     -0.2457
    116  N          5.2840   11.7140   19.5780 N.am  324  TYR324     -0.1974
    117  CA         5.8270   10.3350   19.7960 C.3   324  TYR324      0.1639
    118  C          5.9030   10.0220   21.2740 C.2   324  TYR324      0.2290
    119  O          5.5120    8.9410   21.7480 O.2   324  TYR324     -0.2864
    120  CB         7.1730   10.2320   19.0580 C.3   324  TYR324      0.0560
    121  CG         7.7760    8.8030   19.1320 C.ar  324  TYR324     -0.0198
    122  CD1        6.9460    7.6450   18.9960 C.ar  324  TYR324     -0.0009
    123  CD2        9.1400    8.6110   19.3640 C.ar  324  TYR324     -0.0009
    124  CE1        7.5000    6.3420   19.1280 C.ar  324  TYR324      0.0417
    125  CE2        9.6810    7.3490   19.4780 C.ar  324  TYR324      0.0417
    126  CZ         8.8570    6.2480   19.4130 C.ar  324  TYR324      0.1957
    127  OH         9.4410    5.0220   19.5260 O.3   324  TYR324     -0.2866
@<TRIPOS>BOND
     1    16    14   ar
     2    15    14   ar
     3    14    13    1
     4    13    12    1
     5    12     9    1
     6    20    19    2
     7     9     8    1
     8     9    10    1
     9    11    10    2
    10     8     3   am
    11    27    25    1
    12    10    17   am
    13    19    18    1
    14     3     4    2
    15     3     2    1
    16    17    18    1
    17    26    25    1
    18    25    22    1
    19     2     1    1
    20     2     5    1
    21    22    21    1
    22    22    23    1
    23    47    45   am
    24    46    45    2
    25     5     7    1
    26     5     6    1
    27    45    44    1
    28    23    28   am
    29    23    24    2
    30    28    29    1
    31    31    30    2
    32    44    41    1
    33    32    29    1
    34    29    30    1
    35    30    33   am
    36    41    40    1
    37    41    42    1
    38    40    35   am
    39    33    34    1
    40    33    39    1
    41    35    34    1
    42    35    36    2
    43    34    37    1
    44    42    43    2
    45   114   113   ar
    46    39    38    1
    47    87    86    1
    48   115   113   ar
    49    37    38    1
    50   113   112    1
    51    56    57    1
    52    56    50   am
    53    57    58    1
    54    48    49    1
    55    49    50    1
    56    49    52    1
    57    50    51    2
    58    86    84   ar
    59    86    85   ar
    60    84    82   ar
    61    55    53    1
    62   112   111    1
    63    58    59    2
    64   111   108    1
    65    85    83   ar
    66    52    53    1
    67    79    78    2
    68    53    54    1
    69    82    81   ar
    70    91    90    2
    71   122   124   ar
    72   122   121   ar
    73   120   121    1
    74   120   117    1
    75   124   126   ar
    76   121   123   ar
    77   123   125   ar
    78   126   125   ar
    79   126   127    1
    80    83    81   ar
    81   116   117    1
    82   116   109   am
    83    90    96   am
    84    90    89    1
    85    81    80    1
    86   108   109    1
    87   108   107    1
    88    97    96    1
    89    97    98    1
    90    78    77    1
    91    78    88   am
    92   117   118    1
    93   109   110    2
    94    70    69    2
    95    89    88    1
    96    89    92    1
    97   107   102   am
    98    77    80    1
    99    77    76    1
   100    98   100   am
   101    98    99    2
   102    95    93    1
   103   100   101    1
   104    65    66    1
   105    65    64    1
   106    69    76   am
   107    69    68    1
   108    66    60    1
   109   118   119    2
   110    92    93    1
   111   102   101    1
   112   102   103    2
   113    64    61    1
   114    93    94    1
   115   101   104    1
   116   104   105    1
   117   104   106    1
   118    68    71    1
   119    68    67    1
   120    60    61    1
   121    71    72    1
   122    61    62    1
   123    72    73    1
   124    75    73   ar
   125    73    74   ar
   126    62    63    1
