@<TRIPOS>MOLECULE
tmp/4finB00.pdb
 90 88 0 0 0
SMALL
GASTEIGER

@<TRIPOS>ATOM
      1  N         -3.8170  125.0300   36.0460 N.3    35  LEU35      -0.1231
      2  CA        -2.8380  124.4000   36.9240 C.3    35  LEU35       0.1693
      3  C         -2.4220  123.0370   36.4060 C.2    35  LEU35       0.2593
      4  O         -3.0030  122.5170   35.4610 O.2    35  LEU35      -0.2718
      5  CB        -3.4280  124.2250   38.3270 C.3    35  LEU35       0.0284
      6  CG        -3.0650  125.2650   39.3830 C.3    35  LEU35       0.0019
      7  CD1       -3.4520  126.6500   38.9210 C.3    35  LEU35       0.0001
      8  CD2       -3.7200  124.9360   40.7220 C.3    35  LEU35       0.0001
      9  N         -1.4160  122.4540   37.0420 N.am   36  GLY36      -0.1942
     10  CA        -1.0170  121.0970   36.7380 C.3    36  GLY36       0.2014
     11  C          0.4790  120.9620   36.8280 C.2    36  GLY36       0.2638
     12  O          1.1940  121.9640   36.8700 O.2    36  GLY36      -0.2714
     13  N          0.9540  119.7220   36.8630 N.am   37  LEU37      -0.1977
     14  CA         2.3860  119.4600   36.8780 C.3    37  LEU37       0.1596
     15  C          3.0010  119.7420   35.5040 C.2    37  LEU37       0.2287
     16  O          2.2930  119.8280   34.4960 O.2    37  LEU37      -0.2864
     17  CB         2.6540  118.0060   37.2790 C.3    37  LEU37       0.0297
     18  CG         2.2190  117.5750   38.6830 C.3    37  LEU37       0.0022
     19  CD1        2.3460  116.0750   38.8530 C.3    37  LEU37       0.0001
     20  CD2        3.0310  118.2960   39.7390 C.3    37  LEU37       0.0001
     21  N          1.5520  130.5300   38.3380 N.3   204  HIS204     -0.1241
     22  CA         1.8060  129.9870   39.6550 C.3   204  HIS204      0.1621
     23  C          1.5100  131.0390   40.7080 C.2   204  HIS204      0.2264
     24  O          1.5550  130.7700   41.9200 O.2   204  HIS204     -0.2867
     25  CB         3.2600  129.5610   39.7460 C.3   204  HIS204      0.0745
     26  CG         3.5740  128.3500   38.9350 C.ar  204  HIS204      0.0817
     27  ND1        4.6910  128.2600   38.1360 N.ar  204  HIS204     -0.2268
     28  CD2        2.9080  127.1810   38.7930 C.ar  204  HIS204      0.1154
     29  CE1        4.7050  127.0790   37.5430 C.ar  204  HIS204      0.1986
     30  NE2        3.6380  126.4050   37.9260 N.ar  204  HIS204     -0.2212
     31  N         -7.4670  122.3010   36.2990 N.3   218  GLU218     -0.1231
     32  CA        -6.3070  121.5000   36.6410 C.3   218  GLU218      0.1699
     33  C         -6.1120  120.3310   35.6910 C.2   218  GLU218      0.2592
     34  O         -6.9810  119.4670   35.5710 O.2   218  GLU218     -0.2718
     35  CB        -6.4270  120.9830   38.0740 C.3   218  GLU218      0.0402
     36  CG        -5.2360  120.1640   38.5300 C.3   218  GLU218      0.1161
     37  CD        -5.4610  119.5500   39.8920 C.2   218  GLU218      0.3649
     38  OE1       -6.6350  119.5290   40.3250 O.co2 218  GLU218     -0.2457
     39  OE2       -4.4760  119.0960   40.5270 O.co2 218  GLU218     -0.2457
     40  N         -4.9580  120.2930   35.0320 N.am  219  LEU219     -0.1980
     41  CA        -4.6300  119.1730   34.1550 C.3   219  LEU219      0.1596
     42  C         -3.7440  118.1730   34.8820 C.2   219  LEU219      0.2287
     43  O         -2.8120  118.5510   35.5940 O.2   219  LEU219     -0.2864
     44  CB        -3.9410  119.6650   32.8870 C.3   219  LEU219      0.0297
     45  CG        -4.6600  120.7770   32.1280 C.3   219  LEU219      0.0022
     46  CD1       -3.7890  121.2670   31.0000 C.3   219  LEU219      0.0001
     47  CD2       -5.9720  120.2620   31.5840 C.3   219  LEU219      0.0001
     48  N         -8.2290  129.8860   44.2660 N.3   231  TYR231     -0.1241
     49  CA        -7.1290  129.0540   44.7500 C.3   231  TYR231      0.1605
     50  C         -7.4270  128.4360   46.1250 C.2   231  TYR231      0.2264
     51  O         -7.2870  127.2210   46.3180 O.2   231  TYR231     -0.2867
     52  CB        -5.8120  129.8450   44.7880 C.3   231  TYR231      0.0534
     53  CG        -4.6630  129.0580   45.3890 C.ar  231  TYR231     -0.0201
     54  CD1       -4.1950  127.9070   44.7760 C.ar  231  TYR231     -0.0009
     55  CD2       -4.0580  129.4550   46.5780 C.ar  231  TYR231     -0.0009
     56  CE1       -3.1560  127.1680   45.3260 C.ar  231  TYR231      0.0417
     57  CE2       -3.0170  128.7230   47.1340 C.ar  231  TYR231      0.0417
     58  CZ        -2.5720  127.5830   46.4990 C.ar  231  TYR231      0.1957
     59  OH        -1.5470  126.8440   47.0330 O.3   231  TYR231     -0.2866
     60  N         -9.8810  125.6650   46.1170 N.3   234  TRP234     -0.1227
     61  CA        -9.2850  124.5550   45.3790 C.3   234  TRP234      0.1737
     62  C         -8.3180  123.7860   46.2840 C.2   234  TRP234      0.2595
     63  O         -8.3800  122.5570   46.3750 O.2   234  TRP234     -0.2718
     64  CB        -8.5630  125.0740   44.1350 C.3   234  TRP234      0.0564
     65  CG        -7.8270  124.0120   43.3580 C.ar  234  TRP234      0.0003
     66  CD1       -8.3370  123.2170   42.3730 C.ar  234  TRP234      0.0946
     67  CD2       -6.4420  123.6460   43.4910 C.ar  234  TRP234      0.0152
     68  NE1       -7.3540  122.3750   41.8820 N.ar  234  TRP234     -0.2442
     69  CE2       -6.1870  122.6170   42.5580 C.ar  234  TRP234      0.0810
     70  CE3       -5.3980  124.0780   44.3150 C.ar  234  TRP234      0.0012
     71  CZ2       -4.9350  122.0180   42.4290 C.ar  234  TRP234      0.0191
     72  CZ3       -4.1520  123.4760   44.1820 C.ar  234  TRP234      0.0001
     73  CH2       -3.9330  122.4630   43.2430 C.ar  234  TRP234      0.0015
     74  N         -7.4350  124.5400   46.9430 N.am  235  LEU235     -0.1980
     75  CA        -6.5090  124.0180   47.9400 C.3   235  LEU235      0.1596
     76  C         -7.2610  123.1760   48.9720 C.2   235  LEU235      0.2287
     77  O         -6.8480  122.0700   49.3120 O.2   235  LEU235     -0.2864
     78  CB        -5.8000  125.1820   48.6450 C.3   235  LEU235      0.0297
     79  CG        -4.6280  124.8490   49.5730 C.3   235  LEU235      0.0022
     80  CD1       -3.5200  124.1830   48.7700 C.3   235  LEU235      0.0001
     81  CD2       -4.0840  126.0920   50.3020 C.3   235  LEU235      0.0001
     82  N         -8.3220  120.0680   47.3470 N.3   238  LYS238     -0.1245
     83  CA        -7.1750  119.2160   47.1050 C.3   238  LYS238      0.1561
     84  C         -6.7900  118.4830   48.3810 C.2   238  LYS238      0.2260
     85  O         -6.5150  117.2780   48.3530 O.2   238  LYS238     -0.2867
     86  CB        -6.0030  120.0200   46.5360 C.3   238  LYS238      0.0271
     87  CG        -4.6830  119.2570   46.4840 C.3   238  LYS238      0.0035
     88  CD        -4.1050  119.1890   45.0680 C.3   238  LYS238      0.0206
     89  CE        -4.8330  118.1580   44.2190 C.3   238  LYS238      0.1093
     90  NZ        -4.2130  117.9770   42.8760 N.3   238  LYS238     -0.1314
@<TRIPOS>BOND
     1    46    45    1
     2    47    45    1
     3    45    44    1
     4    44    41    1
     5    41    42    1
     6    41    40    1
     7    16    15    2
     8    42    43    2
     9    40    33   am
    10     4     3    2
    11    15    14    1
    12    34    33    2
    13    33    32    1
    14     1     2    1
    15    31    32    1
    16     3     2    1
    17     3     9   am
    18    32    35    1
    19    10    11    1
    20    10     9    1
    21    11    13   am
    22    11    12    2
    23    13    14    1
    24    14    17    1
    25     2     5    1
    26    17    18    1
    27    29    30   ar
    28    29    27   ar
    29    30    28   ar
    30    35    36    1
    31    27    26   ar
    32     5     6    1
    33    21    22    1
    34    36    37    1
    35    18    19    1
    36    18    20    1
    37    28    26   ar
    38     7     6    1
    39    26    25    1
    40     6     8    1
    41    22    25    1
    42    22    23    1
    43    37    38   ar
    44    37    39   ar
    45    23    24    2
    46    68    66   ar
    47    68    69   ar
    48    66    65   ar
    49    71    69   ar
    50    71    73   ar
    51    69    67   ar
    52    90    89    1
    53    73    72   ar
    54    65    67   ar
    55    65    64    1
    56    67    70   ar
    57    64    61    1
    58    72    70   ar
    59    89    88    1
    60    48    49    1
    61    49    52    1
    62    49    50    1
    63    54    56   ar
    64    54    53   ar
    65    52    53    1
    66    88    87    1
    67    56    58   ar
    68    61    60    1
    69    61    62    1
    70    53    55   ar
    71    50    51    2
    72    62    63    2
    73    62    74   am
    74    87    86    1
    75    58    59    1
    76    58    57   ar
    77    86    83    1
    78    55    57   ar
    79    74    75    1
    80    83    82    1
    81    83    84    1
    82    75    78    1
    83    75    76    1
    84    85    84    2
    85    78    79    1
    86    80    79    1
    87    76    77    2
    88    79    81    1
