@<TRIPOS>MOLECULE
tmp/4firE00.pdb
 141 131 0 0 0
SMALL
GASTEIGER

@<TRIPOS>ATOM
      1  N         19.0550   34.6540   21.5500 N.3    30  ASP30      -0.1239
      2  CA        19.0900   34.1970   22.9400 C.3    30  ASP30       0.1674
      3  C         20.5060   34.0990   23.4600 C.2    30  ASP30       0.2266
      4  O         21.3830   33.5980   22.7830 O.2    30  ASP30      -0.2867
      5  CB        18.4190   32.8490   23.1070 C.3    30  ASP30       0.1410
      6  CG        16.9340   32.9180   22.9320 C.2    30  ASP30       0.3668
      7  OD1       16.4090   33.9880   22.5700 O.co2  30  ASP30      -0.2456
      8  OD2       16.2790   31.8930   23.1510 O.co2  30  ASP30      -0.2456
      9  N         18.2710   38.3340   23.7880 N.3    49  MET49      -0.1245
     10  CA        17.2340   37.8130   24.6730 C.3    49  MET49       0.1570
     11  C         17.8680   37.0630   25.8290 C.2    49  MET49       0.2261
     12  O         18.4650   36.0260   25.6430 O.2    49  MET49      -0.2867
     13  CB        16.3180   36.8620   23.9100 C.3    49  MET49       0.0387
     14  CG        15.2080   36.2670   24.7610 C.3    49  MET49       0.0595
     15  SD        14.0220   37.5080   25.2790 S.3    49  MET49      -0.1393
     16  CE        13.1360   37.8690   23.7660 C.3    49  MET49       0.0692
     17  N         16.8250   27.2480   24.8560 N.3    55  PRO55      -0.2116
     18  CA        15.7400   26.2680   24.8260 C.3    55  PRO55       0.1372
     19  C         16.2010   24.8080   24.6900 C.2    55  PRO55       0.2244
     20  O         15.7080   23.9770   25.4460 O.2    55  PRO55      -0.2868
     21  CB        14.9380   26.6970   23.5970 C.3    55  PRO55       0.0268
     22  CG        15.1170   28.1620   23.5450 C.3    55  PRO55       0.0207
     23  CD        16.5210   28.4180   24.0140 C.3    55  PRO55       0.0892
     24  N         13.1700   36.9380   29.3530 N.3    87  LYS87      -0.1245
     25  CA        12.0180   36.0500   29.3410 C.3    87  LYS87       0.1561
     26  C         11.4070   35.9630   30.7100 C.2    87  LYS87       0.2260
     27  O         12.1210   36.0170   31.7000 O.2    87  LYS87      -0.2867
     28  CB        12.4050   34.6440   28.8730 C.3    87  LYS87       0.0271
     29  CG        12.3580   34.4300   27.3620 C.3    87  LYS87       0.0035
     30  CD        12.6580   32.9760   27.0240 C.3    87  LYS87       0.0206
     31  CE        12.9590   32.7470   25.5470 C.3    87  LYS87       0.1093
     32  NZ        11.7970   32.9580   24.6530 N.3    87  LYS87      -0.1314
     33  N          9.4760   39.0760   27.2820 N.3   108  ASP108     -0.1239
     34  CA         8.9000   38.0210   26.4860 C.3   108  ASP108      0.1674
     35  C          8.1260   37.0850   27.4030 C.2   108  ASP108      0.2266
     36  O          8.7030   36.4190   28.2710 O.2   108  ASP108     -0.2867
     37  CB        10.0190   37.2660   25.7810 C.3   108  ASP108      0.1410
     38  CG         9.5120   36.2100   24.8510 C.2   108  ASP108      0.3668
     39  OD1        8.3090   36.1320   24.6460 O.co2 108  ASP108     -0.2456
     40  OD2       10.3090   35.4510   24.2850 O.co2 108  ASP108     -0.2456
     41  N          6.5730   30.7500   26.1460 N.3   111  GLU111     -0.1231
     42  CA         6.0580   29.4230   26.3120 C.3   111  GLU111      0.1699
     43  C          7.1760   28.4080   26.4770 C.2   111  GLU111      0.2592
     44  O          6.9190   27.2380   26.7150 O.2   111  GLU111     -0.2718
     45  CB         5.1840   29.0510   25.1380 C.3   111  GLU111      0.0402
     46  CG         5.9620   28.6660   23.9230 C.3   111  GLU111      0.1161
     47  CD         6.5610   29.8460   23.2320 C.2   111  GLU111      0.3649
     48  OE1        6.2520   30.9680   23.6830 O.co2 111  GLU111     -0.2457
     49  OE2        7.3240   29.6500   22.2490 O.co2 111  GLU111     -0.2457
     50  N          8.4220   28.8350   26.3640 N.am  112  VAL112     -0.1980
     51  CA         9.5050   27.9180   26.6820 C.3   112  VAL112      0.1595
     52  C          9.7990   27.7900   28.1810 C.2   112  VAL112      0.2287
     53  O         10.3470   26.8020   28.6170 O.2   112  VAL112     -0.2864
     54  CB        10.7850   28.2180   25.9010 C.3   112  VAL112      0.0276
     55  CG1       10.4510   28.8090   24.5440 C.3   112  VAL112      0.0022
     56  CG2       11.6940   29.1160   26.6990 C.3   112  VAL112      0.0022
     57  N          5.6580   36.7440   18.0130 N.3   153  ARG153     -0.1245
     58  CA         6.4800   35.8180   17.2380 C.3   153  ARG153      0.1563
     59  C          5.7800   34.4990   17.1240 C.2   153  ARG153      0.2260
     60  O          4.8510   34.2430   17.8610 O.2   153  ARG153     -0.2867
     61  CB         7.8220   35.5890   17.9010 C.3   153  ARG153      0.0307
     62  CG         7.7070   35.2910   19.3530 C.3   153  ARG153      0.0489
     63  CD         8.9640   34.7040   19.8660 C.3   153  ARG153      0.2205
     64  NE         8.6430   33.5560   20.6860 N.pl3 153  ARG153     -0.0865
     65  CZ         8.4290   33.6540   21.9790 C.cat 153  ARG153      0.5346
     66  NH1        8.5170   34.8360   22.5440 N.pl3 153  ARG153      0.1354
     67  NH2        8.1480   32.5880   22.6940 N.pl3 153  ARG153      0.1354
     68  N          5.6580   30.4770   17.7720 N.3   155  LYS155     -0.1245
     69  CA         6.1690   29.6760   18.8510 C.3   155  LYS155      0.1561
     70  C          7.1910   28.7320   18.2780 C.2   155  LYS155      0.2260
     71  O          8.3200   28.6450   18.7850 O.2   155  LYS155     -0.2867
     72  CB         5.0390   28.9220   19.5370 C.3   155  LYS155      0.0271
     73  CG         4.2520   29.7700   20.5230 C.3   155  LYS155      0.0035
     74  CD         3.0820   29.0250   21.1220 C.3   155  LYS155      0.0206
     75  CE         2.3040   29.9180   22.0540 C.3   155  LYS155      0.1093
     76  NZ         1.3940   29.1180   22.8950 N.3   155  LYS155     -0.1314
     77  N         10.5880   25.1320   20.2090 N.3   158  ALA158     -0.1231
     78  CA        11.8400   25.7680   20.5920 C.3   158  ALA158      0.1694
     79  C         12.8670   24.7280   20.9730 C.2   158  ALA158      0.2592
     80  O         12.5240   23.7440   21.6270 O.2   158  ALA158     -0.2718
     81  CB        11.6160   26.7100   21.7370 C.3   158  ALA158      0.0304
     82  N         14.1150   24.9440   20.5460 N.am  159  GLY159     -0.1957
     83  CA        15.2380   24.0890   20.9000 C.3   159  GLY159      0.1869
     84  C         15.3440   22.8000   20.1090 C.2   159  GLY159      0.2309
     85  O         16.1680   21.9340   20.4020 O.2   159  GLY159     -0.2863
     86  N         15.8260   22.7160   16.7460 N.3   161  GLY161     -0.1225
     87  CA        16.5210   22.8500   15.4720 C.3   161  GLY161      0.1811
     88  C         15.6950   22.4970   14.2380 C.2   161  GLY161      0.2280
     89  O         16.2050   22.3520   13.1180 O.2   161  GLY161     -0.2866
     90  N         10.1430   32.5290   14.9520 N.3   255  ALA255     -0.1231
     91  CA        10.9440   31.9880   16.0400 C.3   255  ALA255      0.1694
     92  C         10.8060   30.4870   16.1350 C.2   255  ALA255      0.2593
     93  O          9.8040   29.9410   15.7540 O.2   255  ALA255     -0.2718
     94  CB        10.5640   32.6380   17.3590 C.3   255  ALA255      0.0304
     95  N         11.8650   29.8560   16.6140 N.am  256  GLY256     -0.1942
     96  CA        11.9460   28.4610   17.0150 C.3   256  GLY256      0.2014
     97  C         12.4380   27.4770   15.9630 C.2   256  GLY256      0.2639
     98  O         11.8400   27.2310   14.9150 O.2   256  GLY256     -0.2714
     99  N         13.4600   26.7550   16.3810 N.am  257  GLY257     -0.1939
    100  CA        14.1860   25.8630   15.5140 C.3   257  GLY257      0.2014
    101  C         14.8580   26.4690   14.2920 C.2   257  GLY257      0.2638
    102  O         15.0020   25.7820   13.2980 O.2   257  GLY257     -0.2714
    103  N         15.2980   27.7250   14.3300 N.am  258  VAL258     -0.1977
    104  CA        16.0620   28.2040   13.1880 C.3   258  VAL258      0.1596
    105  C         17.4590   27.7320   13.4530 C.2   258  VAL258      0.2287
    106  O         18.0470   28.0730   14.4940 O.2   258  VAL258     -0.2864
    107  CB        16.0540   29.7090   13.0700 C.3   258  VAL258      0.0276
    108  CG1       17.2440   30.1810   12.2780 C.3   258  VAL258      0.0022
    109  CG2       14.8230   30.1540   12.3810 C.3   258  VAL258      0.0022
    110  N         14.0330   35.2400   15.4850 N.3   276  PHE276     -0.1227
    111  CA        14.5850   34.9820   16.7960 C.3   276  PHE276      0.1736
    112  C         15.3480   33.6800   16.6630 C.2   276  PHE276      0.2595
    113  O         14.7950   32.6910   16.1570 O.2   276  PHE276     -0.2718
    114  CB        13.4630   34.7260   17.7910 C.3   276  PHE276      0.0547
    115  CG        12.8900   35.9510   18.4230 C.ar  276  PHE276     -0.0202
    116  CD1       13.4220   36.4460   19.5960 C.ar  276  PHE276     -0.0042
    117  CD2       11.7730   36.5720   17.8830 C.ar  276  PHE276     -0.0042
    118  CE1       12.8780   37.5570   20.1930 C.ar  276  PHE276     -0.0003
    119  CE2       11.2290   37.6810   18.4760 C.ar  276  PHE276     -0.0003
    120  CZ        11.7790   38.1760   19.6310 C.ar  276  PHE276     -0.0000
    121  N         16.6050   33.6370   17.1000 N.am  277  VAL277     -0.1966
    122  CA        17.2650   32.3370   17.2150 C.3   277  VAL277      0.1727
    123  C         18.0390   32.2360   18.5070 C.2   277  VAL277      0.2617
    124  O         18.8890   33.0780   18.7910 O.2   277  VAL277     -0.2715
    125  CB        18.1140   31.9720   15.9560 C.3   277  VAL277      0.0290
    126  CG1       18.3190   33.1660   15.0910 C.3   277  VAL277      0.0023
    127  CG2       19.4260   31.3350   16.3280 C.3   277  VAL277      0.0023
    128  N         17.6410   31.3010   19.3650 N.am  278  GLY278     -0.1940
    129  CA        18.5060   30.8980   20.4580 C.3   278  GLY278      0.2014
    130  C         19.4860   29.7550   20.2850 C.2   278  GLY278      0.2640
    131  O         20.7170   29.9280   20.3230 O.2   278  GLY278     -0.2714
    132  N         18.9310   28.5840   20.0030 N.am  279  SER279     -0.1935
    133  CA        19.6970   27.3560   20.1460 C.3   279  SER279      0.2055
    134  C         20.5530   27.1540   18.9240 C.2   279  SER279      0.2643
    135  O         21.6710   26.6360   19.0150 O.2   279  SER279     -0.2714
    136  CB        18.7760   26.1660   20.3630 C.3   279  SER279      0.2130
    137  OG        18.0440   26.3040   21.5610 O.3   279  SER279     -0.2179
    138  N         20.0170   27.5870   17.7850 N.am  280  GLY280     -0.1954
    139  CA        20.6870   27.4090   16.5140 C.3   280  GLY280      0.1869
    140  C         22.1220   27.8830   16.5250 C.2   280  GLY280      0.2309
    141  O         23.0050   27.2520   15.9300 O.2   280  GLY280     -0.2863
@<TRIPOS>BOND
     1   108   107    1
     2   109   107    1
     3   107   104    1
     4    89    88    2
     5   104   105    1
     6   104   103    1
     7   102   101    2
     8   105   106    2
     9    88    87    1
    10   101   103   am
    11   101   100    1
    12    98    97    2
    13    90    91    1
    14   126   125    1
    15    87    86    1
    16   110   111    1
    17   100    99    1
    18    93    92    2
    19   141   140    2
    20   125   127    1
    21   125   122    1
    22    97    99   am
    23    97    96    1
    24    91    92    1
    25    91    94    1
    26    92    95   am
    27   113   112    2
    28   139   140    1
    29   139   138    1
    30    95    96    1
    31   112   111    1
    32   112   121   am
    33   111   114    1
    34   121   122    1
    35    59    58    1
    36    59    60    2
    37   122   123    1
    38    58    61    1
    39    58    57    1
    40    68    69    1
    41   138   134   am
    42   114   115    1
    43   117   115   ar
    44   117   119   ar
    45    61    62    1
    46    70    71    2
    47    70    69    1
    48   115   116   ar
    49   119   120   ar
    50   123   124    2
    51   123   128   am
    52    69    72    1
    53   134   135    2
    54   134   133    1
    55    62    63    1
    56   128   129    1
    57    72    73    1
    58   116   118   ar
    59   120   118   ar
    60    63    64    1
    61   132   133    1
    62   132   130   am
    63    84    85    2
    64    84    83    1
    65   133   136    1
    66    77    78    1
    67   130   131    2
    68   130   129    1
    69   136   137    1
    70    73    74    1
    71    82    83    1
    72    82    79   am
    73    78    79    1
    74    78    81    1
    75    64    65    2
    76    79    80    2
    77    74    75    1
    78     1     2    1
    79    65    66    1
    80    65    67    1
    81    75    76    1
    82    49    47   ar
    83     7     6   ar
    84     4     3    2
    85     6     5    1
    86     6     8   ar
    87     2     5    1
    88     2     3    1
    89    47    48   ar
    90    47    46    1
    91    22    21    1
    92    22    23    1
    93    21    18    1
    94    16    15    1
    95     9    10    1
    96    13    10    1
    97    13    14    1
    98    46    45    1
    99    23    17    1
   100    40    38   ar
   101    55    54    1
   102    39    38   ar
   103    32    31    1
   104    10    11    1
   105    19    18    1
   106    19    20    2
   107    14    15    1
   108    18    17    1
   109    38    37    1
   110    45    42    1
   111    31    30    1
   112    12    11    2
   113    37    34    1
   114    54    51    1
   115    54    56    1
   116    41    42    1
   117    42    43    1
   118    50    43   am
   119    50    51    1
   120    43    44    2
   121    34    33    1
   122    34    35    1
   123    51    52    1
   124    30    29    1
   125    29    28    1
   126    35    36    2
   127    52    53    2
   128    28    25    1
   129    25    24    1
   130    25    26    1
   131    26    27    2
