@<TRIPOS>MOLECULE
tmp/4fiyA00.pdb
 196 192 0 0 0
SMALL
GASTEIGER

@<TRIPOS>ATOM
      1  N        136.3510   30.8560   55.4120 N.3   167  PRO167     -0.2102
      2  CA       137.1630   29.7770   54.8580 C.3   167  PRO167      0.1504
      3  C        138.6540   30.0700   55.0030 C.2   167  PRO167      0.2576
      4  O        139.1020   31.1740   54.6840 O.2   167  PRO167     -0.2718
      5  CB       136.7640   29.7560   53.3740 C.3   167  PRO167      0.0282
      6  CG       135.5240   30.5730   53.2810 C.3   167  PRO167      0.0208
      7  CD       135.6380   31.5910   54.3610 C.3   167  PRO167      0.0893
      8  N        139.4130   29.0910   55.4860 N.am  168  THR168     -0.1939
      9  CA       140.8470   29.2780   55.6870 C.3   168  THR168      0.2028
     10  C        141.6860   28.2490   54.9150 C.2   168  THR168      0.2642
     11  O        141.2710   27.0990   54.7300 O.2   168  THR168     -0.2714
     12  CB       141.2090   29.3240   57.2070 C.3   168  THR168      0.1808
     13  OG1      142.5590   29.7700   57.3780 O.3   168  THR168     -0.2208
     14  CG2      141.0330   27.9670   57.8860 C.3   168  THR168      0.0379
     15  N        142.8510   28.6860   54.4430 N.am  169  PHE169     -0.1973
     16  CA       143.7920   27.8170   53.7170 C.3   169  PHE169      0.1639
     17  C        145.2430   28.1670   54.0930 C.2   169  PHE169      0.2290
     18  O        145.8170   29.1430   53.5870 O.2   169  PHE169     -0.2864
     19  CB       143.5420   27.8870   52.1920 C.3   169  PHE169      0.0560
     20  CG       144.6260   27.2490   51.3510 C.ar  169  PHE169     -0.0200
     21  CD1      145.6360   28.0290   50.7790 C.ar  169  PHE169     -0.0042
     22  CD2      144.6330   25.8740   51.1210 C.ar  169  PHE169     -0.0042
     23  CE1      146.6440   27.4460   50.0040 C.ar  169  PHE169     -0.0003
     24  CE2      145.6310   25.2800   50.3450 C.ar  169  PHE169     -0.0003
     25  CZ       146.6370   26.0660   49.7830 C.ar  169  PHE169     -0.0000
     26  N        146.5630   29.5790   56.6610 N.3   171  ARG171     -0.1245
     27  CA       146.8100   30.8650   57.3180 C.3   171  ARG171      0.1563
     28  C        146.3250   30.8320   58.7650 C.2   171  ARG171      0.2260
     29  O        145.6120   31.7320   59.1980 O.2   171  ARG171     -0.2867
     30  CB       146.1740   32.0320   56.5400 C.3   171  ARG171      0.0307
     31  CG       146.8720   32.3700   55.2230 C.3   171  ARG171      0.0489
     32  CD       146.6090   33.8050   54.7650 C.3   171  ARG171      0.2205
     33  NE       145.2320   34.0220   54.3060 N.pl3 171  ARG171     -0.0865
     34  CZ       144.8470   34.0890   53.0270 C.cat 171  ARG171      0.5346
     35  NH1      145.7340   33.9540   52.0410 N.pl3 171  ARG171      0.1354
     36  NH2      143.5640   34.2950   52.7300 N.pl3 171  ARG171      0.1354
     37  N        140.6430   24.1950   54.4830 N.3   200  GLN200     -0.1245
     38  CA       141.1300   23.5060   53.2860 C.3   200  GLN200      0.1566
     39  C        142.6520   23.3330   53.2750 C.2   200  GLN200      0.2260
     40  O        143.2120   22.8320   52.2980 O.2   200  GLN200     -0.2867
     41  CB       140.6540   24.2200   52.0080 C.3   200  GLN200      0.0367
     42  CG       139.1300   24.2150   51.8140 C.3   200  GLN200      0.0905
     43  CD       138.6600   24.8290   50.4930 C.2   200  GLN200      0.2608
     44  OE1      137.7810   24.2870   49.8170 O.2   200  GLN200     -0.2717
     45  NE2      139.2300   25.9710   50.1340 N.am  200  GLN200     -0.0878
     46  N        141.4820   20.9530   49.1870 N.3   229  ASN229     -0.1240
     47  CA       141.6290   22.2920   48.6310 C.3   229  ASN229      0.1653
     48  C        140.7260   22.4830   47.4110 C.2   229  ASN229      0.2266
     49  O        140.9880   21.9420   46.3360 O.2   229  ASN229     -0.2867
     50  CB       143.0950   22.5650   48.2810 C.3   229  ASN229      0.1155
     51  CG       143.3410   23.9980   47.8470 C.2   229  ASN229      0.2627
     52  OD1      142.4640   24.8590   47.9490 O.2   229  ASN229     -0.2716
     53  ND2      144.5450   24.2630   47.3600 N.am  229  ASN229     -0.0877
     54  N        139.5850   25.7790   46.7430 N.3   231  GLY231     -0.1210
     55  CA       139.6390   27.2300   46.5800 C.3   231  GLY231      0.1956
     56  C        138.5200   27.9920   47.2600 C.2   231  GLY231      0.2612
     57  O        137.7970   27.4500   48.1000 O.2   231  GLY231     -0.2717
     58  N        138.3880   29.2610   46.8870 N.am  232  GLY232     -0.1956
     59  CA       137.2810   30.1030   47.3400 C.3   232  GLY232      0.1869
     60  C        135.9190   29.4420   47.1750 C.2   232  GLY232      0.2309
     61  O        135.2090   29.2290   48.1560 O.2   232  GLY232     -0.2863
     62  N        133.6180   28.8720   50.5060 N.3   236  TYR236     -0.1241
     63  CA       132.3480   29.5390   50.7570 C.3   236  TYR236      0.1605
     64  C        131.1480   28.6580   50.4560 C.2   236  TYR236      0.2264
     65  O        130.1350   28.7350   51.1520 O.2   236  TYR236     -0.2867
     66  CB       132.2600   30.8440   49.9810 C.3   236  TYR236      0.0534
     67  CG       133.2570   31.8710   50.4410 C.ar  236  TYR236     -0.0201
     68  CD1      133.0300   32.6320   51.5930 C.ar  236  TYR236     -0.0009
     69  CD2      134.4320   32.0870   49.7290 C.ar  236  TYR236     -0.0009
     70  CE1      133.9500   33.5890   52.0210 C.ar  236  TYR236      0.0417
     71  CE2      135.3580   33.0450   50.1460 C.ar  236  TYR236      0.0417
     72  CZ       135.1110   33.7880   51.2900 C.ar  236  TYR236      0.1957
     73  OH       136.0310   34.7270   51.6850 O.3   236  TYR236     -0.2866
     74  N        136.7330   36.8950   55.1640 N.3   256  ASP256     -0.1225
     75  CA       138.0370   36.3180   54.8660 C.3   256  ASP256      0.1805
     76  C        138.8120   36.0890   56.1620 C.2   256  ASP256      0.2598
     77  O        138.4190   36.5760   57.2160 O.2   256  ASP256     -0.2718
     78  CB       138.8140   37.2190   53.9090 C.3   256  ASP256      0.1424
     79  CG       139.8230   36.4550   53.0710 C.2   256  ASP256      0.3668
     80  OD1      139.8560   35.2050   53.1470 O.co2 256  ASP256     -0.2456
     81  OD2      140.5880   37.1080   52.3290 O.co2 256  ASP256     -0.2456
     82  N        139.8990   35.3330   56.0890 N.am  257  ASP257     -0.1960
     83  CA       140.6610   34.9890   57.2820 C.3   257  ASP257      0.1840
     84  C        141.7820   35.9840   57.5730 C.2   257  ASP257      0.2622
     85  O        142.2760   36.0650   58.6940 O.2   257  ASP257     -0.2715
     86  CB       141.2060   33.5580   57.1780 C.3   257  ASP257      0.1450
     87  CG       142.0110   33.3140   55.9000 C.2   257  ASP257      0.3671
     88  OD1      141.6750   33.8850   54.8350 O.co2 257  ASP257     -0.2456
     89  OD2      142.9830   32.5270   55.9580 O.co2 257  ASP257     -0.2456
     90  N        142.1660   36.7480   56.5570 N.am  258  ASP258     -0.1971
     91  CA       143.2500   37.7190   56.6700 C.3   258  ASP258      0.1709
     92  C        142.6970   39.1390   56.6970 C.2   258  ASP258      0.2293
     93  O        143.1110   39.9960   55.9250 O.2   258  ASP258     -0.2864
     94  CB       144.2690   37.5320   55.5280 C.3   258  ASP258      0.1436
     95  CG       143.6060   37.3040   54.1520 C.2   258  ASP258      0.3671
     96  OD1      142.6140   36.5450   54.0640 O.co2 258  ASP258     -0.2456
     97  OD2      144.0980   37.8680   53.1440 O.co2 258  ASP258     -0.2456
     98  N        136.8270   27.4430   41.5600 N.3   367  PHE367     -0.1227
     99  CA       138.0490   27.4480   42.3890 C.3   367  PHE367      0.1736
    100  C        138.3850   28.8300   42.9590 C.2   367  PHE367      0.2595
    101  O        138.1700   29.0650   44.1430 O.2   367  PHE367     -0.2718
    102  CB       139.2470   26.7900   41.6810 C.3   367  PHE367      0.0547
    103  CG       140.3980   26.4890   42.5990 C.ar  367  PHE367     -0.0202
    104  CD1      140.3790   25.3610   43.4070 C.ar  367  PHE367     -0.0042
    105  CD2      141.4930   27.3400   42.6640 C.ar  367  PHE367     -0.0042
    106  CE1      141.4280   25.0820   44.2590 C.ar  367  PHE367     -0.0003
    107  CE2      142.5480   27.0720   43.5150 C.ar  367  PHE367     -0.0003
    108  CZ       142.5150   25.9380   44.3160 C.ar  367  PHE367     -0.0000
    109  N        138.9170   29.7320   42.1310 N.am  368  ILE368     -0.1966
    110  CA       139.0380   31.1630   42.4970 C.3   368  ILE368      0.1727
    111  C        138.6770   32.1160   41.3520 C.2   368  ILE368      0.2616
    112  O        138.7700   31.7560   40.1650 O.2   368  ILE368     -0.2715
    113  CB       140.4340   31.5630   43.0630 C.3   368  ILE368      0.0290
    114  CG1      141.5620   31.0490   42.1670 C.3   368  ILE368      0.0022
    115  CG2      140.5900   31.1040   44.5080 C.3   368  ILE368      0.0023
    116  CD1      142.8980   31.6670   42.4820 C.3   368  ILE368      0.0001
    117  N        138.2690   33.3280   41.7420 N.am  369  LYS369     -0.1977
    118  CA       137.9280   34.4280   40.8260 C.3   369  LYS369      0.1596
    119  C        136.5560   34.2470   40.1710 C.2   369  LYS369      0.2287
    120  O        136.2360   33.1610   39.7070 O.2   369  LYS369     -0.2864
    121  CB       139.0310   34.6630   39.7680 C.3   369  LYS369      0.0298
    122  CG       140.4170   35.0360   40.3370 C.3   369  LYS369      0.0038
    123  CD       140.5010   36.5090   40.7020 C.3   369  LYS369      0.0206
    124  CE       141.9310   36.9490   41.0240 C.3   369  LYS369      0.1093
    125  NZ       142.3780   36.5990   42.3920 N.3   369  LYS369     -0.1314
    126  N        141.4300   44.6580   54.3350 N.3   396  HIS396     -0.1226
    127  CA       141.9180   43.4670   53.6750 C.3   396  HIS396      0.1752
    128  C        143.1130   43.7780   52.8030 C.2   396  HIS396      0.2595
    129  O        143.3370   44.9240   52.4270 O.2   396  HIS396     -0.2718
    130  CB       140.8040   42.8010   52.8750 C.3   396  HIS396      0.0759
    131  CG       141.1590   41.4410   52.3610 C.ar  396  HIS396      0.0818
    132  ND1      140.9720   41.0720   51.0460 N.ar  396  HIS396     -0.2268
    133  CD2      141.7020   40.3650   52.9800 C.ar  396  HIS396      0.1154
    134  CE1      141.3720   39.8230   50.8800 C.ar  396  HIS396      0.1986
    135  NE2      141.8220   39.3720   52.0370 N.ar  396  HIS396     -0.2212
    136  N        143.9040   42.7470   52.5280 N.am  397  MET397     -0.1979
    137  CA       145.0080   42.8330   51.5870 C.3   397  MET397      0.1605
    138  C        144.4420   43.2300   50.2250 C.2   397  MET397      0.2287
    139  O        143.5060   42.5960   49.7280 O.2   397  MET397     -0.2864
    140  CB       145.7010   41.4700   51.4900 C.3   397  MET397      0.0413
    141  CG       147.1350   41.5090   50.9870 C.3   397  MET397      0.0598
    142  SD       148.3270   41.7540   52.3210 S.3   397  MET397     -0.1393
    143  CE       148.3900   40.1210   53.0820 C.3   397  MET397      0.0692
    144  N        145.6040   44.8440   46.0780 N.3   399  TRP399     -0.1241
    145  CA       146.6510   44.5640   45.0940 C.3   399  TRP399      0.1605
    146  C        147.7330   45.6480   45.1760 C.2   399  TRP399      0.2264
    147  O        148.2690   46.0850   44.1510 O.2   399  TRP399     -0.2867
    148  CB       146.0830   44.4530   43.6710 C.3   399  TRP399      0.0550
    149  CG       144.6250   44.0690   43.5950 C.ar  399  TRP399      0.0003
    150  CD1      144.0060   43.0200   44.2320 C.ar  399  TRP399      0.0946
    151  CD2      143.6060   44.7260   42.8230 C.ar  399  TRP399      0.0152
    152  NE1      142.6660   42.9990   43.9150 N.ar  399  TRP399     -0.2442
    153  CE2      142.3940   44.0290   43.0500 C.ar  399  TRP399      0.0810
    154  CE3      143.6000   45.8400   41.9640 C.ar  399  TRP399      0.0012
    155  CZ2      141.1840   44.4110   42.4470 C.ar  399  TRP399      0.0191
    156  CZ3      142.3980   46.2180   41.3640 C.ar  399  TRP399      0.0001
    157  CH2      141.2070   45.5060   41.6130 C.ar  399  TRP399      0.0015
    158  N        150.2040   41.8110   43.9810 N.3   403  ASP403     -0.1239
    159  CA       149.5840   40.7850   43.1200 C.3   403  ASP403      0.1674
    160  C        149.7510   41.0570   41.6120 C.2   403  ASP403      0.2266
    161  O        150.2400   42.1210   41.2160 O.2   403  ASP403     -0.2867
    162  CB       148.0840   40.6180   43.4670 C.3   403  ASP403      0.1410
    163  CG       147.8230   39.5890   44.5870 C.2   403  ASP403      0.3668
    164  OD1      148.6960   38.7350   44.8560 O.co2 403  ASP403     -0.2456
    165  OD2      146.7190   39.6250   45.1850 O.co2 403  ASP403     -0.2456
    166  N        149.7260   31.9780   37.6600 N.3   408  TRP408     -0.1227
    167  CA       148.7810   30.8660   37.5580 C.3   408  TRP408      0.1737
    168  C        147.3090   31.2860   37.5620 C.2   408  TRP408      0.2595
    169  O        146.4770   30.6590   36.9100 O.2   408  TRP408     -0.2718
    170  CB       149.0520   29.8320   38.6420 C.3   408  TRP408      0.0564
    171  CG       149.0150   30.3570   40.0370 C.ar  408  TRP408      0.0003
    172  CD1      150.0390   30.9540   40.7180 C.ar  408  TRP408      0.0946
    173  CD2      147.9070   30.3060   40.9390 C.ar  408  TRP408      0.0152
    174  NE1      149.6300   31.2910   41.9850 N.ar  408  TRP408     -0.2442
    175  CE2      148.3260   30.9030   42.1500 C.ar  408  TRP408      0.0810
    176  CE3      146.5950   29.8250   40.8400 C.ar  408  TRP408      0.0012
    177  CZ2      147.4810   31.0280   43.2580 C.ar  408  TRP408      0.0191
    178  CZ3      145.7580   29.9440   41.9460 C.ar  408  TRP408      0.0001
    179  CH2      146.2060   30.5440   43.1390 C.ar  408  TRP408      0.0015
    180  N        147.0080   32.3620   38.2810 N.am  409  GLN409     -0.1979
    181  CA       145.6620   32.9110   38.3490 C.3   409  GLN409      0.1601
    182  C        145.1150   33.3400   36.9880 C.2   409  GLN409      0.2287
    183  O        143.9100   33.2650   36.7510 O.2   409  GLN409     -0.2864
    184  CB       145.6210   34.0580   39.3590 C.3   409  GLN409      0.0394
    185  CG       145.3860   33.5540   40.7910 C.3   409  GLN409      0.0908
    186  CD       145.9480   34.4610   41.8810 C.2   409  GLN409      0.2608
    187  OE1      145.2390   34.8430   42.8190 O.2   409  GLN409     -0.2717
    188  NE2      147.2290   34.7890   41.7740 N.am  409  GLN409     -0.0878
    189  N        144.3840   23.2200   39.4790 N.3   480  LEU480     -0.1245
    190  CA       145.4950   23.9890   40.0290 C.3   480  LEU480      0.1561
    191  C        146.8480   23.3140   39.7860 C.2   480  LEU480      0.2260
    192  O        147.7420   23.9530   39.2260 O.2   480  LEU480     -0.2867
    193  CB       145.2680   24.3100   41.5150 C.3   480  LEU480      0.0270
    194  CG       146.3750   24.9640   42.3570 C.3   480  LEU480      0.0019
    195  CD1      146.7560   26.3430   41.8370 C.3   480  LEU480      0.0001
    196  CD2      145.9470   25.0410   43.8120 C.3   480  LEU480      0.0001
@<TRIPOS>BOND
     1   183   182    2
     2   169   168    2
     3   182   181    1
     4   167   168    1
     5   167   166    1
     6   167   170    1
     7   168   180   am
     8   180   181    1
     9   181   184    1
    10   170   171    1
    11   192   191    2
    12   184   185    1
    13   189   190    1
    14   120   119    2
    15   121   122    1
    16   121   118    1
    17   191   190    1
    18   190   193    1
    19   171   172   ar
    20   171   173   ar
    21   112   111    2
    22   119   118    1
    23   122   123    1
    24   123   124    1
    25   172   174   ar
    26   185   186    1
    27   118   117    1
    28   176   173   ar
    29   176   178   ar
    30   173   175   ar
    31   124   125    1
    32   161   160    2
    33   111   117   am
    34   111   110    1
    35   156   157   ar
    36   156   154   ar
    37   193   194    1
    38    98    99    1
    39   160   159    1
    40   157   155   ar
    41   102    99    1
    42   102   103    1
    43   188   186   am
    44   195   194    1
    45   186   187    2
    46   178   179   ar
    47   154   151   ar
    48   174   175   ar
    49   109   110    1
    50   109   100   am
    51   175   177   ar
    52   114   116    1
    53   114   113    1
    54   194   196    1
    55    99   100    1
    56   155   153   ar
    57   110   113    1
    58   103   105   ar
    59   103   104   ar
    60   105   107   ar
    61   151   153   ar
    62   151   149   ar
    63   100   101    2
    64   153   152   ar
    65   113   115    1
    66   159   162    1
    67   159   158    1
    68   179   177   ar
    69   104   106   ar
    70   162   163    1
    71   107   108   ar
    72   149   148    1
    73   149   150   ar
    74   148   145    1
    75   152   150   ar
    76   147   146    2
    77   106   108   ar
    78   163   164   ar
    79   163   165   ar
    80   145   146    1
    81   145   144    1
    82    49    48    2
    83    55    54    1
    84    55    56    1
    85    58    56   am
    86    58    59    1
    87    60    59    1
    88    60    61    2
    89    56    57    2
    90    53    51   am
    91    48    47    1
    92    51    52    2
    93    51    50    1
    94    50    47    1
    95    47    46    1
    96   139   138    2
    97    69    71   ar
    98    69    67   ar
    99    25    23   ar
   100    25    24   ar
   101    44    43    2
   102    66    67    1
   103    66    63    1
   104    23    21   ar
   105    45    43   am
   106    71    72   ar
   107   138   137    1
   108    24    22   ar
   109    67    68   ar
   110    64    63    1
   111    64    65    2
   112    43    42    1
   113    62    63    1
   114    21    20   ar
   115   134   132   ar
   116   134   135   ar
   117   141   140    1
   118   141   142    1
   119   132   131   ar
   120    22    20   ar
   121    72    73    1
   122    72    70   ar
   123    20    19    1
   124   140   137    1
   125   137   136    1
   126    68    70   ar
   127    42    41    1
   128    41    38    1
   129   135   133   ar
   130    35    34    1
   131    19    16    1
   132    40    39    2
   133   142   143    1
   134    81    79   ar
   135   131   130    1
   136   131   133   ar
   137   129   128    2
   138   136   128   am
   139    36    34    1
   140   128   127    1
   141   130   127    1
   142    34    33    2
   143    79    80   ar
   144    79    78    1
   145    97    95   ar
   146    39    38    1
   147     6     5    1
   148     6     7    1
   149    38    37    1
   150     5     2    1
   151    18    17    2
   152   127   126    1
   153    16    17    1
   154    16    15    1
   155    78    75    1
   156    96    95   ar
   157    95    94    1
   158    33    32    1
   159     7     1    1
   160    15    10   am
   161     4     3    2
   162    11    10    2
   163    32    31    1
   164    88    87   ar
   165     2     3    1
   166     2     1    1
   167    75    74    1
   168    75    76    1
   169    10     9    1
   170     3     8   am
   171    31    30    1
   172     8     9    1
   173    94    91    1
   174     9    12    1
   175    87    89   ar
   176    87    86    1
   177    93    92    2
   178    82    76   am
   179    82    83    1
   180    76    77    2
   181    30    27    1
   182    90    91    1
   183    90    84   am
   184    26    27    1
   185    91    92    1
   186    86    83    1
   187    12    13    1
   188    12    14    1
   189    83    84    1
   190    27    28    1
   191    84    85    2
   192    28    29    2
