@<TRIPOS>MOLECULE
tmp/4fj0B01.pdb
 154 148 0 0 0
SMALL
GASTEIGER

@<TRIPOS>ATOM
      1  N        -23.3160    4.9530    4.6940 N.3    97  VAL97      -0.1245
      2  CA       -22.9740    5.2400    6.0700 C.3    97  VAL97       0.1561
      3  C        -24.1680    4.8590    6.9500 C.2    97  VAL97       0.2260
      4  O        -25.2690    4.6930    6.4710 O.2    97  VAL97      -0.2867
      5  CB       -22.6290    6.7470    6.2600 C.3    97  VAL97       0.0252
      6  CG1      -23.8910    7.6260    6.2160 C.3    97  VAL97       0.0019
      7  CG2      -21.8950    6.9710    7.5820 C.3    97  VAL97       0.0019
      8  N        -12.1580    3.9550    5.5330 N.3   143  SER143     -0.1202
      9  CA       -12.5440    5.1780    6.2110 C.3   143  SER143      0.2020
     10  C        -11.5920    5.4180    7.3550 C.2   143  SER143      0.2619
     11  O        -11.1120    4.4760    7.9570 O.2   143  SER143     -0.2717
     12  CB       -13.9730    4.9850    6.7500 C.3   143  SER143      0.2103
     13  OG       -14.3450    6.0110    7.6360 O.3   143  SER143     -0.2182
     14  N        -11.3860    6.6740    7.7380 N.am  144  ASN144     -0.1960
     15  CA       -10.6000    6.9490    8.9340 C.3   144  ASN144      0.1819
     16  C        -11.2420    6.3710   10.2010 C.2   144  ASN144      0.2621
     17  O        -10.5440    6.1500   11.1930 O.2   144  ASN144     -0.2715
     18  CB       -10.2840    8.4510    9.0940 C.3   144  ASN144      0.1195
     19  CG       -11.5020    9.3070    9.3470 C.2   144  ASN144      0.2630
     20  OD1      -12.6600    8.9070    9.1080 O.2   144  ASN144     -0.2716
     21  ND2      -11.2360   10.5530    9.7780 N.am  144  ASN144     -0.0877
     22  N        -12.5520    6.1060   10.1620 N.am  145  THR145     -0.1951
     23  CA       -13.2740    5.5470   11.3310 C.3   145  THR145      0.1897
     24  C        -12.9820    4.0670   11.6120 C.2   145  THR145      0.2313
     25  O        -13.2880    3.5590   12.6780 O.2   145  THR145     -0.2863
     26  CB       -14.7860    5.6870   11.1770 C.3   145  THR145      0.1794
     27  OG1      -15.1990    4.9850   10.0070 O.3   145  THR145     -0.2208
     28  CG2      -15.1800    7.1930   11.0580 C.3   145  THR145      0.0378
     29  N        -10.1540    7.0450   14.0140 N.3   149  PHE149     -0.1241
     30  CA       -11.1090    8.0200   14.5070 C.3   149  PHE149      0.1605
     31  C        -12.2610    7.2510   15.1270 C.2   149  PHE149      0.2264
     32  O        -12.8060    6.3600   14.4910 O.2   149  PHE149     -0.2867
     33  CB       -11.5480    8.8630   13.3090 C.3   149  PHE149      0.0534
     34  CG       -12.4420   10.0200   13.6370 C.ar  149  PHE149     -0.0203
     35  CD1      -12.1820   10.8470   14.7140 C.ar  149  PHE149     -0.0042
     36  CD2      -13.5300   10.3130   12.8120 C.ar  149  PHE149     -0.0042
     37  CE1      -13.0170   11.9140   14.9890 C.ar  149  PHE149     -0.0003
     38  CE2      -14.3660   11.3900   13.0780 C.ar  149  PHE149     -0.0003
     39  CZ       -14.1060   12.1930   14.1750 C.ar  149  PHE149     -0.0000
     40  N        -20.6280    0.7940   10.7540 N.3   157  TYR157     -0.1241
     41  CA       -19.8730    1.3540    9.6490 C.3   157  TYR157      0.1605
     42  C        -18.3820    1.1810    9.8560 C.2   157  TYR157      0.2264
     43  O        -17.6530    0.8210    8.9320 O.2   157  TYR157     -0.2867
     44  CB       -20.1920    2.8410    9.5050 C.3   157  TYR157      0.0534
     45  CG       -19.4740    3.5170    8.3700 C.ar  157  TYR157     -0.0201
     46  CD1      -19.9040    3.3600    7.0560 C.ar  157  TYR157     -0.0009
     47  CD2      -18.3420    4.2860    8.6020 C.ar  157  TYR157     -0.0009
     48  CE1      -19.2550    4.0090    6.0020 C.ar  157  TYR157      0.0417
     49  CE2      -17.6880    4.9350    7.5760 C.ar  157  TYR157      0.0417
     50  CZ       -18.1400    4.7900    6.2660 C.ar  157  TYR157      0.1957
     51  OH       -17.4600    5.4350    5.2410 O.3   157  TYR157     -0.2866
     52  N        -10.6260    7.8550    3.6020 N.3   187  PRO187     -0.2102
     53  CA       -10.8320    9.2850    3.7980 C.3   187  PRO187      0.1504
     54  C        -11.4200    9.5970    5.1510 C.2   187  PRO187      0.2576
     55  O        -12.1290    8.7820    5.7100 O.2   187  PRO187     -0.2718
     56  CB       -11.8460    9.6590    2.7080 C.3   187  PRO187      0.0282
     57  CG       -11.8540    8.5110    1.7500 C.3   187  PRO187      0.0208
     58  CD       -11.5180    7.3080    2.5720 C.3   187  PRO187      0.0893
     59  N        -11.1240   10.7920    5.6530 N.am  188  GLY188     -0.1943
     60  CA       -11.8990   11.3670    6.7350 C.3   188  GLY188      0.2014
     61  C        -13.0560   12.1240    6.1280 C.2   188  GLY188      0.2639
     62  O        -13.4490   11.8510    4.9960 O.2   188  GLY188     -0.2714
     63  N        -13.6150   13.0670    6.8740 N.am  189  GLY189     -0.1939
     64  CA       -14.7470   13.8300    6.4050 C.3   189  GLY189      0.2014
     65  C        -14.4240   14.5480    5.1080 C.2   189  GLY189      0.2639
     66  O        -13.5510   15.3800    5.0740 O.2   189  GLY189     -0.2714
     67  N        -15.1570   14.2050    4.0600 N.am  190  THR190     -0.1950
     68  CA       -14.9690   14.7350    2.7390 C.3   190  THR190      0.1897
     69  C        -16.3310   15.2510    2.2830 C.2   190  THR190      0.2313
     70  O        -17.3290   14.5320    2.3720 O.2   190  THR190     -0.2863
     71  CB       -14.4760   13.6120    1.8000 C.3   190  THR190      0.1794
     72  OG1      -13.3170   12.9730    2.3630 O.3   190  THR190     -0.2208
     73  CG2      -14.1730   14.1560    0.3790 C.3   190  THR190      0.0378
     74  N        -23.0220   12.4700    1.3070 N.3   194  MET194     -0.1230
     75  CA       -22.9080   11.6890    2.5510 C.3   194  MET194      0.1702
     76  C        -22.4760   12.5690    3.7310 C.2   194  MET194      0.2592
     77  O        -22.9260   12.3620    4.8700 O.2   194  MET194     -0.2718
     78  CB       -21.9030   10.5420    2.3850 C.3   194  MET194      0.0401
     79  CG       -21.6930    9.6750    3.6230 C.3   194  MET194      0.0596
     80  SD       -20.4190    8.3870    3.4400 S.3   194  MET194     -0.1393
     81  CE       -21.2150    7.2850    2.2610 C.3   194  MET194      0.0692
     82  N        -21.5660   13.5060    3.4700 N.am  195  PHE195     -0.1976
     83  CA       -21.0510   14.3620    4.5100 C.3   195  PHE195      0.1639
     84  C        -22.1910   15.1280    5.1490 C.2   195  PHE195      0.2290
     85  O        -22.3670   15.1090    6.3630 O.2   195  PHE195     -0.2864
     86  CB       -20.0590   15.3560    3.9400 C.3   195  PHE195      0.0560
     87  CG       -19.4950   16.2520    4.9630 C.ar  195  PHE195     -0.0200
     88  CD1      -20.1790   17.4000    5.3060 C.ar  195  PHE195     -0.0042
     89  CD2      -18.2970   15.9510    5.5930 C.ar  195  PHE195     -0.0042
     90  CE1      -19.6790   18.2320    6.2580 C.ar  195  PHE195     -0.0003
     91  CE2      -17.7840   16.7930    6.5530 C.ar  195  PHE195     -0.0003
     92  CZ       -18.4790   17.9260    6.8850 C.ar  195  PHE195     -0.0000
     93  N        -24.8370   13.1960    7.2830 N.3   198  VAL198     -0.1231
     94  CA       -24.4750   12.6740    8.6220 C.3   198  VAL198      0.1692
     95  C        -23.5420   13.5030    9.5170 C.2   198  VAL198      0.2592
     96  O        -23.2680   13.1100   10.6460 O.2   198  VAL198     -0.2718
     97  CB       -23.9570   11.2450    8.4680 C.3   198  VAL198      0.0266
     98  CG1      -25.0400   10.4190    7.7680 C.3   198  VAL198      0.0020
     99  CG2      -22.6440   11.2180    7.7030 C.3   198  VAL198      0.0020
    100  N        -23.1090   14.6830    9.0680 N.am  199  SER199     -0.1952
    101  CA       -22.1700   15.5030    9.8620 C.3   199  SER199      0.1924
    102  C        -22.6530   15.7420   11.3070 C.2   199  SER199      0.2314
    103  O        -21.8320   15.8810   12.2000 O.2   199  SER199     -0.2863
    104  CB       -21.8820   16.8330    9.1380 C.3   199  SER199      0.2116
    105  OG       -23.0610   17.5900    9.0320 O.3   199  SER199     -0.2180
    106  N        -21.2640   13.2970   13.9660 N.3   202  TYR202     -0.1227
    107  CA       -19.8400   13.4060   14.2970 C.3   202  TYR202      0.1736
    108  C        -19.5470   14.4770   15.3250 C.2   202  TYR202      0.2595
    109  O        -18.4490   14.5240   15.8630 O.2   202  TYR202     -0.2718
    110  CB       -19.0140   13.6450   13.0330 C.3   202  TYR202      0.0548
    111  CG       -19.0210   12.4440   12.1110 C.ar  202  TYR202     -0.0200
    112  CD1      -18.0640   11.4670   12.2840 C.ar  202  TYR202     -0.0009
    113  CD2      -19.9750   12.2610   11.0870 C.ar  202  TYR202     -0.0009
    114  CE1      -18.0060   10.3520   11.4890 C.ar  202  TYR202      0.0417
    115  CE2      -19.9160   11.1270   10.2640 C.ar  202  TYR202      0.0417
    116  CZ       -18.9290   10.1750   10.4810 C.ar  202  TYR202      0.1957
    117  OH       -18.8310    9.0260    9.7100 O.3   202  TYR202     -0.2866
    118  N        -20.5320   15.3270   15.6000 N.am  203  ILE203     -0.1980
    119  CA       -20.3530   16.4600   16.4850 C.3   203  ILE203      0.1595
    120  C        -21.2790   16.3600   17.7090 C.2   203  ILE203      0.2287
    121  O        -22.4700   16.0730   17.5660 O.2   203  ILE203     -0.2864
    122  CB       -20.6790   17.7760   15.7460 C.3   203  ILE203      0.0276
    123  CG1      -19.7020   18.0130   14.5860 C.3   203  ILE203      0.0022
    124  CG2      -20.6460   18.9410   16.7220 C.3   203  ILE203      0.0022
    125  CD1      -20.0920   19.1620   13.6780 C.3   203  ILE203      0.0001
    126  N        -21.4000   22.9880   10.7940 N.3   214  ARG214     -0.1245
    127  CA       -20.8930   21.6500   10.9890 C.3   214  ARG214      0.1563
    128  C        -19.7280   21.3820   10.0370 C.2   214  ARG214      0.2260
    129  O        -18.7350   20.7550   10.4160 O.2   214  ARG214     -0.2867
    130  CB       -22.0080   20.6160   10.8170 C.3   214  ARG214      0.0307
    131  CG       -22.9810   20.5510   12.0010 C.3   214  ARG214      0.0489
    132  CD       -23.7830   19.2710   11.9870 C.3   214  ARG214      0.2205
    133  NE       -24.6020   19.1580   10.7900 N.pl3 214  ARG214     -0.0865
    134  CZ       -25.7990   19.7100   10.6310 C.cat 214  ARG214      0.5346
    135  NH1      -26.3620   20.4270   11.5890 N.pl3 214  ARG214      0.1354
    136  NH2      -26.4350   19.5470    9.4780 N.pl3 214  ARG214      0.1354
    137  N        -16.6770   23.1220   11.3140 N.3   217  MET217     -0.1230
    138  CA       -16.0290   22.3840   12.4100 C.3   217  MET217      0.1702
    139  C        -15.2100   21.2080   11.9120 C.2   217  MET217      0.2592
    140  O        -14.1300   20.9430   12.4440 O.2   217  MET217     -0.2718
    141  CB       -17.0520   21.9360   13.4460 C.3   217  MET217      0.0401
    142  CG       -17.5150   23.0890   14.3180 C.3   217  MET217      0.0596
    143  SD       -18.9850   22.6550   15.2720 S.3   217  MET217     -0.1393
    144  CE       -18.4430   21.0720   15.9320 C.3   217  MET217      0.0692
    145  N        -15.7050   20.5080   10.8870 N.am  218  ALA218     -0.1980
    146  CA       -14.9230   19.4460   10.2450 C.3   218  ALA218      0.1597
    147  C        -13.6430   20.0230    9.6200 C.2   218  ALA218      0.2287
    148  O        -12.5960   19.3790    9.6520 O.2   218  ALA218     -0.2864
    149  CB       -15.7360   18.6840    9.2060 C.3   218  ALA218      0.0319
    150  N        -10.8870   20.3170   12.1580 N.3   221  ALA221     -0.1245
    151  CA       -10.3120   19.0660   12.6290 C.3   221  ALA221      0.1562
    152  C         -8.9470   18.8370   11.9810 C.2   221  ALA221      0.2260
    153  O         -8.1030   18.1620   12.5570 O.2   221  ALA221     -0.2867
    154  CB       -11.2320   17.8830   12.3570 C.3   221  ALA221      0.0290
@<TRIPOS>BOND
     1    73    71    1
     2    74    75    1
     3    57    58    1
     4    57    56    1
     5    71    72    1
     6    71    68    1
     7    81    80    1
     8    69    70    2
     9    69    68    1
    10    78    75    1
    11    78    79    1
    12    75    76    1
    13    58    52    1
    14    56    53    1
    15    68    67    1
    16    80    79    1
    17    82    76   am
    18    82    83    1
    19    52    53    1
    20    76    77    2
    21    53    54    1
    22    86    83    1
    23    86    87    1
    24    67    65   am
    25    83    84    1
    26     1     2    1
    27    87    88   ar
    28    87    89   ar
    29    62    61    2
    30    66    65    2
    31    65    64    1
    32    84    85    2
    33    54    59   am
    34    54    55    2
    35    51    50    1
    36    88    90   ar
    37     8     9    1
    38    89    91   ar
    39    59    60    1
    40    48    50   ar
    41    48    46   ar
    42     2     5    1
    43     2     3    1
    44    61    60    1
    45    61    63   am
    46     9    12    1
    47     9    10    1
    48     6     5    1
    49    90    92   ar
    50     5     7    1
    51    50    49   ar
    52    64    63    1
    53     4     3    2
    54    91    92   ar
    55    12    13    1
    56    46    45   ar
    57    93    94    1
    58    10    14   am
    59    10    11    2
    60    49    47   ar
    61    99    97    1
    62    14    15    1
    63    98    97    1
    64    45    47   ar
    65    45    44    1
    66    97    94    1
    67    94    95    1
    68    43    42    2
    69    15    18    1
    70    15    16    1
    71   105   104    1
    72   100    95   am
    73   100   101    1
    74    18    19    1
    75    20    19    2
    76   104   101    1
    77   149   146    1
    78    19    21   am
    79   136   134    1
    80    44    41    1
    81    95    96    2
    82   147   148    2
    83   147   146    1
    84    41    42    1
    85    41    40    1
    86   117   116    1
    87   101   102    1
    88    27    26    1
    89   128   129    2
    90   128   127    1
    91    22    16   am
    92    22    23    1
    93    16    17    2
    94   146   145    1
    95   115   116   ar
    96   115   113   ar
    97   116   114   ar
    98   134   133    2
    99   134   135    1
   100   133   132    1
   101   126   127    1
   102   130   127    1
   103   130   131    1
   104   145   139   am
   105    28    26    1
   106   113   111   ar
   107    26    23    1
   108   102   103    2
   109   137   138    1
   110    23    24    1
   111   114   112   ar
   112    24    25    2
   113   139   138    1
   114   139   140    2
   115   152   153    2
   116   152   151    1
   117   132   131    1
   118   111   112   ar
   119   111   110    1
   120   150   151    1
   121   154   151    1
   122   138   141    1
   123    36    38   ar
   124    36    34   ar
   125   110   107    1
   126    38    39   ar
   127    33    34    1
   128    33    30    1
   129   141   142    1
   130    34    35   ar
   131   125   123    1
   132   106   107    1
   133    29    30    1
   134    39    37   ar
   135   107   108    1
   136   142   143    1
   137    32    31    2
   138    30    31    1
   139   123   122    1
   140    35    37   ar
   141   143   144    1
   142   108   118   am
   143   108   109    2
   144   118   119    1
   145   122   119    1
   146   122   124    1
   147   119   120    1
   148   121   120    2
