@<TRIPOS>MOLECULE
tmp/4fj1B01.pdb
 122 116 0 0 0
SMALL
GASTEIGER

@<TRIPOS>ATOM
      1  N        -11.4120    6.3750    7.7630 N.3   143  ASN143     -0.1225
      2  CA       -10.6280    6.6650    8.9540 C.3   143  ASN143      0.1785
      3  C        -11.2760    6.0810   10.2190 C.2   143  ASN143      0.2597
      4  O        -10.6120    5.9150   11.2390 O.2   143  ASN143     -0.2718
      5  CB       -10.3460    8.1900    9.0950 C.3   143  ASN143      0.1169
      6  CG       -11.5940    9.0140    9.3510 C.2   143  ASN143      0.2627
      7  OD1      -12.7160    8.5720    9.1170 O.2   143  ASN143     -0.2716
      8  ND2      -11.3940   10.2460    9.7800 N.am  143  ASN143     -0.0877
      9  N        -12.5660    5.7570   10.1580 N.am  144  THR144     -0.1953
     10  CA       -13.2640    5.1990   11.3360 C.3   144  THR144      0.1897
     11  C        -12.9610    3.7070   11.5800 C.2   144  THR144      0.2313
     12  O        -13.3050    3.1500   12.6170 O.2   144  THR144     -0.2863
     13  CB       -14.7760    5.4200   11.2290 C.3   144  THR144      0.1794
     14  OG1      -15.2740    4.7810   10.0490 O.3   144  THR144     -0.2208
     15  CG2      -15.0480    6.9470   11.1790 C.3   144  THR144      0.0378
     16  N        -10.1560    6.7360   13.9560 N.3   148  PHE148     -0.1241
     17  CA       -11.1290    7.6920   14.4700 C.3   148  PHE148      0.1605
     18  C        -12.2430    6.8770   15.1210 C.2   148  PHE148      0.2264
     19  O        -12.7410    5.9330   14.5280 O.2   148  PHE148     -0.2867
     20  CB       -11.6240    8.5670   13.2980 C.3   148  PHE148      0.0534
     21  CG       -12.5520    9.7010   13.6930 C.ar  148  PHE148     -0.0203
     22  CD1      -12.3340   10.4480   14.8360 C.ar  148  PHE148     -0.0042
     23  CD2      -13.6450   10.0340   12.8730 C.ar  148  PHE148     -0.0042
     24  CE1      -13.2000   11.4740   15.1790 C.ar  148  PHE148     -0.0003
     25  CE2      -14.5140   11.0650   13.2100 C.ar  148  PHE148     -0.0003
     26  CZ       -14.2880   11.7900   14.3660 C.ar  148  PHE148     -0.0000
     27  N        -11.1660   10.4360    5.6260 N.3   187  GLY187     -0.1210
     28  CA       -11.9050   11.0510    6.7150 C.3   187  GLY187      0.1956
     29  C        -13.0970   11.7860    6.1280 C.2   187  GLY187      0.2612
     30  O        -13.4980   11.5020    4.9980 O.2   187  GLY187     -0.2717
     31  N        -13.6630   12.7210    6.8920 N.am  188  GLY188     -0.1942
     32  CA       -14.7890   13.5060    6.4500 C.3   188  GLY188      0.2014
     33  C        -14.5030   14.2450    5.1560 C.2   188  GLY188      0.2639
     34  O        -13.6600   15.1200    5.1030 O.2   188  GLY188     -0.2714
     35  N        -15.2310   13.8700    4.1170 N.am  189  THR189     -0.1950
     36  CA       -15.0420   14.3780    2.7760 C.3   189  THR189      0.1897
     37  C        -16.4120   14.8860    2.3190 C.2   189  THR189      0.2313
     38  O        -17.3890   14.1460    2.3580 O.2   189  THR189     -0.2863
     39  CB       -14.5050   13.2470    1.8560 C.3   189  THR189      0.1794
     40  OG1      -13.3040   12.7000    2.4250 O.3   189  THR189     -0.2208
     41  CG2      -14.2250   13.7530    0.4190 C.3   189  THR189      0.0378
     42  N        -22.9840   12.1040    1.3910 N.3   193  MET193     -0.1230
     43  CA       -22.8380   11.3230    2.6240 C.3   193  MET193      0.1702
     44  C        -22.4290   12.2010    3.8040 C.2   193  MET193      0.2592
     45  O        -22.8720   11.9640    4.9460 O.2   193  MET193     -0.2718
     46  CB       -21.8210   10.1800    2.4460 C.3   193  MET193      0.0401
     47  CG       -21.5520    9.3550    3.7050 C.3   193  MET193      0.0596
     48  SD       -20.3260    8.0500    3.4600 S.3   193  MET193     -0.1393
     49  CE       -21.2240    6.9160    2.3630 C.3   193  MET193      0.0692
     50  N        -21.5660   13.1840    3.5430 N.am  194  PHE194     -0.1976
     51  CA       -21.1150   14.0870    4.5880 C.3   194  PHE194      0.1639
     52  C        -22.3070   14.8020    5.2150 C.2   194  PHE194      0.2290
     53  O        -22.4690   14.8010    6.4300 O.2   194  PHE194     -0.2864
     54  CB       -20.1280   15.1110    4.0420 C.3   194  PHE194      0.0560
     55  CG       -19.5630   15.9990    5.0930 C.ar  194  PHE194     -0.0200
     56  CD1      -20.2360   17.1450    5.4550 C.ar  194  PHE194     -0.0042
     57  CD2      -18.3910   15.6640    5.7440 C.ar  194  PHE194     -0.0042
     58  CE1      -19.7400   17.9610    6.4410 C.ar  194  PHE194     -0.0003
     59  CE2      -17.8830   16.4800    6.7200 C.ar  194  PHE194     -0.0003
     60  CZ       -18.5610   17.6310    7.0730 C.ar  194  PHE194     -0.0000
     61  N        -24.9530   12.8950    7.4140 N.3   197  VAL197     -0.1231
     62  CA       -24.6530   12.3820    8.7680 C.3   197  VAL197      0.1692
     63  C        -23.7040   13.1870    9.6560 C.2   197  VAL197      0.2592
     64  O        -23.3510   12.7330   10.7450 O.2   197  VAL197     -0.2718
     65  CB       -24.1240   10.9370    8.6770 C.3   197  VAL197      0.0266
     66  CG1      -25.2050   10.0480    8.0610 C.3   197  VAL197      0.0020
     67  CG2      -22.8060   10.8470    7.9050 C.3   197  VAL197      0.0020
     68  N        -23.3100   14.3830    9.2170 N.am  198  SER198     -0.1952
     69  CA       -22.3230   15.2080    9.9520 C.3   198  SER198      0.1924
     70  C        -22.7400   15.5150   11.4140 C.2   198  SER198      0.2314
     71  O        -21.8970   15.7330   12.2910 O.2   198  SER198     -0.2863
     72  CB       -22.0550   16.5050    9.1790 C.3   198  SER198      0.2116
     73  OG       -23.2420   17.2640    9.0590 O.3   198  SER198     -0.2180
     74  N        -21.3620   13.1470   14.3290 N.3   201  TYR201     -0.1227
     75  CA       -19.9480   13.2030   14.7550 C.3   201  TYR201      0.1736
     76  C        -19.6840   14.3130   15.7710 C.2   201  TYR201      0.2595
     77  O        -18.5670   14.4620   16.2360 O.2   201  TYR201     -0.2718
     78  CB       -19.0340   13.4210   13.5350 C.3   201  TYR201      0.0548
     79  CG       -19.1750   12.3990   12.4370 C.ar  201  TYR201     -0.0200
     80  CD1      -20.2170   12.4940   11.5190 C.ar  201  TYR201     -0.0009
     81  CD2      -18.2640   11.3620   12.2900 C.ar  201  TYR201     -0.0009
     82  CE1      -20.3610   11.5750   10.4930 C.ar  201  TYR201      0.0417
     83  CE2      -18.3930   10.4380   11.2650 C.ar  201  TYR201      0.0417
     84  CZ       -19.4370   10.5520   10.3690 C.ar  201  TYR201      0.1957
     85  OH       -19.5710    9.6300    9.3710 O.3   201  TYR201     -0.2866
     86  N        -20.6990   15.1150   16.0810 N.am  202  ILE202     -0.1980
     87  CA       -20.5300   16.2760   16.9570 C.3   202  ILE202      0.1595
     88  C        -21.5410   16.1960   18.0910 C.2   202  ILE202      0.2287
     89  O        -22.6970   15.8720   17.8600 O.2   202  ILE202     -0.2864
     90  CB       -20.7660   17.6040   16.1930 C.3   202  ILE202      0.0276
     91  CG1      -19.6420   17.8560   15.1780 C.3   202  ILE202      0.0022
     92  CG2      -20.8900   18.7690   17.1680 C.3   202  ILE202      0.0022
     93  CD1      -20.0640   18.7980   14.0630 C.3   202  ILE202      0.0001
     94  N        -21.4500   22.6640   10.9440 N.3   213  ARG213     -0.1245
     95  CA       -20.9310   21.3160   11.1100 C.3   213  ARG213      0.1563
     96  C        -19.7840   21.0540   10.1240 C.2   213  ARG213      0.2260
     97  O        -18.7740   20.4540   10.4910 O.2   213  ARG213     -0.2867
     98  CB       -22.0350   20.2760   10.9330 C.3   213  ARG213      0.0307
     99  CG       -23.0630   20.2110   12.0630 C.3   213  ARG213      0.0489
    100  CD       -23.8590   18.9070   12.0000 C.3   213  ARG213      0.2205
    101  NE       -24.7120   18.8280   10.8240 N.pl3 213  ARG213     -0.0865
    102  CZ       -25.9180   19.3930   10.7320 C.cat 213  ARG213      0.5346
    103  NH1      -26.4380   20.0900   11.7460 N.pl3 213  ARG213      0.1354
    104  NH2      -26.6050   19.2860    9.6050 N.pl3 213  ARG213      0.1354
    105  N        -16.7130   22.9210   11.3500 N.3   216  MET216     -0.1230
    106  CA       -16.0840   22.2140   12.4570 C.3   216  MET216      0.1702
    107  C        -15.2570   21.0180   11.9700 C.2   216  MET216      0.2592
    108  O        -14.1910   20.7310   12.5330 O.2   216  MET216     -0.2718
    109  CB       -17.1320   21.7790   13.4720 C.3   216  MET216      0.0401
    110  CG       -17.7990   22.9420   14.1820 C.3   216  MET216      0.0596
    111  SD       -19.2200   22.3940   15.1510 S.3   216  MET216     -0.1393
    112  CE       -18.3900   21.3850   16.3810 C.3   216  MET216      0.0692
    113  N        -15.7390   20.3240   10.9360 N.am  217  ALA217     -0.1980
    114  CA       -14.9810   19.2270   10.3360 C.3   217  ALA217      0.1597
    115  C        -13.7020   19.7710    9.7040 C.2   217  ALA217      0.2287
    116  O        -12.6670   19.1170    9.7470 O.2   217  ALA217     -0.2864
    117  CB       -15.8070   18.4520    9.3070 C.3   217  ALA217      0.0319
    118  N        -10.9370   20.1470   12.2320 N.3   220  ALA220     -0.1245
    119  CA       -10.3710   18.8940   12.7350 C.3   220  ALA220      0.1562
    120  C         -9.0640   18.5420   11.9930 C.2   220  ALA220      0.2260
    121  O         -8.2370   17.7790   12.5130 O.2   220  ALA220     -0.2867
    122  CB       -11.3790   17.7460   12.6450 C.3   220  ALA220      0.0290
@<TRIPOS>BOND
     1    41    39    1
     2    42    43    1
     3    39    40    1
     4    39    36    1
     5    37    38    2
     6    37    36    1
     7    49    48    1
     8    46    43    1
     9    46    47    1
    10    43    44    1
    11    36    35    1
    12    48    47    1
    13    50    44   am
    14    50    51    1
    15    44    45    2
    16    54    51    1
    17    54    55    1
    18    35    33   am
    19    51    52    1
    20    30    29    2
    21    55    56   ar
    22    55    57   ar
    23    34    33    2
    24    33    32    1
    25    52    53    2
    26    56    58   ar
    27    27    28    1
    28    57    59   ar
    29    29    28    1
    30    29    31   am
    31    58    60   ar
    32    32    31    1
    33    59    60   ar
    34    61    62    1
    35     1     2    1
    36    67    65    1
    37    66    65    1
    38    65    62    1
    39    62    63    1
    40     2     5    1
    41     2     3    1
    42    73    72    1
    43     5     6    1
    44     7     6    2
    45    72    69    1
    46    68    63   am
    47    68    69    1
    48   117   114    1
    49     6     8   am
    50    85    84    1
    51   104   102    1
    52    63    64    2
    53   115   116    2
    54   115   114    1
    55    69    70    1
    56    14    13    1
    57    96    97    2
    58    96    95    1
    59     9     3   am
    60     9    10    1
    61     3     4    2
    62   114   113    1
    63    84    82   ar
    64    84    83   ar
    65    82    80   ar
    66   102   101    2
    67   102   103    1
    68   101   100    1
    69    98    95    1
    70    98    99    1
    71   113   107   am
    72    94    95    1
    73    15    13    1
    74    13    10    1
    75    83    81   ar
    76    10    11    1
    77   105   106    1
    78    70    71    2
    79    80    79   ar
    80    11    12    2
    81   107   106    1
    82   107   108    2
    83   120   121    2
    84   120   119    1
    85   100    99    1
    86   118   119    1
    87    81    79   ar
    88    79    78    1
    89   106   109    1
    90   122   119    1
    91    23    25   ar
    92    23    21   ar
    93    25    26   ar
    94    20    21    1
    95    20    17    1
    96   109   110    1
    97    78    75    1
    98    21    22   ar
    99    16    17    1
   100    93    91    1
   101   110   111    1
   102    74    75    1
   103    26    24   ar
   104    17    18    1
   105    19    18    2
   106    75    76    1
   107    22    24   ar
   108   111   112    1
   109    91    90    1
   110    76    86   am
   111    76    77    2
   112    86    87    1
   113    90    87    1
   114    90    92    1
   115    87    88    1
   116    89    88    2
