@<TRIPOS>MOLECULE
tmp/4fj2B01.pdb
 146 141 0 0 0
SMALL
GASTEIGER

@<TRIPOS>ATOM
      1  N        -23.3890   -6.7130    4.5580 N.3    97  VAL97      -0.1245
      2  CA       -23.0160   -6.4690    5.9460 C.3    97  VAL97       0.1561
      3  C        -24.1870   -6.8310    6.8400 C.2    97  VAL97       0.2260
      4  O        -25.3210   -6.9330    6.3800 O.2    97  VAL97      -0.2867
      5  CB       -22.5820   -5.0010    6.1580 C.3    97  VAL97       0.0252
      6  CG1      -23.7710   -4.0560    6.1180 C.3    97  VAL97       0.0019
      7  CG2      -21.7980   -4.8900    7.4700 C.3    97  VAL97       0.0019
      8  N        -11.6010   -4.7310    7.5920 N.3   144  ASN144     -0.1225
      9  CA       -10.7880   -4.3940    8.7520 C.3   144  ASN144      0.1785
     10  C        -11.3740   -4.9880   10.0600 C.2   144  ASN144      0.2597
     11  O        -10.6700   -5.0770   11.0590 O.2   144  ASN144     -0.2718
     12  CB       -10.6150   -2.8770    8.8830 C.3   144  ASN144      0.1169
     13  CG       -11.9140   -2.1380    9.1820 C.2   144  ASN144      0.2627
     14  OD1      -13.0100   -2.6410    8.9630 O.2   144  ASN144     -0.2716
     15  ND2      -11.7820   -0.8990    9.6060 N.am  144  ASN144     -0.0877
     16  N        -12.6590   -5.3570   10.0370 N.am  145  THR145     -0.1953
     17  CA       -13.3510   -5.8800   11.2190 C.3   145  THR145      0.1897
     18  C        -13.1160   -7.3670   11.4380 C.2   145  THR145      0.2313
     19  O        -13.5450   -7.9240   12.4450 O.2   145  THR145     -0.2863
     20  CB       -14.8780   -5.6550   11.1290 C.3   145  THR145      0.1794
     21  OG1      -15.3870   -6.2700    9.9520 O.3   145  THR145     -0.2208
     22  CG2      -15.1950   -4.1590   11.0630 C.3   145  THR145      0.0378
     23  N        -10.2530   -4.4350   13.8910 N.3   149  PHE149     -0.1241
     24  CA       -11.2330   -3.5180   14.4330 C.3   149  PHE149      0.1605
     25  C        -12.3740   -4.3550   15.0180 C.2   149  PHE149      0.2264
     26  O        -12.9120   -5.2530   14.3660 O.2   149  PHE149     -0.2867
     27  CB       -11.6820   -2.5630   13.2890 C.3   149  PHE149      0.0534
     28  CG       -12.5660   -1.4150   13.7210 C.ar  149  PHE149     -0.0203
     29  CD1      -12.2960   -0.6900   14.8780 C.ar  149  PHE149     -0.0042
     30  CD2      -13.6690   -1.0330   12.9300 C.ar  149  PHE149     -0.0042
     31  CE1      -13.1210    0.3610   15.2540 C.ar  149  PHE149     -0.0003
     32  CE2      -14.4990    0.0130   13.3070 C.ar  149  PHE149     -0.0003
     33  CZ       -14.2230    0.7140   14.4740 C.ar  149  PHE149     -0.0000
     34  N        -11.4290   -0.6260    5.4610 N.3   188  GLY188     -0.1210
     35  CA       -12.1750   -0.0530    6.5580 C.3   188  GLY188      0.1956
     36  C        -13.3290    0.7400    5.9840 C.2   188  GLY188      0.2612
     37  O        -13.7470    0.4890    4.8560 O.2   188  GLY188     -0.2717
     38  N        -13.8350    1.6840    6.7760 N.am  189  GLY189     -0.1942
     39  CA       -14.9340    2.5210    6.3670 C.3   189  GLY189      0.2014
     40  C        -14.6220    3.1550    5.0350 C.2   189  GLY189      0.2639
     41  O        -13.7610    4.0020    4.9420 O.2   189  GLY189     -0.2714
     42  N        -15.3390    2.7180    4.0060 N.am  190  THR190     -0.1950
     43  CA       -15.2140    3.2500    2.6670 C.3   190  THR190      0.1897
     44  C        -16.5910    3.7470    2.2480 C.2   190  THR190      0.2313
     45  O        -17.5770    3.0130    2.3350 O.2   190  THR190     -0.2863
     46  CB       -14.6910    2.1620    1.6970 C.3   190  THR190      0.1794
     47  OG1      -13.5030    1.5850    2.2600 O.3   190  THR190     -0.2208
     48  CG2      -14.3850    2.7400    0.2960 C.3   190  THR190      0.0378
     49  N        -23.3010    0.9090    1.2990 N.3   194  MET194     -0.1230
     50  CA       -23.1860    0.1030    2.5230 C.3   194  MET194      0.1702
     51  C        -22.7230    0.9470    3.6990 C.2   194  MET194      0.2592
     52  O        -23.1090    0.6880    4.8470 O.2   194  MET194     -0.2718
     53  CB       -22.1960   -1.0660    2.3380 C.3   194  MET194      0.0401
     54  CG       -22.0240   -2.0030    3.5420 C.3   194  MET194      0.0596
     55  SD       -20.6890   -3.2160    3.2970 S.3   194  MET194     -0.1393
     56  CE       -21.3880   -4.2470    2.0100 C.3   194  MET194      0.0692
     57  N        -21.8710    1.9250    3.4100 N.am  195  PHE195     -0.1976
     58  CA       -21.3290    2.7920    4.4560 C.3   195  PHE195      0.1639
     59  C        -22.4630    3.4990    5.1960 C.2   195  PHE195      0.2290
     60  O        -22.5660    3.4260    6.4100 O.2   195  PHE195     -0.2864
     61  CB       -20.3690    3.8490    3.8850 C.3   195  PHE195      0.0560
     62  CG       -19.7440    4.6980    4.9320 C.ar  195  PHE195     -0.0200
     63  CD1      -18.5810    4.2890    5.5630 C.ar  195  PHE195     -0.0042
     64  CD2      -20.3510    5.8810    5.3320 C.ar  195  PHE195     -0.0042
     65  CE1      -18.0100    5.0600    6.5510 C.ar  195  PHE195     -0.0003
     66  CE2      -19.7910    6.6540    6.3270 C.ar  195  PHE195     -0.0003
     67  CZ       -18.6170    6.2400    6.9360 C.ar  195  PHE195     -0.0000
     68  N        -24.9340    1.5750    7.4890 N.3   198  VAL198     -0.1231
     69  CA       -24.4620    1.0030    8.7400 C.3   198  VAL198      0.1692
     70  C        -23.5400    1.8720    9.5830 C.2   198  VAL198      0.2592
     71  O        -23.0750    1.4260   10.6280 O.2   198  VAL198     -0.2718
     72  CB       -23.7640   -0.3540    8.4840 C.3   198  VAL198      0.0266
     73  CG1      -24.7220   -1.3120    7.7910 C.3   198  VAL198      0.0020
     74  CG2      -22.4880   -0.1840    7.6790 C.3   198  VAL198      0.0020
     75  N        -23.2480    3.0940    9.1440 N.am  199  SER199     -0.1952
     76  CA       -22.3230    3.9560    9.8820 C.3   199  SER199      0.1924
     77  C        -22.8050    4.2350   11.3060 C.2   199  SER199      0.2314
     78  O        -22.0010    4.4250   12.2130 O.2   199  SER199     -0.2863
     79  CB       -22.0820    5.2590    9.1160 C.3   199  SER199      0.2116
     80  OG       -23.2520    6.0330    9.1010 O.3   199  SER199     -0.2180
     81  N        -21.3660    1.7350   13.8470 N.3   202  TYR202     -0.1227
     82  CA       -19.9310    1.8470   14.1950 C.3   202  TYR202      0.1736
     83  C        -19.5920    2.9470   15.1910 C.2   202  TYR202      0.2595
     84  O        -18.4360    3.0490   15.6090 O.2   202  TYR202     -0.2718
     85  CB       -19.0870    2.0610   12.9310 C.3   202  TYR202      0.0548
     86  CG       -19.0660    0.8720   12.0350 C.ar  202  TYR202     -0.0200
     87  CD1      -20.0070    0.7370   11.0280 C.ar  202  TYR202     -0.0009
     88  CD2      -18.1200   -0.1200   12.1900 C.ar  202  TYR202     -0.0009
     89  CE1      -20.0070   -0.3520   10.1820 C.ar  202  TYR202      0.0417
     90  CE2      -18.1120   -1.2270   11.3520 C.ar  202  TYR202      0.0417
     91  CZ       -19.0640   -1.3380   10.3430 C.ar  202  TYR202      0.1957
     92  OH       -19.0760   -2.4280    9.4900 O.3   202  TYR202     -0.2866
     93  N        -20.5710    3.7950   15.5080 N.am  203  ILE203     -0.1966
     94  CA       -20.3740    4.9550   16.3630 C.3   203  ILE203      0.1712
     95  C        -21.3120    4.9700   17.5640 C.2   203  ILE203      0.2458
     96  O        -22.5250    4.9780   17.3720 O.2   203  ILE203     -0.2730
     97  CB       -20.7010    6.2490   15.5760 C.3   203  ILE203      0.0289
     98  CG1      -19.6490    6.5310   14.5190 C.3   203  ILE203      0.0022
     99  CG2      -20.8350    7.4360   16.5180 C.3   203  ILE203      0.0023
    100  CD1      -20.0920    7.6190   13.5550 C.3   203  ILE203      0.0001
    101  N        -20.7650    5.0430   18.7980 N.am  204  PRO204     -0.2727
    102  CA       -21.5870    5.2720   19.9910 C.3   204  PRO204      0.1402
    103  C        -22.6510    6.3590   19.7830 C.2   204  PRO204      0.2269
    104  O        -22.3300    7.4640   19.3250 O.2   204  PRO204     -0.2865
    105  CB       -20.5650    5.7360   21.0400 C.3   204  PRO204      0.0296
    106  CG       -19.3010    5.0530   20.6460 C.3   204  PRO204      0.0237
    107  CD       -19.3430    4.8610   19.1480 C.3   204  PRO204      0.0939
    108  N        -21.7480   11.5080   10.7610 N.3   214  ARG214     -0.1245
    109  CA       -21.2030   10.1720   10.9460 C.3   214  ARG214      0.1563
    110  C        -20.0190    9.9410   10.0010 C.2   214  ARG214      0.2260
    111  O        -18.9820    9.4190   10.4100 O.2   214  ARG214     -0.2867
    112  CB       -22.2830    9.1160   10.7240 C.3   214  ARG214      0.0307
    113  CG       -23.2830    8.9670   11.8610 C.3   214  ARG214      0.0489
    114  CD       -24.0310    7.6430   11.7870 C.3   214  ARG214      0.2205
    115  NE       -24.8700    7.5120   10.5910 N.pl3 214  ARG214     -0.0865
    116  CZ       -26.0720    8.0760   10.4390 C.cat 214  ARG214      0.5346
    117  NH1      -26.6040    8.8260   11.3930 N.pl3 214  ARG214      0.1354
    118  NH2      -26.7500    7.8830    9.3170 N.pl3 214  ARG214      0.1354
    119  N        -17.0470   11.8820   11.2420 N.3   217  MET217     -0.1230
    120  CA       -16.4650   11.1380   12.3680 C.3   217  MET217      0.1702
    121  C        -15.6270    9.9520   11.9110 C.2   217  MET217      0.2592
    122  O        -14.5430    9.6980   12.4620 O.2   217  MET217     -0.2718
    123  CB       -17.5550   10.6930   13.3400 C.3   217  MET217      0.0401
    124  CG       -18.1720   11.8530   14.1030 C.3   217  MET217      0.0596
    125  SD       -19.4310   11.2930   15.2490 S.3   217  MET217     -0.1393
    126  CE       -18.7130    9.7280   15.7650 C.3   217  MET217      0.0692
    127  N        -16.1110    9.2360   10.9030 N.am  218  ALA218     -0.1980
    128  CA       -15.3330    8.1330   10.3200 C.3   218  ALA218      0.1597
    129  C        -14.0700    8.6420    9.6140 C.2   218  ALA218      0.2287
    130  O        -13.0820    7.9330    9.5200 O.2   218  ALA218     -0.2864
    131  CB       -16.1810    7.3130    9.3660 C.3   218  ALA218      0.0319
    132  N        -12.2080   11.0440   10.7030 N.3   220  HIS220     -0.1226
    133  CA       -11.2110   11.3080   11.7260 C.3   220  HIS220      0.1752
    134  C        -10.6450   10.0610   12.3480 C.2   220  HIS220      0.2595
    135  O         -9.7400   10.1450   13.1570 O.2   220  HIS220     -0.2718
    136  CB       -11.7790   12.2390   12.7870 C.3   220  HIS220      0.0759
    137  CG       -11.9380   13.6510   12.3140 C.ar  220  HIS220      0.0818
    138  ND1      -10.8780   14.4170   11.9990 N.ar  220  HIS220     -0.2268
    139  CD2      -13.0720   14.4390   12.1080 C.ar  220  HIS220      0.1154
    140  CE1      -11.2990   15.6310   11.6130 C.ar  220  HIS220      0.1986
    141  NE2      -12.6510   15.6410   11.6750 N.ar  220  HIS220     -0.2212
    142  N        -11.1540    8.8890   11.9790 N.am  221  ALA221     -0.1980
    143  CA       -10.5730    7.6180   12.4330 C.3   221  ALA221      0.1597
    144  C         -9.2050    7.3790   11.8030 C.2   221  ALA221      0.2287
    145  O         -8.3230    6.7920   12.4180 O.2   221  ALA221     -0.2864
    146  CB       -11.4980    6.4590   12.1060 C.3   221  ALA221      0.0319
@<TRIPOS>BOND
     1    48    46    1
     2    49    50    1
     3    46    47    1
     4    46    43    1
     5    56    55    1
     6    44    45    2
     7    44    43    1
     8    53    50    1
     9    53    54    1
    10    50    51    1
    11    43    42    1
    12    55    54    1
    13    57    51   am
    14    57    58    1
    15    51    52    2
    16    61    58    1
    17    61    62    1
    18    42    40   am
    19    58    59    1
    20     1     2    1
    21    37    36    2
    22    62    64   ar
    23    62    63   ar
    24    41    40    2
    25    40    39    1
    26    59    60    2
    27    64    66   ar
    28    34    35    1
    29    63    65   ar
    30     2     5    1
    31     2     3    1
    32    36    35    1
    33    36    38   am
    34     6     5    1
    35     5     7    1
    36    66    67   ar
    37    39    38    1
    38     4     3    2
    39    65    67   ar
    40    68    69    1
    41     8     9    1
    42    74    72    1
    43    73    72    1
    44    72    69    1
    45    69    70    1
    46     9    12    1
    47     9    10    1
    48    12    13    1
    49    14    13    2
    50    80    79    1
    51    79    76    1
    52    75    70   am
    53    75    76    1
    54    13    15   am
    55   118   116    1
    56   131   128    1
    57    92    91    1
    58   130   129    2
    59    70    71    2
    60   129   128    1
    61    76    77    1
    62    21    20    1
    63   110   111    2
    64   110   109    1
    65    16    10   am
    66    16    17    1
    67    10    11    2
    68    89    91   ar
    69    89    87   ar
    70   128   127    1
    71    91    90   ar
    72   116   115    2
    73   116   117    1
    74   115   114    1
    75   132   133    1
    76   112   109    1
    77   112   113    1
    78   108   109    1
    79   127   121   am
    80    87    86   ar
    81    22    20    1
    82    20    17    1
    83    17    18    1
    84   119   120    1
    85    77    78    2
    86    90    88   ar
    87    18    19    2
    88   140   141   ar
    89   140   138   ar
    90   141   139   ar
    91   133   134    1
    92   133   136    1
    93   114   113    1
    94   144   145    2
    95   144   143    1
    96   121   120    1
    97   121   122    2
    98   142   134   am
    99   142   143    1
   100   138   137   ar
   101    86    88   ar
   102    86    85    1
   103   146   143    1
   104   139   137   ar
   105   137   136    1
   106   134   135    2
   107   120   123    1
   108    30    32   ar
   109    30    28   ar
   110    85    82    1
   111    27    28    1
   112    27    24    1
   113    32    33   ar
   114   123   124    1
   115   100    98    1
   116    28    29   ar
   117    81    82    1
   118    23    24    1
   119   124   125    1
   120    82    83    1
   121    26    25    2
   122    24    25    1
   123    33    31   ar
   124    98    97    1
   125    29    31   ar
   126    83    93   am
   127    83    84    2
   128   125   126    1
   129    93    94    1
   130    97    94    1
   131    97    99    1
   132    94    95    1
   133    96    95    2
   134    95   101   am
   135   101   107    1
   136   101   102    1
   137   107   106    1
   138   104   103    2
   139   103   102    1
   140   102   105    1
   141   106   105    1
