@<TRIPOS>MOLECULE
tmp/4fjpA03.pdb
 96 95 0 0 0
SMALL
GASTEIGER

@<TRIPOS>ATOM
      1  N         18.2480   16.3390   10.6420 N.3    89  THR89      -0.1203
      2  CA        17.8480   14.9400   10.3440 C.3    89  THR89       0.1994
      3  C         16.4110   14.9380    9.7700 C.2    89  THR89       0.2618
      4  O         15.6910   15.8900   10.0110 O.2    89  THR89      -0.2717
      5  CB        17.9650   14.0490   11.5860 C.3    89  THR89       0.1784
      6  OG1       17.1310   14.5770   12.6100 O.3    89  THR89      -0.2211
      7  CG2       19.4360   13.9910   12.0910 C.3    89  THR89       0.0376
      8  N         16.0280   13.9100    8.9960 N.am   90  GLU90      -0.1965
      9  CA        14.7370   13.8530    8.2750 C.3    90  GLU90       0.1733
     10  C         13.7510   12.7880    8.8650 C.2    90  GLU90       0.2616
     11  O         12.5520   12.7640    8.5780 O.2    90  GLU90      -0.2715
     12  CB        14.9990   13.4680    6.8140 C.3    90  GLU90       0.0429
     13  CG        15.6720   14.5440    5.9540 C.3    90  GLU90       0.1163
     14  CD        15.5160   14.2480    4.4670 C.2    90  GLU90       0.3649
     15  OE1       16.1660   13.3110    3.9560 O.co2  90  GLU90      -0.2457
     16  OE2       14.7080   14.9370    3.8110 O.co2  90  GLU90      -0.2457
     17  N         14.2490   11.9440    9.7130 N.am   91  GLY91      -0.1955
     18  CA        13.3950   10.8540   10.3020 C.3    91  GLY91       0.1869
     19  C         13.2590    9.7380    9.2700 C.2    91  GLY91       0.2309
     20  O         13.5560    9.9110    8.0860 O.2    91  GLY91      -0.2863
     21  N          6.3680    8.6420   10.9200 N.3   250  VAL250     -0.1231
     22  CA         7.7310    9.0310   10.7010 C.3   250  VAL250      0.1692
     23  C          8.4930    9.0340   12.0680 C.2   250  VAL250      0.2592
     24  O          8.0320    9.6270   13.0510 O.2   250  VAL250     -0.2718
     25  CB         7.8630   10.5070   10.2130 C.3   250  VAL250      0.0266
     26  CG1        9.2980   10.9080   10.0530 C.3   250  VAL250      0.0020
     27  CG2        7.1950   10.6300    8.8440 C.3   250  VAL250      0.0020
     28  N          9.5440    8.2430   12.1650 N.am  251  ALA251     -0.1966
     29  CA        10.3380    8.0290   13.4180 C.3   251  ALA251      0.1713
     30  C         11.4990    8.9590   13.5060 C.2   251  ALA251      0.2458
     31  O         12.1590    9.2560   12.5390 O.2   251  ALA251     -0.2730
     32  CB        10.9230    6.6270   13.3020 C.3   251  ALA251      0.0333
     33  N         11.8360    9.3820   14.7410 N.am  252  PRO252     -0.2716
     34  CA        13.0650   10.1540   14.9260 C.3   252  PRO252      0.1536
     35  C         14.3020    9.3050   14.7440 C.2   252  PRO252      0.2598
     36  O         14.2630    8.1190   15.1460 O.2   252  PRO252     -0.2715
     37  CB        12.9150   10.6790   16.4120 C.3   252  PRO252      0.0310
     38  CG        12.0630    9.6030   17.0600 C.3   252  PRO252      0.0237
     39  CD        11.0980    9.0860   15.9610 C.3   252  PRO252      0.0939
     40  N         15.3300    9.7720   14.0560 N.am  253  ASN253     -0.1973
     41  CA        16.5080    8.9300   13.7810 C.3   253  ASN253      0.1688
     42  C         17.1490    8.4190   15.0770 C.2   253  ASN253      0.2292
     43  O         17.0380    9.0190   16.1670 O.2   253  ASN253     -0.2864
     44  CB        17.5820    9.6990   13.0520 C.3   253  ASN253      0.1181
     45  CG        17.1390    9.9870   11.5990 C.2   253  ASN253      0.2629
     46  OD1       16.8280    9.0680   10.8760 O.2   253  ASN253     -0.2716
     47  ND2       16.7510   11.1920   11.3800 N.am  253  ASN253     -0.0877
     48  N         12.2430   16.8070   23.4270 N.3   318  GLU318     -0.1231
     49  CA        12.3210   17.6280   22.2580 C.3   318  GLU318      0.1699
     50  C         12.8060   16.8400   21.0280 C.2   318  GLU318      0.2592
     51  O         12.3120   17.0660   19.8960 O.2   318  GLU318     -0.2718
     52  CB        13.2200   18.8650   22.4430 C.3   318  GLU318      0.0402
     53  CG        12.5250   19.8370   23.3660 C.3   318  GLU318      0.1161
     54  CD        13.4900   20.9780   23.7410 C.2   318  GLU318      0.3649
     55  OE1       14.6330   20.7840   24.0140 O.co2 318  GLU318     -0.2457
     56  OE2       13.0640   22.1550   23.5680 O.co2 318  GLU318     -0.2457
     57  N         13.7880   15.9620   21.2680 N.am  319  TYR319     -0.1962
     58  CA        14.4180   15.2350   20.1710 C.3   319  TYR319      0.1771
     59  C         13.3740   14.1920   19.6400 C.2   319  TYR319      0.2619
     60  O         13.2130   14.0940   18.3830 O.2   319  TYR319     -0.2715
     61  CB        15.6840   14.4470   20.6950 C.3   319  TYR319      0.0574
     62  CG        16.2750   13.6840   19.5560 C.ar  319  TYR319     -0.0198
     63  CD1       16.9940   14.3070   18.5200 C.ar  319  TYR319     -0.0009
     64  CD2       15.9920   12.3320   19.4510 C.ar  319  TYR319     -0.0009
     65  CE1       17.4660   13.6090   17.4250 C.ar  319  TYR319      0.0417
     66  CE2       16.4120   11.5920   18.3340 C.ar  319  TYR319      0.0417
     67  CZ        17.1390   12.2220   17.3490 C.ar  319  TYR319      0.1957
     68  OH        17.6260   11.5550   16.2490 O.3   319  TYR319     -0.2866
     69  N         12.6720   13.4940   20.5390 N.am  320  LEU320     -0.1963
     70  CA        11.7020   12.4580   20.0900 C.3   320  LEU320      0.1728
     71  C         10.4550   13.1330   19.4680 C.2   320  LEU320      0.2617
     72  O          9.8340   12.5320   18.5620 O.2   320  LEU320     -0.2715
     73  CB        11.2640   11.5620   21.2260 C.3   320  LEU320      0.0311
     74  CG        12.4820   10.6780   21.6650 C.3   320  LEU320      0.0022
     75  CD1       11.9100    9.8440   22.8440 C.3   320  LEU320      0.0001
     76  CD2       12.9670    9.7140   20.5320 C.3   320  LEU320      0.0001
     77  N         10.1420   14.3420   19.9680 N.am  321  GLY321     -0.1940
     78  CA         8.9070   15.0350   19.6490 C.3   321  GLY321      0.2014
     79  C          7.7370   14.7150   20.5330 C.2   321  GLY321      0.2640
     80  O          7.4350   13.5600   20.9430 O.2   321  GLY321     -0.2714
     81  N          6.9450   15.7460   20.8520 N.am  322  THR322     -0.1936
     82  CA         5.8510   15.5570   21.8160 C.3   322  THR322      0.2028
     83  C          4.8220   14.4540   21.4710 C.2   322  THR322      0.2642
     84  O          4.4040   13.7310   22.3640 O.2   322  THR322     -0.2714
     85  CB         5.0770   16.8890   22.0050 C.3   322  THR322      0.1808
     86  OG1        6.0320   17.8600   22.4200 O.3   322  THR322     -0.2208
     87  CG2        4.0440   16.7250   23.1310 C.3   322  THR322      0.0379
     88  N          4.4420   14.3950   20.2210 N.am  323  GLU323     -0.1976
     89  CA         3.4390   13.4410   19.7070 C.3   323  GLU323      0.1602
     90  C          3.9610   12.0150   19.9850 C.2   323  GLU323      0.2287
     91  O          3.2620   11.2020   20.5700 O.2   323  GLU323     -0.2864
     92  CB         3.2800   13.6110   18.2200 C.3   323  GLU323      0.0415
     93  CG         2.4180   14.8110   17.8120 C.3   323  GLU323      0.1163
     94  CD         2.1910   14.9060   16.2960 C.2   323  GLU323      0.3649
     95  OE1        2.5650   13.9710   15.5320 O.co2 323  GLU323     -0.2457
     96  OE2        1.6340   15.9370   15.8560 O.co2 323  GLU323     -0.2457
@<TRIPOS>BOND
     1    16    14   ar
     2    15    14   ar
     3    14    13    1
     4    13    12    1
     5    12     9    1
     6    20    19    2
     7     9    10    1
     8     9     8    1
     9    11    10    2
    10    27    25    1
    11    10    17   am
    12     8     3   am
    13    19    18    1
    14    17    18    1
    15     3     4    2
    16     3     2    1
    17    26    25    1
    18    25    22    1
    19     2     1    1
    20     2     5    1
    21    22    21    1
    22    22    23    1
    23    46    45    2
    24    47    45   am
    25     5     7    1
    26     5     6    1
    27    45    44    1
    28    23    28   am
    29    23    24    2
    30    28    29    1
    31    31    30    2
    32    44    41    1
    33    32    29    1
    34    29    30    1
    35    30    33   am
    36    41    40    1
    37    41    42    1
    38    40    35   am
    39    33    34    1
    40    33    39    1
    41    35    34    1
    42    35    36    2
    43    34    37    1
    44    42    43    2
    45    95    94   ar
    46    96    94   ar
    47    39    38    1
    48    68    67    1
    49    94    93    1
    50    37    38    1
    51    67    65   ar
    52    67    66   ar
    53    65    63   ar
    54    93    92    1
    55    92    89    1
    56    66    64   ar
    57    60    59    2
    58    63    62   ar
    59    72    71    2
    60    64    62   ar
    61    71    77   am
    62    71    70    1
    63    62    61    1
    64    59    58    1
    65    59    69   am
    66    78    77    1
    67    78    79    1
    68    89    90    1
    69    89    88    1
    70    51    50    2
    71    90    91    2
    72    70    69    1
    73    70    73    1
    74    58    61    1
    75    58    57    1
    76    88    83   am
    77    76    74    1
    78    79    81   am
    79    79    80    2
    80    81    82    1
    81    50    57   am
    82    50    49    1
    83    73    74    1
    84    83    82    1
    85    83    84    2
    86    74    75    1
    87    82    85    1
    88    85    86    1
    89    85    87    1
    90    49    52    1
    91    49    48    1
    92    52    53    1
    93    53    54    1
    94    56    54   ar
    95    54    55   ar
