@<TRIPOS>MOLECULE
tmp/4fjrA00.pdb
 95 90 0 0 0
SMALL
GASTEIGER

@<TRIPOS>ATOM
      1  N          2.2910   12.4780    7.3720 N.3     2  VAL2       -0.1245
      2  CA         2.2440   13.8970    7.0580 C.3     2  VAL2        0.1561
      3  C          0.8180   14.1640    6.6120 C.2     2  VAL2        0.2260
      4  O          0.4020   13.7120    5.5410 O.2     2  VAL2       -0.2867
      5  CB         3.2090   14.2730    5.9080 C.3     2  VAL2        0.0252
      6  CG1        3.1010   15.7630    5.5930 C.3     2  VAL2        0.0019
      7  CG2        4.6370   13.9340    6.3010 C.3     2  VAL2        0.0019
      8  N         -2.5970   16.3300    5.4680 N.3     4  GLY4       -0.1210
      9  CA        -2.8520   17.3850    4.5250 C.3     4  GLY4        0.1956
     10  C         -3.6440   18.4290    5.2790 C.2     4  GLY4        0.2611
     11  O         -4.2420   18.1120    6.3010 O.2     4  GLY4       -0.2717
     12  N         -3.6570   19.6660    4.8000 N.am    5  ARG5       -0.1979
     13  CA        -4.3820   20.7230    5.4990 C.3     5  ARG5        0.1597
     14  C         -5.8140   20.3520    5.8740 C.2     5  ARG5        0.2287
     15  O         -6.1470   20.2660    7.0570 O.2     5  ARG5       -0.2864
     16  CB        -4.3900   22.0070    4.6690 C.3     5  ARG5        0.0334
     17  CG        -5.2180   23.1170    5.2900 C.3     5  ARG5        0.0492
     18  CD        -4.9720   24.4390    4.5870 C.3     5  ARG5        0.2205
     19  NE        -5.4090   24.4100    3.1950 N.pl3   5  ARG5       -0.0865
     20  CZ        -6.6240   24.7450    2.7870 C.cat   5  ARG5        0.5346
     21  NH1       -7.5320   25.1490    3.6710 N.pl3   5  ARG5        0.1354
     22  NH2       -6.9370   24.6620    1.4990 N.pl3   5  ARG5        0.1354
     23  N         -5.2940   24.1450   13.3420 N.3    29  VAL29      -0.1245
     24  CA        -4.6300   23.7550   12.1130 C.3    29  VAL29       0.1561
     25  C         -3.4080   24.6540   11.8840 C.2    29  VAL29       0.2260
     26  O         -2.3450   24.1760   11.4950 O.2    29  VAL29      -0.2867
     27  CB        -5.6190   23.8390   10.9290 C.3    29  VAL29       0.0252
     28  CG1       -5.0190   23.2270    9.7020 C.3    29  VAL29       0.0019
     29  CG2       -6.8890   23.0750   11.2720 C.3    29  VAL29       0.0019
     30  N          0.4600   23.5530   11.6790 N.3    33  LYS33      -0.1245
     31  CA         1.2750   23.9090   10.5270 C.3    33  LYS33       0.1561
     32  C          2.6700   24.3780   10.9160 C.2    33  LYS33       0.2260
     33  O          3.6720   23.8830   10.3960 O.2    33  LYS33      -0.2867
     34  CB         0.5830   25.0050    9.7110 C.3    33  LYS33       0.0271
     35  CG         1.4800   25.7160    8.6860 C.3    33  LYS33       0.0035
     36  CD         1.9470   24.7660    7.6030 C.3    33  LYS33       0.0206
     37  CE         2.7840   25.4620    6.5390 C.3    33  LYS33       0.1093
     38  NZ         3.2400   24.4830    5.5070 N.3    33  LYS33      -0.1314
     39  N          4.5300   21.2070   10.6670 N.3    37  ASN37      -0.1225
     40  CA         4.2980   21.1940    9.2280 C.3    37  ASN37       0.1785
     41  C          3.4560   19.9560    8.9210 C.2    37  ASN37       0.2597
     42  O          3.6010   19.3280    7.8720 O.2    37  ASN37      -0.2718
     43  CB         5.5990   21.1560    8.4220 C.3    37  ASN37       0.1169
     44  CG         5.3890   21.5590    6.9690 C.2    37  ASN37       0.2627
     45  OD1        4.3870   22.2000    6.6300 O.2    37  ASN37      -0.2716
     46  ND2        6.3380   21.2060    6.1080 N.am   37  ASN37      -0.0877
     47  N          2.5840   19.6180    9.8710 N.am   38  PHE38      -0.1976
     48  CA         1.6650   18.4880    9.7510 C.3    38  PHE38       0.1639
     49  C          2.2360   17.1000    9.8050 C.2    38  PHE38       0.2290
     50  O          1.5630   16.1490    9.4160 O.2    38  PHE38      -0.2864
     51  CB         0.8770   18.5920    8.4660 C.3    38  PHE38       0.0560
     52  CG         0.0700   19.8060    8.3890 C.ar   38  PHE38      -0.0200
     53  CD1       -0.3130   20.4580    9.5520 C.ar   38  PHE38      -0.0042
     54  CD2       -0.3590   20.2780    7.1710 C.ar   38  PHE38      -0.0042
     55  CE1       -1.1160   21.5500    9.5090 C.ar   38  PHE38      -0.0003
     56  CE2       -1.1640   21.3690    7.1180 C.ar   38  PHE38      -0.0003
     57  CZ        -1.5430   22.0010    8.3060 C.ar   38  PHE38      -0.0000
     58  N         -5.5140   35.8060   10.0620 N.3   119  ASP119     -0.1239
     59  CA        -6.7220   35.2810    9.4460 C.3   119  ASP119      0.1674
     60  C         -6.6320   33.7580    9.4450 C.2   119  ASP119      0.2266
     61  O         -6.4070   33.1460    8.4050 O.2   119  ASP119     -0.2867
     62  CB        -6.8550   35.8130    8.0160 C.3   119  ASP119      0.1410
     63  CG        -8.1340   35.3520    7.3400 C.2   119  ASP119      0.3668
     64  OD1       -9.0880   34.9750    8.0540 O.co2 119  ASP119     -0.2456
     65  OD2       -8.1930   35.3850    6.0910 O.co2 119  ASP119     -0.2456
     66  N         -8.4930   31.1370    7.2770 N.3   122  ALA122     -0.1231
     67  CA        -7.8740   30.8080    6.0160 C.3   122  ALA122      0.1694
     68  C         -7.3530   29.3670    6.0210 C.2   122  ALA122      0.2592
     69  O         -7.3290   28.7030    4.9920 O.2   122  ALA122     -0.2718
     70  CB        -6.7610   31.7900    5.7570 C.3   122  ALA122      0.0304
     71  N         -6.9700   28.8540    7.1840 N.am  123  TRP123     -0.1976
     72  CA        -6.4520   27.4900    7.2540 C.3   123  TRP123      0.1640
     73  C         -7.4480   26.3420    6.9910 C.2   123  TRP123      0.2290
     74  O         -7.0380   25.1970    6.7860 O.2   123  TRP123     -0.2864
     75  CB        -5.7250   27.2900    8.5900 C.3   123  TRP123      0.0576
     76  CG        -4.5320   28.1980    8.7220 C.ar  123  TRP123      0.0006
     77  CD1       -4.4490   29.3400    9.4600 C.ar  123  TRP123      0.0946
     78  CD2       -3.2470   28.0150    8.1240 C.ar  123  TRP123      0.0152
     79  NE1       -3.1900   29.8730    9.3670 N.ar  123  TRP123     -0.2442
     80  CE2       -2.4310   29.0790    8.5510 C.ar  123  TRP123      0.0810
     81  CE3       -2.7020   27.0600    7.2730 C.ar  123  TRP123      0.0012
     82  CZ2       -1.1050   29.2020    8.1560 C.ar  123  TRP123      0.0191
     83  CZ3       -1.3760   27.1870    6.8870 C.ar  123  TRP123      0.0001
     84  CH2       -0.5940   28.2450    7.3260 C.ar  123  TRP123      0.0015
     85  N        -10.1880   27.0310    4.8590 N.3   125  ARG125     -0.1245
     86  CA       -10.9200   27.5230    3.7030 C.3   125  ARG125      0.1563
     87  C        -10.9640   26.4540    2.6160 C.2   125  ARG125      0.2260
     88  O         -9.9690   25.7770    2.3630 O.2   125  ARG125     -0.2867
     89  CB       -10.2400   28.7900    3.1900 C.3   125  ARG125      0.0307
     90  CG       -10.9900   29.5380    2.1120 C.3   125  ARG125      0.0489
     91  CD       -10.5300   30.9820    2.1210 C.3   125  ARG125      0.2205
     92  NE        -9.9860   31.4300    0.8420 N.pl3 125  ARG125     -0.0865
     93  CZ        -9.1750   32.4780    0.7140 C.cat 125  ARG125      0.5346
     94  NH1       -8.8160   33.1720    1.7880 N.pl3 125  ARG125      0.1354
     95  NH2       -8.7370   32.8440   -0.4860 N.pl3 125  ARG125      0.1354
@<TRIPOS>BOND
     1    95    93    1
     2    93    92    2
     3    93    94    1
     4    92    91    1
     5    22    20    1
     6    90    91    1
     7    90    89    1
     8    88    87    2
     9    87    86    1
    10    20    19    2
    11    20    21    1
    12    89    86    1
    13    19    18    1
    14    86    85    1
    15     9    10    1
    16     9     8    1
    17    18    17    1
    18    16    17    1
    19    16    13    1
    20    12    10   am
    21    12    13    1
    22    69    68    2
    23    10    11    2
    24    13    14    1
    25    38    37    1
    26     4     3    2
    27     6     5    1
    28    70    67    1
    29    14    15    2
    30     5     7    1
    31     5     2    1
    32    67    68    1
    33    67    66    1
    34    68    71   am
    35    65    63   ar
    36    46    44   am
    37    37    36    1
    38     3     2    1
    39    45    44    2
    40    74    73    2
    41    83    81   ar
    42    83    84   ar
    43    44    43    1
    44    73    72    1
    45     2     1    1
    46    56    54   ar
    47    56    57   ar
    48    54    52   ar
    49    71    72    1
    50    72    75    1
    51    81    78   ar
    52    84    82   ar
    53    63    62    1
    54    63    64   ar
    55    36    35    1
    56    42    41    2
    57    62    59    1
    58    78    80   ar
    59    78    76   ar
    60    82    80   ar
    61    57    55   ar
    62    52    51    1
    63    52    53   ar
    64    61    60    2
    65    43    40    1
    66    51    48    1
    67    80    79   ar
    68    75    76    1
    69    35    34    1
    70    76    77   ar
    71    41    40    1
    72    41    47   am
    73    40    39    1
    74    79    77   ar
    75    50    49    2
    76    60    59    1
    77    59    58    1
    78    55    53   ar
    79    28    27    1
    80    34    31    1
    81    48    49    1
    82    48    47    1
    83    33    32    2
    84    31    32    1
    85    31    30    1
    86    27    29    1
    87    27    24    1
    88    26    25    2
    89    25    24    1
    90    24    23    1
