@<TRIPOS>MOLECULE
tmp/4fjyA00.pdb
 191 182 0 0 0
SMALL
GASTEIGER

@<TRIPOS>ATOM
      1  N         14.7630   13.6920   11.9150 N.3   565  LYS565     -0.1231
      2  CA        15.3460   14.9710   11.5110 C.3   565  LYS565      0.1693
      3  C         16.8770   14.9350   11.4190 C.2   565  LYS565      0.2592
      4  O         17.4840   13.8720   11.5070 O.2   565  LYS565     -0.2718
      5  CB        14.8760   16.0970   12.4510 C.3   565  LYS565      0.0285
      6  CG        14.9210   15.7470   13.9320 C.3   565  LYS565      0.0035
      7  CD        14.7680   16.9700   14.8260 C.3   565  LYS565      0.0206
      8  CE        15.0880   16.6200   16.2700 C.3   565  LYS565      0.1093
      9  NZ        14.9020   17.7630   17.2030 N.3   565  LYS565     -0.1314
     10  N         17.4800   16.1040   11.2070 N.am  566  VAL566     -0.1966
     11  CA        18.9350   16.2840   11.2100 C.3   566  VAL566      0.1727
     12  C         19.2420   17.5360   12.0360 C.2   566  VAL566      0.2616
     13  O         18.6590   18.5890   11.7760 O.2   566  VAL566     -0.2715
     14  CB        19.4860   16.4950    9.7800 C.3   566  VAL566      0.0290
     15  CG1       21.0030   16.3870    9.7720 C.3   566  VAL566      0.0023
     16  CG2       18.8770   15.5120    8.7890 C.3   566  VAL566      0.0023
     17  N         20.1370   17.4420   13.0220 N.am  567  MET567     -0.1977
     18  CA        20.4030   18.5910   13.9120 C.3   567  MET567      0.1605
     19  C         21.1180   19.7490   13.2270 C.2   567  MET567      0.2287
     20  O         22.0170   19.5300   12.4110 O.2   567  MET567     -0.2864
     21  CB        21.2260   18.1930   15.1420 C.3   567  MET567      0.0413
     22  CG        21.3170   19.2890   16.2100 C.3   567  MET567      0.0598
     23  SD        22.7490   19.2000   17.3150 S.3   567  MET567     -0.1393
     24  CE        22.5980   20.7570   18.2030 C.3   567  MET567      0.0692
     25  N         23.7340   21.2600   13.3250 N.3   569  SER569     -0.1217
     26  CA        25.0540   20.8880   13.8200 C.3   569  SER569      0.1889
     27  C         25.9510   20.6200   12.6240 C.2   569  SER569      0.2288
     28  O         25.4710   20.2020   11.5760 O.2   569  SER569     -0.2866
     29  CB        24.9640   19.6270   14.6710 C.3   569  SER569      0.2089
     30  OG        26.2390   19.0340   14.8240 O.3   569  SER569     -0.2183
     31  N         24.2240   14.8480   12.4460 N.3   573  PRO573     -0.2116
     32  CA        23.7230   13.5580   12.9230 C.3   573  PRO573      0.1372
     33  C         22.2320   13.3720   12.6310 C.2   573  PRO573      0.2244
     34  O         21.5020   14.3520   12.5030 O.2   573  PRO573     -0.2868
     35  CB        23.9700   13.6180   14.4330 C.3   573  PRO573      0.0268
     36  CG        24.0240   15.0680   14.7570 C.3   573  PRO573      0.0207
     37  CD        24.6030   15.7400   13.5590 C.3   573  PRO573      0.0892
     38  N         18.4140   12.0820   13.6450 N.3   575  TRP575     -0.1241
     39  CA        17.5610   11.9100   14.8120 C.3   575  TRP575      0.1605
     40  C         16.4450   11.0010   14.4170 C.2   575  TRP575      0.2264
     41  O         15.4430   11.4380   13.8490 O.2   575  TRP575     -0.2867
     42  CB        17.0420   13.2620   15.2520 C.3   575  TRP575      0.0550
     43  CG        16.0770   13.2760   16.4100 C.ar  575  TRP575      0.0003
     44  CD1       14.7070   13.0150   16.3850 C.ar  575  TRP575      0.0946
     45  CD2       16.3670   13.6440   17.8000 C.ar  575  TRP575      0.0152
     46  NE1       14.1600   13.1590   17.6340 N.ar  575  TRP575     -0.2442
     47  CE2       15.0970   13.5400   18.5260 C.ar  575  TRP575      0.0810
     48  CE3       17.5110   14.0090   18.4940 C.ar  575  TRP575      0.0012
     49  CZ2       15.0040   13.8070   19.8800 C.ar  575  TRP575      0.0191
     50  CZ3       17.4060   14.2740   19.8600 C.ar  575  TRP575      0.0001
     51  CH2       16.1810   14.1770   20.5340 C.ar  575  TRP575      0.0015
     52  N         20.2170    8.3320   17.6940 N.3   594  ILE594     -0.1245
     53  CA        21.0070    9.2830   16.9270 C.3   594  ILE594      0.1561
     54  C         22.0910    8.5130   16.1960 C.2   594  ILE594      0.2260
     55  O         22.7730    7.6860   16.8070 O.2   594  ILE594     -0.2867
     56  CB        21.6610   10.3350   17.8490 C.3   594  ILE594      0.0252
     57  CG1       20.5980   11.3160   18.3660 C.3   594  ILE594      0.0019
     58  CG2       22.7670   11.0740   17.1180 C.3   594  ILE594      0.0019
     59  CD1       20.9760   12.0380   19.6380 C.3   594  ILE594      0.0001
     60  N         25.5760    9.2240   13.9800 N.3   596  LYS596     -0.1245
     61  CA        26.5060   10.3210   13.8150 C.3   596  LYS596      0.1561
     62  C         27.8500    9.8840   13.2570 C.2   596  LYS596      0.2260
     63  O         28.5030    8.9870   13.8050 O.2   596  LYS596     -0.2867
     64  CB        26.7050   11.0480   15.1480 C.3   596  LYS596      0.0271
     65  CG        27.5420   12.3080   15.0400 C.3   596  LYS596      0.0035
     66  CD        27.9610   12.8270   16.4010 C.3   596  LYS596      0.0206
     67  CE        28.4540   14.2580   16.2540 C.3   596  LYS596      0.1093
     68  NZ        28.8210   14.8950   17.5530 N.3   596  LYS596     -0.1314
     69  N         23.8600    7.0890   29.1850 N.3   630  TYR630     -0.1241
     70  CA        23.0360    6.6630   28.0490 C.3   630  TYR630      0.1605
     71  C         23.7930    5.6910   27.1660 C.2   630  TYR630      0.2264
     72  O         25.0150    5.7560   27.0740 O.2   630  TYR630     -0.2867
     73  CB        22.6260    7.8940   27.2220 C.3   630  TYR630      0.0534
     74  CG        23.8070    8.7360   26.7870 C.ar  630  TYR630     -0.0201
     75  CD1       24.4820    8.4640   25.5980 C.ar  630  TYR630     -0.0009
     76  CD2       24.2650    9.7890   27.5720 C.ar  630  TYR630     -0.0009
     77  CE1       25.5650    9.2280   25.1990 C.ar  630  TYR630      0.0417
     78  CE2       25.3540   10.5500   27.1840 C.ar  630  TYR630      0.0417
     79  CZ        25.9980   10.2680   25.9970 C.ar  630  TYR630      0.1957
     80  OH        27.0830   11.0200   25.5980 O.3   630  TYR630     -0.2866
     81  N         23.5460    6.4540   19.2470 N.3   642  ILE642     -0.1231
     82  CA        23.4450    7.0400   20.5890 C.3   642  ILE642      0.1692
     83  C         22.0010    7.0370   21.0840 C.2   642  ILE642      0.2592
     84  O         21.0880    7.4090   20.3500 O.2   642  ILE642     -0.2718
     85  CB        23.9700    8.4910   20.6130 C.3   642  ILE642      0.0266
     86  CG1       25.4330    8.5540   20.1500 C.3   642  ILE642      0.0019
     87  CG2       23.8340    9.0600   22.0080 C.3   642  ILE642      0.0020
     88  CD1       25.9770    9.9560   19.9960 C.3   642  ILE642      0.0001
     89  N         21.7930    6.6190   22.3260 N.am  643  GLU643     -0.1966
     90  CA        20.4480    6.5660   22.8900 C.3   643  GLU643      0.1733
     91  C         19.9070    7.9780   23.0220 C.2   643  GLU643      0.2616
     92  O         20.5740    8.8360   23.5970 O.2   643  GLU643     -0.2715
     93  CB        20.4600    5.8800   24.2590 C.3   643  GLU643      0.0429
     94  CG        19.1310    5.9150   24.9980 C.3   643  GLU643      0.1163
     95  CD        19.1670    5.1780   26.3280 C.2   643  GLU643      0.3649
     96  OE1       18.1110    5.0980   26.9950 O.co2 643  GLU643     -0.2457
     97  OE2       20.2470    4.6790   26.7170 O.co2 643  GLU643     -0.2457
     98  N         18.7150    8.2250   22.4800 N.am  644  ILE644     -0.1963
     99  CA        18.0430    9.4900   22.7360 C.3   644  ILE644      0.1727
    100  C         17.3780    9.4230   24.1070 C.2   644  ILE644      0.2616
    101  O         16.4820    8.6020   24.3400 O.2   644  ILE644     -0.2715
    102  CB        17.0210    9.8600   21.6410 C.3   644  ILE644      0.0290
    103  CG1       17.7510   10.3080   20.3730 C.3   644  ILE644      0.0022
    104  CG2       16.0860   10.9580   22.1280 C.3   644  ILE644      0.0023
    105  CD1       16.8670   10.4470   19.1560 C.3   644  ILE644      0.0001
    106  N         17.8470   10.2720   25.0150 N.am  645  VAL645     -0.1977
    107  CA        17.2930   10.3460   26.3550 C.3   645  VAL645      0.1596
    108  C         16.0230   11.1780   26.3130 C.2   645  VAL645      0.2287
    109  O         16.0520   12.3560   25.9680 O.2   645  VAL645     -0.2864
    110  CB        18.3070   10.9340   27.3570 C.3   645  VAL645      0.0276
    111  CG1       17.6360   11.2560   28.6880 C.3   645  VAL645      0.0022
    112  CG2       19.4680    9.9670   27.5520 C.3   645  VAL645      0.0022
    113  N         14.5970   15.6300   27.4760 N.3   648  ALA648     -0.1231
    114  CA        15.8320   16.2650   27.9090 C.3   648  ALA648      0.1694
    115  C         16.2810   17.3290   26.9270 C.2   648  ALA648      0.2593
    116  O         16.2000   17.1510   25.7090 O.2   648  ALA648     -0.2718
    117  CB        16.9290   15.2290   28.1110 C.3   648  ALA648      0.0304
    118  N         16.7490   18.4450   27.4660 N.am  649  THR649     -0.1939
    119  CA        17.3340   19.4890   26.6420 C.3   649  THR649      0.2028
    120  C         18.7010   19.8960   27.2230 C.2   649  THR649      0.2642
    121  O         19.0640   19.4590   28.3180 O.2   649  THR649     -0.2714
    122  CB        16.3490   20.6660   26.4180 C.3   649  THR649      0.1808
    123  OG1       16.8290   21.5100   25.3700 O.3   649  THR649     -0.2208
    124  CG2       16.1570   21.4840   27.6710 C.3   649  THR649      0.0379
    125  N         19.4580   20.6950   26.4720 N.am  650  THR650     -0.1950
    126  CA        20.7800   21.1460   26.9000 C.3   650  THR650      0.1897
    127  C         20.6570   22.4100   27.7260 C.2   650  THR650      0.2313
    128  O         19.7410   23.2090   27.5080 O.2   650  THR650     -0.2863
    129  CB        21.7020   21.4760   25.7100 C.3   650  THR650      0.1794
    130  OG1       21.2660   22.6900   25.0930 O.3   650  THR650     -0.2208
    131  CG2       21.7120   20.3630   24.6780 C.3   650  THR650      0.0378
    132  N         20.5850   25.5960   25.5250 N.3   653  LYS653     -0.1245
    133  CA        19.3170   25.9010   24.8640 C.3   653  LYS653      0.1561
    134  C         18.3090   26.4870   25.8490 C.2   653  LYS653      0.2260
    135  O         17.3880   27.2090   25.4500 O.2   653  LYS653     -0.2867
    136  CB        18.7330   24.6830   24.1450 C.3   653  LYS653      0.0271
    137  CG        17.7330   25.0610   23.0590 C.3   653  LYS653      0.0035
    138  CD        17.0410   23.8580   22.4330 C.3   653  LYS653      0.0206
    139  CE        15.9640   24.3150   21.4570 C.3   653  LYS653      0.1093
    140  NZ        15.2070   23.1770   20.8640 N.3   653  LYS653     -0.1314
    141  N         26.5470   23.3220   26.0170 N.3   713  ASP713     -0.1225
    142  CA        25.5800   22.6770   25.1350 C.3   713  ASP713      0.1805
    143  C         25.9490   21.2000   25.0720 C.2   713  ASP713      0.2597
    144  O         25.3520   20.4230   24.3190 O.2   713  ASP713     -0.2718
    145  CB        25.5080   23.3360   23.7450 C.3   713  ASP713      0.1424
    146  CG        26.8690   23.5250   23.1020 C.2   713  ASP713      0.3668
    147  OD1       27.7850   24.0630   23.7640 O.co2 713  ASP713     -0.2456
    148  OD2       27.0130   23.1510   21.9190 O.co2 713  ASP713     -0.2456
    149  N         26.9490   20.8430   25.8830 N.am  714  ASN714     -0.1974
    150  CA        27.3330   19.4550   26.1680 C.3   714  ASN714      0.1688
    151  C         26.8670   18.9760   27.5450 C.2   714  ASN714      0.2292
    152  O         27.2720   17.9110   27.9870 O.2   714  ASN714     -0.2864
    153  CB        28.8550   19.2540   26.0630 C.3   714  ASN714      0.1181
    154  CG        29.3970   19.4840   24.6590 C.2   714  ASN714      0.2629
    155  OD1       30.4370   20.1250   24.4900 O.2   714  ASN714     -0.2716
    156  ND2       28.7060   18.9570   23.6470 N.am  714  ASN714     -0.0877
    157  N         23.2440   18.2530   29.6530 N.3   716  MET716     -0.1245
    158  CA        21.8220   18.1300   29.4510 C.3   716  MET716      0.1570
    159  C         21.1120   17.8250   30.7520 C.2   716  MET716      0.2261
    160  O         21.7040   17.2680   31.6750 O.2   716  MET716     -0.2867
    161  CB        21.5200   17.0540   28.4110 C.3   716  MET716      0.0387
    162  CG        21.8670   17.4730   26.9970 C.3   716  MET716      0.0595
    163  SD        21.3140   16.2980   25.7530 S.3   716  MET716     -0.1393
    164  CE        19.6030   16.7710   25.5390 C.3   716  MET716      0.0692
    165  N         23.0750   15.5940   33.0870 N.3   724  PHE724     -0.1241
    166  CA        24.0420   14.6590   32.5220 C.3   724  PHE724      0.1605
    167  C         24.8560   15.2180   31.3660 C.2   724  PHE724      0.2264
    168  O         24.3120   15.8680   30.4760 O.2   724  PHE724     -0.2867
    169  CB        23.3510   13.3600   32.0980 C.3   724  PHE724      0.0534
    170  CG        22.3280   13.5310   31.0140 C.ar  724  PHE724     -0.0203
    171  CD1       22.6140   13.1500   29.7210 C.ar  724  PHE724     -0.0042
    172  CD2       21.0660   14.0450   31.3000 C.ar  724  PHE724     -0.0042
    173  CE1       21.6660   13.2970   28.7220 C.ar  724  PHE724     -0.0003
    174  CE2       20.1150   14.1970   30.3000 C.ar  724  PHE724     -0.0003
    175  CZ        20.4190   13.8220   29.0080 C.ar  724  PHE724     -0.0000
    176  N         27.2600   15.0150   27.9210 N.3   726  ILE726     -0.1231
    177  CA        27.1660   14.2890   26.6450 C.3   726  ILE726      0.1692
    178  C         28.4000   14.5550   25.8020 C.2   726  ILE726      0.2592
    179  O         29.3380   15.1820   26.2660 O.2   726  ILE726     -0.2718
    180  CB        25.9060   14.6650   25.8190 C.3   726  ILE726      0.0266
    181  CG1       25.8060   16.1850   25.6070 C.3   726  ILE726      0.0019
    182  CG2       24.6490   14.1080   26.4640 C.3   726  ILE726      0.0020
    183  CD1       24.9640   16.5890   24.4230 C.3   726  ILE726      0.0001
    184  N         28.3670   14.0740   24.5640 N.am  727  ASP727     -0.1974
    185  CA        29.4530   14.1690   23.5860 C.3   727  ASP727      0.1709
    186  C         30.8920   14.1870   24.1090 C.2   727  ASP727      0.2293
    187  O         31.6420   15.1220   23.8560 O.2   727  ASP727     -0.2864
    188  CB        29.2160   15.2990   22.5820 C.3   727  ASP727      0.1436
    189  CG        29.9950   15.0850   21.2800 C.2   727  ASP727      0.3671
    190  OD1       30.6100   13.9900   21.1420 O.co2 727  ASP727     -0.2456
    191  OD2       29.9960   15.9980   20.4070 O.co2 727  ASP727     -0.2456
@<TRIPOS>BOND
     1    16    14    1
     2    15    14    1
     3    14    11    1
     4    10    11    1
     5    10     3   am
     6    11    12    1
     7     3     4    2
     8     3     2    1
     9     2     1    1
    10     2     5    1
    11    28    27    2
    12    13    12    2
    13    12    17   am
    14    20    19    2
    15    31    32    1
    16    31    37    1
    17     5     6    1
    18    34    33    2
    19    27    26    1
    20    33    32    1
    21    32    35    1
    22    17    18    1
    23    19    18    1
    24    62    63    2
    25    62    61    1
    26    25    26    1
    27    37    36    1
    28    38    39    1
    29    61    60    1
    30    61    64    1
    31    26    29    1
    32    41    40    2
    33    18    21    1
    34     6     7    1
    35    40    39    1
    36    35    36    1
    37    29    30    1
    38    39    42    1
    39     7     8    1
    40    65    64    1
    41    65    66    1
    42    21    22    1
    43    42    43    1
    44    54    55    2
    45    54    53    1
    46    22    23    1
    47    67    66    1
    48    67    68    1
    49     8     9    1
    50    44    43   ar
    51    44    46   ar
    52    43    45   ar
    53    53    52    1
    54    53    56    1
    55    58    56    1
    56    23    24    1
    57    46    47   ar
    58    45    48   ar
    59    45    47   ar
    60    56    57    1
    61    57    59    1
    62    48    50   ar
    63    47    49   ar
    64   105   103    1
    65    81    82    1
    66    50    51   ar
    67    49    51   ar
    68    88    86    1
    69    86    85    1
    70    84    83    2
    71   103   102    1
    72   191   189   ar
    73    82    85    1
    74    82    83    1
    75    85    87    1
    76   140   139    1
    77    83    89   am
    78   190   189   ar
    79   189   188    1
    80   139   138    1
    81   102   104    1
    82   102    99    1
    83   148   146   ar
    84    89    90    1
    85   138   137    1
    86    98    99    1
    87    98    91   am
    88   188   185    1
    89    99   100    1
    90    90    91    1
    91    90    93    1
    92    91    92    2
    93   137   136    1
    94   146   145    1
    95   146   147   ar
    96   185   186    1
    97   185   184    1
    98   156   154   am
    99   145   142    1
   100   187   186    2
   101   100   101    2
   102   100   106   am
   103   136   133    1
   104    93    94    1
   105   144   143    2
   106   183   181    1
   107   155   154    2
   108   184   178   am
   109   154   153    1
   110   131   129    1
   111   133   132    1
   112   133   134    1
   113    94    95    1
   114   106   107    1
   115   143   142    1
   116   143   149   am
   117   130   129    1
   118   142   141    1
   119    77    75   ar
   120    77    79   ar
   121   123   122    1
   122   135   134    2
   123   164   163    1
   124    75    74   ar
   125    80    79    1
   126   181   180    1
   127   116   115    2
   128   129   126    1
   129   163   162    1
   130   178   179    2
   131   178   177    1
   132   180   182    1
   133   180   177    1
   134   149   150    1
   135   109   108    2
   136    79    78   ar
   137   153   150    1
   138   150   151    1
   139   108   107    1
   140    95    97   ar
   141    95    96   ar
   142   107   110    1
   143   122   119    1
   144   122   124    1
   145   125   126    1
   146   125   120   am
   147   119   120    1
   148   119   118    1
   149   177   176    1
   150    74    73    1
   151    74    76   ar
   152   126   127    1
   153   115   118   am
   154   115   114    1
   155   162   161    1
   156    72    71    2
   157    71    70    1
   158    78    76   ar
   159    73    70    1
   160   120   121    2
   161   110   112    1
   162   110   111    1
   163   113   114    1
   164   128   127    2
   165   151   152    2
   166   114   117    1
   167    70    69    1
   168   161   158    1
   169   173   175   ar
   170   173   171   ar
   171   175   174   ar
   172   158   157    1
   173   158   159    1
   174   171   170   ar
   175   174   172   ar
   176   168   167    2
   177   159   160    2
   178   170   172   ar
   179   170   169    1
   180   167   166    1
   181   169   166    1
   182   166   165    1
