@<TRIPOS>MOLECULE
tmp/4fjzA00.pdb
 210 200 0 0 0
SMALL
GASTEIGER

@<TRIPOS>ATOM
      1  N         14.9170   13.4920   12.1160 N.3   551  LYS551     -0.1231
      2  CA        15.5280   14.7850   11.8050 C.3   551  LYS551      0.1693
      3  C         16.9800   14.6840   11.3320 C.2   551  LYS551      0.2592
      4  O         17.4900   13.6000   11.0560 O.2   551  LYS551     -0.2718
      5  CB        15.4880   15.6980   13.0390 C.3   551  LYS551      0.0285
      6  CG        14.1680   15.7270   13.7750 C.3   551  LYS551      0.0035
      7  CD        14.0950   16.8810   14.7700 C.3   551  LYS551      0.0206
      8  CE        14.7750   16.5740   16.0960 C.3   551  LYS551      0.1093
      9  NZ        14.0360   17.1790   17.2420 N.3   551  LYS551     -0.1314
     10  N         17.6090   15.8520   11.2060 N.am  552  VAL552     -0.1966
     11  CA        19.0580   16.0050   11.0850 C.3   552  VAL552      0.1727
     12  C         19.4420   17.2770   11.8530 C.2   552  VAL552      0.2616
     13  O         18.5960   18.1380   12.0490 O.2   552  VAL552     -0.2715
     14  CB        19.4790   16.1320    9.6130 C.3   552  VAL552      0.0290
     15  CG1       20.9920   16.0920    9.4880 C.3   552  VAL552      0.0023
     16  CG2       18.8430   15.0270    8.7850 C.3   552  VAL552      0.0023
     17  N         20.6900   17.4080   12.2950 N.am  553  MET553     -0.1977
     18  CA        21.0810   18.5570   13.1320 C.3   553  MET553      0.1605
     19  C         21.8590   19.6230   12.3690 C.2   553  MET553      0.2287
     20  O         22.6670   19.3060   11.4950 O.2   553  MET553     -0.2864
     21  CB        21.9370   18.0990   14.3150 C.3   553  MET553      0.0413
     22  CG        22.0960   19.1360   15.4250 C.3   553  MET553      0.0598
     23  SD        23.4800   18.8450   16.5480 S.3   553  MET553     -0.1393
     24  CE        24.6020   17.8490   15.5570 C.3   553  MET553      0.0692
     25  N         24.3450   21.3700   13.4530 N.3   555  SER555     -0.1217
     26  CA        25.7910   21.2610   13.6820 C.3   555  SER555      0.1889
     27  C         26.4330   20.3790   12.6220 C.2   555  SER555      0.2288
     28  O         25.8050   19.4640   12.0810 O.2   555  SER555     -0.2866
     29  CB        26.1240   20.7430   15.0840 C.3   555  SER555      0.2089
     30  OG        27.4940   20.9620   15.3960 O.3   555  SER555     -0.2183
     31  N         28.2610   17.9430   11.7290 N.3   557  LYS557     -0.1245
     32  CA        28.4270   16.5060   11.4870 C.3   557  LYS557      0.1561
     33  C         27.1300   15.8010   11.0520 C.2   557  LYS557      0.2260
     34  O         27.1370   14.5930   10.7680 O.2   557  LYS557     -0.2867
     35  CB        29.0520   15.8390   12.7120 C.3   557  LYS557      0.0271
     36  CG        30.5530   16.0790   12.7920 C.3   557  LYS557      0.0035
     37  CD        31.0650   16.0850   14.2210 C.3   557  LYS557      0.0206
     38  CE        32.4790   16.6450   14.3050 C.3   557  LYS557      0.1093
     39  NZ        32.9170   16.8360   15.7180 N.3   557  LYS557     -0.1314
     40  N         24.1100   14.4810   12.1810 N.3   559  PRO559     -0.2116
     41  CA        23.6230   13.2060   12.6790 C.3   559  PRO559      0.1372
     42  C         22.1750   12.9450   12.2470 C.2   559  PRO559      0.2244
     43  O         21.5870   13.7670   11.5640 O.2   559  PRO559     -0.2868
     44  CB        23.7180   13.3620   14.2070 C.3   559  PRO559      0.0268
     45  CG        24.2840   14.7150   14.4720 C.3   559  PRO559      0.0207
     46  CD        24.1070   15.5080   13.2310 C.3   559  PRO559      0.0892
     47  N         18.6180   12.1370   14.0130 N.3   561  TRP561     -0.1241
     48  CA        17.6750   11.8810   15.0890 C.3   561  TRP561      0.1605
     49  C         16.5780   11.0180   14.5450 C.2   561  TRP561      0.2264
     50  O         15.7040   11.5170   13.8630 O.2   561  TRP561     -0.2867
     51  CB        17.1250   13.1980   15.5900 C.3   561  TRP561      0.0550
     52  CG        16.1270   13.1050   16.7010 C.ar  561  TRP561      0.0003
     53  CD1       14.8260   12.6070   16.6570 C.ar  561  TRP561      0.0946
     54  CD2       16.3020   13.5850   18.0580 C.ar  561  TRP561      0.0152
     55  NE1       14.2180   12.7270   17.8740 N.ar  561  TRP561     -0.2442
     56  CE2       15.0480   13.3110   18.7560 C.ar  561  TRP561      0.0810
     57  CE3       17.3340   14.1910   18.7440 C.ar  561  TRP561      0.0012
     58  CZ2       14.8670   13.6340   20.0810 C.ar  561  TRP561      0.0191
     59  CZ3       17.1430   14.5150   20.0840 C.ar  561  TRP561      0.0001
     60  CH2       15.9370   14.2410   20.7350 C.ar  561  TRP561      0.0015
     61  N         20.1480    7.9570   17.5520 N.3   580  ILE580     -0.1245
     62  CA        20.8910    8.9140   16.7500 C.3   580  ILE580      0.1561
     63  C         21.9940    8.1600   16.0390 C.2   580  ILE580      0.2260
     64  O         22.7120    7.4080   16.6730 O.2   580  ILE580     -0.2867
     65  CB        21.5540    9.9870   17.6290 C.3   580  ILE580      0.0252
     66  CG1       20.4950   10.7460   18.4390 C.3   580  ILE580      0.0019
     67  CG2       22.3930   10.9270   16.7730 C.3   580  ILE580      0.0019
     68  CD1       21.0430   11.9190   19.2180 C.3   580  ILE580      0.0001
     69  N         25.5130    8.9200   14.0730 N.3   582  LYS582     -0.1245
     70  CA        26.4940    9.9970   13.9130 C.3   582  LYS582      0.1561
     71  C         27.7300    9.4880   13.1820 C.2   582  LYS582      0.2260
     72  O         28.2270    8.4050   13.4880 O.2   582  LYS582     -0.2867
     73  CB        26.9140   10.5230   15.2920 C.3   582  LYS582      0.0271
     74  CG        27.9470   11.6590   15.3100 C.3   582  LYS582      0.0035
     75  CD        29.1340   11.3410   16.2290 C.3   582  LYS582      0.0206
     76  CE        29.4110   12.4280   17.2660 C.3   582  LYS582      0.1093
     77  NZ        29.7920   13.7370   16.6660 N.3   582  LYS582     -0.1314
     78  N         24.0010    6.9040   29.0140 N.3   616  TYR616     -0.1241
     79  CA        23.1580    6.3980   27.9330 C.3   616  TYR616      0.1605
     80  C         23.9150    5.4310   27.0120 C.2   616  TYR616      0.2264
     81  O         25.1480    5.4340   26.9370 O.2   616  TYR616     -0.2867
     82  CB        22.5780    7.5820   27.1220 C.3   616  TYR616      0.0534
     83  CG        23.6490    8.5190   26.6290 C.ar  616  TYR616     -0.0201
     84  CD1       24.2660    8.3060   25.4140 C.ar  616  TYR616     -0.0009
     85  CD2       24.0930    9.5790   27.4080 C.ar  616  TYR616     -0.0009
     86  CE1       25.2740    9.1390   24.9690 C.ar  616  TYR616      0.0417
     87  CE2       25.1110   10.4100   26.9750 C.ar  616  TYR616      0.0417
     88  CZ        25.6940   10.1870   25.7530 C.ar  616  TYR616      0.1957
     89  OH        26.7040   11.0000   25.2930 O.3   616  TYR616     -0.2866
     90  N         23.6050    6.1620   19.1640 N.3   628  ILE628     -0.1231
     91  CA        23.4420    6.7000   20.5230 C.3   628  ILE628      0.1692
     92  C         21.9920    6.6130   20.9940 C.2   628  ILE628      0.2592
     93  O         21.0770    6.9880   20.2620 O.2   628  ILE628     -0.2718
     94  CB        23.8210    8.1880   20.5680 C.3   628  ILE628      0.0266
     95  CG1       25.2790    8.3740   20.1570 C.3   628  ILE628      0.0019
     96  CG2       23.5710    8.7530   21.9510 C.3   628  ILE628      0.0020
     97  CD1       25.7700    9.7940   20.3080 C.3   628  ILE628      0.0001
     98  N         21.7760    6.1470   22.2180 N.am  629  GLU629     -0.1966
     99  CA        20.4320    6.1500   22.8080 C.3   629  GLU629      0.1733
    100  C         19.9880    7.5770   23.0040 C.2   629  GLU629      0.2616
    101  O         20.7880    8.4020   23.4100 O.2   629  GLU629     -0.2715
    102  CB        20.4470    5.4560   24.1690 C.3   629  GLU629      0.0429
    103  CG        19.1100    5.4020   24.8950 C.3   629  GLU629      0.1163
    104  CD        19.2440    4.8310   26.2920 C.2   629  GLU629      0.3649
    105  OE1       18.2780    4.2460   26.8070 O.co2 629  GLU629     -0.2457
    106  OE2       20.3230    4.9660   26.8940 O.co2 629  GLU629     -0.2457
    107  N         18.7200    7.8580   22.7150 N.am  630  ILE630     -0.1963
    108  CA        18.1170    9.1710   22.9910 C.3   630  ILE630      0.1727
    109  C         17.3880    9.1330   24.3180 C.2   630  ILE630      0.2616
    110  O         16.4370    8.3590   24.4770 O.2   630  ILE630     -0.2715
    111  CB        17.0740    9.5720   21.9330 C.3   630  ILE630      0.0290
    112  CG1       17.7690    9.9280   20.6150 C.3   630  ILE630      0.0022
    113  CG2       16.2220   10.7230   22.4600 C.3   630  ILE630      0.0023
    114  CD1       16.8350   10.0740   19.4320 C.3   630  ILE630      0.0001
    115  N         17.8180    9.9650   25.2610 N.am  631  VAL631     -0.1977
    116  CA        17.1130   10.0770   26.5310 C.3   631  VAL631      0.1596
    117  C         15.9260   10.9970   26.3580 C.2   631  VAL631      0.2287
    118  O         16.0790   12.1520   25.9950 O.2   631  VAL631     -0.2864
    119  CB        17.9910   10.6300   27.6590 C.3   631  VAL631      0.0276
    120  CG1       17.1630   10.7510   28.9360 C.3   631  VAL631      0.0022
    121  CG2       19.2150    9.7410   27.8660 C.3   631  VAL631      0.0022
    122  N         14.5510   15.6420   27.1460 N.3   634  ALA634     -0.1231
    123  CA        15.8380   16.2340   27.5310 C.3   634  ALA634      0.1694
    124  C         16.2800   17.3500   26.5960 C.2   634  ALA634      0.2593
    125  O         16.1570   17.2530   25.3790 O.2   634  ALA634     -0.2718
    126  CB        16.9100   15.1600   27.5880 C.3   634  ALA634      0.0304
    127  N         16.8180   18.4080   27.1770 N.am  635  THR635     -0.1939
    128  CA        17.3260   19.5350   26.4010 C.3   635  THR635      0.2028
    129  C         18.7120   19.8880   26.9390 C.2   635  THR635      0.2642
    130  O         19.0840   19.4520   28.0350 O.2   635  THR635     -0.2714
    131  CB        16.3610   20.7540   26.4780 C.3   635  THR635      0.1808
    132  OG1       16.5460   21.6040   25.3360 O.3   635  THR635     -0.2208
    133  CG2       16.5650   21.5580   27.7720 C.3   635  THR635      0.0379
    134  N         19.4800   20.6500   26.1620 N.am  636  THR636     -0.1950
    135  CA        20.7920   21.0840   26.6200 C.3   636  THR636      0.1897
    136  C         20.6410   22.3000   27.4970 C.2   636  THR636      0.2313
    137  O         19.6010   22.9530   27.4950 O.2   636  THR636     -0.2863
    138  CB        21.7570   21.4390   25.4740 C.3   636  THR636      0.1794
    139  OG1       21.3360   22.6560   24.8460 O.3   636  THR636     -0.2208
    140  CG2       21.8410   20.3060   24.4540 C.3   636  THR636      0.0378
    141  N         20.3210   25.6800   25.1160 N.3   639  LYS639     -0.1245
    142  CA        19.0270   26.1910   24.6300 C.3   639  LYS639      0.1561
    143  C         18.2140   26.8960   25.7180 C.2   639  LYS639      0.2260
    144  O         17.4830   27.8560   25.4400 O.2   639  LYS639     -0.2867
    145  CB        18.1820   25.0940   23.9660 C.3   639  LYS639      0.0271
    146  CG        18.6740   24.6740   22.5810 C.3   639  LYS639      0.0035
    147  CD        17.5430   24.4490   21.5650 C.3   639  LYS639      0.0206
    148  CE        17.2750   25.6780   20.6880 C.3   639  LYS639      0.1093
    149  NZ        16.4040   25.3950   19.5080 N.3   639  LYS639     -0.1314
    150  N         26.4240   23.5330   25.9010 N.3   696  ASP696     -0.1225
    151  CA        25.6170   22.8300   24.8900 C.3   696  ASP696      0.1805
    152  C         25.9210   21.3260   24.8760 C.2   696  ASP696      0.2597
    153  O         25.1470   20.5420   24.3330 O.2   696  ASP696     -0.2718
    154  CB        25.7870   23.4410   23.4820 C.3   696  ASP696      0.1424
    155  CG        27.2330   23.4560   23.0020 C.2   696  ASP696      0.3668
    156  OD1       28.1490   23.2630   23.8310 O.co2 696  ASP696     -0.2456
    157  OD2       27.4510   23.6820   21.7910 O.co2 696  ASP696     -0.2456
    158  N         27.0540   20.9450   25.4700 N.am  697  ASN697     -0.1974
    159  CA        27.4360   19.5430   25.6710 C.3   697  ASN697      0.1688
    160  C         27.0140   18.9700   27.0470 C.2   697  ASN697      0.2292
    161  O         27.3590   17.8370   27.3680 O.2   697  ASN697     -0.2864
    162  CB        28.9560   19.3810   25.4680 C.3   697  ASN697      0.1181
    163  CG        29.3590   19.3530   24.0000 C.2   697  ASN697      0.2629
    164  OD1       28.6350   18.8320   23.1500 O.2   697  ASN697     -0.2716
    165  ND2       30.5330   19.8990   23.6990 N.am  697  ASN697     -0.0877
    166  N         23.4340   18.3170   29.4550 N.3   699  MET699     -0.1245
    167  CA        21.9890   18.2220   29.2430 C.3   699  MET699      0.1570
    168  C         21.2420   18.0220   30.5410 C.2   699  MET699      0.2261
    169  O         21.8500   17.7150   31.5560 O.2   699  MET699     -0.2867
    170  CB        21.6510   17.0870   28.2660 C.3   699  MET699      0.0387
    171  CG        22.1110   17.3620   26.8420 C.3   699  MET699      0.0595
    172  SD        21.2680   16.3730   25.5960 S.3   699  MET699     -0.1393
    173  CE        19.6260   17.0760   25.6000 C.3   699  MET699      0.0692
    174  N         23.0600   15.6240   32.7370 N.3   707  PHE707     -0.1241
    175  CA        24.0320   14.6480   32.2510 C.3   707  PHE707      0.1605
    176  C         24.8100   15.1750   31.0620 C.2   707  PHE707      0.2264
    177  O         24.2340   15.8120   30.1960 O.2   707  PHE707     -0.2867
    178  CB        23.3560   13.3320   31.8670 C.3   707  PHE707      0.0534
    179  CG        22.4610   13.4370   30.6810 C.ar  707  PHE707     -0.0203
    180  CD1       22.8450   12.9220   29.4720 C.ar  707  PHE707     -0.0042
    181  CD2       21.2340   14.0530   30.7800 C.ar  707  PHE707     -0.0042
    182  CE1       22.0210   13.0210   28.3740 C.ar  707  PHE707     -0.0003
    183  CE2       20.3990   14.1580   29.6790 C.ar  707  PHE707     -0.0003
    184  CZ        20.7970   13.6420   28.4720 C.ar  707  PHE707     -0.0000
    185  N         27.2190   14.9460   27.5750 N.3   709  ILE709     -0.1231
    186  CA        27.1620   14.1720   26.3440 C.3   709  ILE709      0.1692
    187  C         28.4400   14.3870   25.5370 C.2   709  ILE709      0.2592
    188  O         29.3570   15.0530   25.9930 O.2   709  ILE709     -0.2718
    189  CB        25.9040   14.5200   25.5040 C.3   709  ILE709      0.0266
    190  CG1       25.8700   16.0040   25.0780 C.3   709  ILE709      0.0019
    191  CG2       24.6420   14.1880   26.2780 C.3   709  ILE709      0.0020
    192  CD1       24.7980   16.3140   24.0430 C.3   709  ILE709      0.0001
    193  N         28.4900   13.7910   24.3520 N.am  710  ASP710     -0.1974
    194  CA        29.5940   13.9290   23.4020 C.3   710  ASP710      0.1709
    195  C         30.9850   14.0220   24.0240 C.2   710  ASP710      0.2293
    196  O         31.5610   15.1000   24.1160 O.2   710  ASP710     -0.2864
    197  CB        29.3500   15.1210   22.4660 C.3   710  ASP710      0.1436
    198  CG        30.1610   15.0260   21.1600 C.2   710  ASP710      0.3671
    199  OD1       30.7080   13.9290   20.8620 O.co2 710  ASP710     -0.2456
    200  OD2       30.2450   16.0460   20.4290 O.co2 710  ASP710     -0.2456
    201  N         35.2020   14.9730   22.2910 N.3   713  HIS713     -0.1241
    202  CA        36.0340   16.1360   22.5890 C.3   713  HIS713      0.1621
    203  C         36.7640   15.9520   23.9050 C.2   713  HIS713      0.2264
    204  O         37.9560   15.6370   23.9470 O.2   713  HIS713     -0.2867
    205  CB        35.1560   17.3890   22.6730 C.3   713  HIS713      0.0745
    206  CG        34.3110   17.6550   21.4310 C.ar  713  HIS713      0.0817
    207  ND1       33.7370   16.6690   20.7080 N.ar  713  HIS713     -0.2268
    208  CD2       33.9310   18.8580   20.8250 C.ar  713  HIS713      0.1154
    209  CE1       33.0490   17.2100   19.6790 C.ar  713  HIS713      0.1986
    210  NE2       33.1670   18.5480   19.7540 N.ar  713  HIS713     -0.2212
@<TRIPOS>BOND
     1    16    14    1
     2    15    14    1
     3    14    11    1
     4    34    33    2
     5    33    32    1
     6     4     3    2
     7    11    10    1
     8    11    12    1
     9    10     3   am
    10     3     2    1
    11    32    31    1
    12    32    35    1
    13    20    19    2
    14    43    42    2
    15     2     1    1
    16     2     5    1
    17    12    13    2
    18    12    17   am
    19    28    27    2
    20    40    41    1
    21    40    46    1
    22    42    41    1
    23    17    18    1
    24    19    18    1
    25    27    26    1
    26    41    44    1
    27    35    36    1
    28    36    37    1
    29     5     6    1
    30    18    21    1
    31    71    72    2
    32    71    70    1
    33    46    45    1
    34    25    26    1
    35    26    29    1
    36     6     7    1
    37    50    49    2
    38    70    69    1
    39    70    73    1
    40    47    48    1
    41    44    45    1
    42    37    38    1
    43    38    39    1
    44    21    22    1
    45    49    48    1
    46     7     8    1
    47    29    30    1
    48    48    51    1
    49    73    74    1
    50    74    75    1
    51    22    23    1
    52    24    23    1
    53    51    52    1
    54    63    64    2
    55    63    62    1
    56     8     9    1
    57    75    76    1
    58    53    52   ar
    59    53    55   ar
    60    77    76    1
    61    52    54   ar
    62    62    61    1
    63    62    65    1
    64    67    65    1
    65    65    66    1
    66    55    56   ar
    67    54    57   ar
    68    54    56   ar
    69    66    68    1
    70    57    59   ar
    71    56    58   ar
    72    90    91    1
    73   114   112    1
    74   149   148    1
    75   209   210   ar
    76   209   207   ar
    77   210   208   ar
    78    58    60   ar
    79    59    60   ar
    80    95    97    1
    81    95    94    1
    82    93    92    2
    83   200   198   ar
    84    91    94    1
    85    91    92    1
    86    94    96    1
    87   112   111    1
    88   148   147    1
    89   207   206   ar
    90   208   206   ar
    91   199   198   ar
    92    92    98   am
    93   198   197    1
    94   206   205    1
    95   147   146    1
    96   157   155   ar
    97   111   113    1
    98   111   108    1
    99    98    99    1
   100   201   202    1
   101   197   194    1
   102   146   145    1
   103   202   205    1
   104   202   203    1
   105   107   108    1
   106   107   100   am
   107    99   100    1
   108    99   102    1
   109   108   109    1
   110   155   154    1
   111   155   156   ar
   112   100   101    2
   113   164   163    2
   114   194   195    1
   115   194   193    1
   116   154   151    1
   117   165   163   am
   118   203   204    2
   119   145   142    1
   120   163   162    1
   121   195   196    2
   122   192   190    1
   123   102   103    1
   124   109   110    2
   125   109   115   am
   126   153   152    2
   127   193   187   am
   128   140   138    1
   129   142   141    1
   130   142   143    1
   131   139   138    1
   132   152   151    1
   133   152   158   am
   134   151   150    1
   135   103   104    1
   136    86    84   ar
   137    86    88   ar
   138   190   189    1
   139   115   116    1
   140    89    88    1
   141   132   131    1
   142   125   124    2
   143    84    83   ar
   144   144   143    2
   145   162   159    1
   146   158   159    1
   147   138   135    1
   148   189   191    1
   149   189   186    1
   150   187   188    2
   151   187   186    1
   152   172   173    1
   153   172   171    1
   154   159   160    1
   155    88    87   ar
   156   118   117    2
   157   134   135    1
   158   134   129   am
   159   104   105   ar
   160   104   106   ar
   161   186   185    1
   162   117   116    1
   163   128   131    1
   164   128   129    1
   165   128   127    1
   166   131   133    1
   167   116   119    1
   168   124   127   am
   169   124   123    1
   170   135   136    1
   171    83    82    1
   172    83    85   ar
   173   171   170    1
   174    81    80    2
   175   129   130    2
   176    87    85   ar
   177    80    79    1
   178   160   161    2
   179    82    79    1
   180   122   123    1
   181   137   136    2
   182   123   126    1
   183   119   121    1
   184   119   120    1
   185    79    78    1
   186   170   167    1
   187   182   184   ar
   188   182   180   ar
   189   184   183   ar
   190   167   166    1
   191   167   168    1
   192   180   179   ar
   193   183   181   ar
   194   177   176    2
   195   168   169    2
   196   179   181   ar
   197   179   178    1
   198   176   175    1
   199   178   175    1
   200   175   174    1
