@<TRIPOS>MOLECULE
tmp/4fk3A00.pdb
 161 153 0 0 0
SMALL
GASTEIGER

@<TRIPOS>ATOM
      1  N         -7.7960   55.2520   26.0430 N.3    16  ILE16      -0.1245
      2  CA        -8.2690   53.9870   25.5030 C.3    16  ILE16       0.1561
      3  C         -8.0430   52.8540   26.4920 C.2    16  ILE16       0.2260
      4  O         -8.9660   52.1070   26.8120 O.2    16  ILE16      -0.2867
      5  CB        -7.5910   53.6560   24.1630 C.3    16  ILE16       0.0252
      6  CG1       -8.1010   54.5900   23.0660 C.3    16  ILE16       0.0019
      7  CG2       -7.8530   52.2130   23.7700 C.3    16  ILE16       0.0019
      8  CD1       -9.5450   54.3420   22.6770 C.3    16  ILE16       0.0001
      9  N         -2.6600   54.1720   26.6940 N.3    24  VAL24      -0.1245
     10  CA        -2.9730   54.4200   25.2940 C.3    24  VAL24       0.1561
     11  C         -4.1120   55.4130   25.1170 C.2    24  VAL24       0.2260
     12  O         -5.1860   55.2580   25.6970 O.2    24  VAL24      -0.2867
     13  CB        -3.3180   53.1230   24.5570 C.3    24  VAL24       0.0252
     14  CG1       -3.5290   53.3970   23.0780 C.3    24  VAL24       0.0019
     15  CG2       -2.2180   52.1020   24.7540 C.3    24  VAL24       0.0019
     16  N         -2.3540   56.8320   17.4190 N.3    34  ALA34      -0.1245
     17  CA        -2.4290   56.2720   18.7560 C.3    34  ALA34       0.1562
     18  C         -1.1720   56.6730   19.5030 C.2    34  ALA34       0.2260
     19  O         -0.0700   56.5410   18.9830 O.2    34  ALA34      -0.2867
     20  CB        -2.5530   54.7690   18.6970 C.3    34  ALA34       0.0290
     21  N          1.0650   56.1030   22.9500 N.3    36  LYS36      -0.1245
     22  CA         1.3330   55.3770   24.1870 C.3    36  LYS36       0.1561
     23  C          2.2970   56.1500   25.0770 C.2    36  LYS36       0.2260
     24  O          3.5100   56.0930   24.8940 O.2    36  LYS36      -0.2867
     25  CB         1.8950   53.9810   23.9190 C.3    36  LYS36       0.0271
     26  CG         2.0390   53.1470   25.1860 C.3    36  LYS36       0.0035
     27  CD         2.9740   51.9620   25.0030 C.3    36  LYS36       0.0206
     28  CE         2.2320   50.7180   24.5530 C.3    36  LYS36       0.1093
     29  NZ         3.1520   49.5510   24.4460 N.3    36  LYS36      -0.1314
     30  N         11.7700   49.9280   16.9490 N.3    58  LEU58      -0.1245
     31  CA        10.4750   50.1170   16.3050 C.3    58  LEU58       0.1561
     32  C         10.6240   50.6670   14.8900 C.2    58  LEU58       0.2260
     33  O          9.8670   50.3060   13.9880 O.2    58  LEU58      -0.2867
     34  CB         9.5810   51.0460   17.1300 C.3    58  LEU58       0.0270
     35  CG         9.0250   50.4990   18.4420 C.3    58  LEU58       0.0019
     36  CD1        8.0400   51.4790   19.0490 C.3    58  LEU58       0.0001
     37  CD2        8.3650   49.1500   18.2260 C.3    58  LEU58       0.0001
     38  N         10.8060   48.5970   11.4740 N.3    61  THR61      -0.1218
     39  CA         9.6670   47.7690   11.0940 C.3    61  THR61       0.1862
     40  C          8.7840   48.4430   10.0510 C.2    61  THR61       0.2287
     41  O          7.9740   49.3100   10.3740 O.2    61  THR61      -0.2866
     42  CB         8.7920   47.4230   12.3090 C.3    61  THR61       0.1770
     43  OG1        8.2110   48.6230   12.8390 O.3    61  THR61      -0.2211
     44  CG2        9.6230   46.7450   13.3790 C.3    61  THR61       0.0375
     45  N          2.0690   46.8360   13.2650 N.3    67  LEU67      -0.1245
     46  CA         1.4860   48.1300   13.6040 C.3    67  LEU67       0.1561
     47  C          2.4460   49.2480   13.2200 C.2    67  LEU67       0.2260
     48  O          3.6290   49.2040   13.5570 O.2    67  LEU67      -0.2867
     49  CB         1.1630   48.1930   15.0970 C.3    67  LEU67       0.0270
     50  CG         0.4640   49.4520   15.6100 C.3    67  LEU67       0.0019
     51  CD1       -0.9610   49.5180   15.0940 C.3    67  LEU67       0.0001
     52  CD2        0.4920   49.4970   17.1290 C.3    67  LEU67       0.0001
     53  N          4.6070   52.1720   13.2210 N.3    69  PHE69      -0.1241
     54  CA         5.3050   53.1910   13.9840 C.3    69  PHE69       0.1605
     55  C          5.3170   54.4700   13.1620 C.2    69  PHE69       0.2264
     56  O          5.5430   54.4340   11.9520 O.2    69  PHE69      -0.2867
     57  CB         6.7310   52.7300   14.2780 C.3    69  PHE69       0.0534
     58  CG         7.5980   53.7840   14.9050 C.ar   69  PHE69      -0.0203
     59  CD1        7.3730   54.2020   16.2050 C.ar   69  PHE69      -0.0042
     60  CD2        8.6520   54.3420   14.1990 C.ar   69  PHE69      -0.0042
     61  CE1        8.1730   55.1660   16.7870 C.ar   69  PHE69      -0.0003
     62  CE2        9.4570   55.3060   14.7730 C.ar   69  PHE69      -0.0003
     63  CZ         9.2170   55.7190   16.0700 C.ar   69  PHE69      -0.0000
     64  N          5.0490   56.8180   22.4960 N.3    80  ILE80      -0.1245
     65  CA         5.1510   56.1450   21.2120 C.3    80  ILE80       0.1561
     66  C          3.9200   56.4970   20.3920 C.2    80  ILE80       0.2260
     67  O          2.7940   56.3670   20.8680 O.2    80  ILE80      -0.2867
     68  CB         5.1950   54.6190   21.3680 C.3    80  ILE80       0.0252
     69  CG1        6.3390   54.1930   22.2930 C.3    80  ILE80       0.0019
     70  CG2        5.3160   53.9540   20.0050 C.3    80  ILE80       0.0019
     71  CD1        7.7100   54.5650   21.7850 C.3    80  ILE80       0.0001
     72  N          1.7580   55.7310   16.9350 N.3    82  THR82      -0.1203
     73  CA         1.5380   54.7870   15.8470 C.3    82  THR82       0.1994
     74  C          0.2670   55.1200   15.0790 C.2    82  THR82       0.2618
     75  O         -0.4280   56.0830   15.3920 O.2    82  THR82      -0.2717
     76  CB         1.4240   53.3350   16.3650 C.3    82  THR82       0.1784
     77  OG1        0.1890   53.1680   17.0720 O.3    82  THR82      -0.2211
     78  CG2        2.5820   53.0000   17.2830 C.3    82  THR82       0.0376
     79  N         -0.0350   54.3070   14.0740 N.am   83  GLN83      -0.1965
     80  CA        -1.2870   54.4300   13.3460 C.3    83  GLN83       0.1733
     81  C         -2.4530   54.1180   14.2710 C.2    83  GLN83       0.2616
     82  O         -2.2790   53.5100   15.3260 O.2    83  GLN83      -0.2715
     83  CB        -1.3110   53.4730   12.1520 C.3    83  GLN83       0.0408
     84  CG        -1.1380   52.0130   12.5370 C.3    83  GLN83       0.0908
     85  CD        -1.4050   51.0610   11.3880 C.2    83  GLN83       0.2608
     86  OE1       -0.5380   50.2770   11.0040 O.2    83  GLN83      -0.2717
     87  NE2       -2.6130   51.1170   10.8420 N.am   83  GLN83      -0.0878
     88  N         -3.6460   54.5410   13.8730 N.am   84  TRP84      -0.1960
     89  CA        -4.8480   54.1890   14.6080 C.3    84  TRP84       0.1771
     90  C         -5.5070   52.9760   13.9730 C.2    84  TRP84       0.2619
     91  O         -5.6020   52.8770   12.7500 O.2    84  TRP84      -0.2715
     92  CB        -5.8320   55.3560   14.6540 C.3    84  TRP84       0.0590
     93  CG        -7.0170   55.0670   15.5070 C.ar   84  TRP84       0.0006
     94  CD1       -8.3190   55.0030   15.1120 C.ar   84  TRP84       0.0946
     95  CD2       -7.0060   54.7810   16.9090 C.ar   84  TRP84       0.0152
     96  NE1       -9.1230   54.7050   16.1840 N.ar   84  TRP84      -0.2442
     97  CE2       -8.3410   54.5640   17.2970 C.ar   84  TRP84       0.0810
     98  CE3       -5.9970   54.6940   17.8710 C.ar   84  TRP84       0.0012
     99  CZ2       -8.6900   54.2640   18.6110 C.ar   84  TRP84       0.0191
    100  CZ3       -6.3470   54.3980   19.1700 C.ar   84  TRP84       0.0001
    101  CH2       -7.6810   54.1860   19.5300 C.ar   84  TRP84       0.0015
    102  N         -5.9520   52.0500   14.8140 N.am   85  CYS85      -0.1968
    103  CA        -6.6320   50.8540   14.3440 C.3    85  CYS85       0.1712
    104  C         -8.1210   50.9650   14.5920 C.2    85  CYS85       0.2296
    105  O         -8.5560   51.2990   15.6910 O.2    85  CYS85      -0.2864
    106  CB        -6.0870   49.6060   15.0380 C.3    85  CYS85       0.0983
    107  SG        -4.4190   49.1480   14.5400 S.3    85  CYS85      -0.0798
    108  N        -11.7320   49.0900   14.9360 N.3    87  GLY87      -0.1210
    109  CA       -12.2070   47.7830   15.3490 C.3    87  GLY87       0.1956
    110  C        -11.6330   47.3430   16.6800 C.2    87  GLY87       0.2613
    111  O        -11.2490   48.1680   17.5080 O.2    87  GLY87      -0.2717
    112  N        -11.5720   46.0330   16.8830 N.am   88  SER88      -0.1938
    113  CA       -11.1110   45.4820   18.1470 C.3    88  SER88       0.2055
    114  C         -9.9450   44.5210   17.9550 C.2    88  SER88       0.2643
    115  O         -9.5110   44.2700   16.8330 O.2    88  SER88      -0.2714
    116  CB       -12.2620   44.7770   18.8620 C.3    88  SER88       0.2130
    117  OG       -12.9090   43.8570   18.0020 O.3    88  SER88      -0.2179
    118  N         -9.4430   43.9910   19.0630 N.am   89  SER89      -0.1949
    119  CA        -8.3350   43.0460   19.0370 C.3    89  SER89       0.1924
    120  C         -8.8120   41.6680   18.5970 C.2    89  SER89       0.2314
    121  O        -10.0120   41.4190   18.5060 O.2    89  SER89      -0.2863
    122  CB        -7.6880   42.9600   20.4210 C.3    89  SER89       0.2116
    123  OG        -8.6680   42.7360   21.4200 O.3    89  SER89      -0.2180
    124  N         -4.1590   43.4110   16.5650 N.3   136  PHE136     -0.1241
    125  CA        -5.2630   44.3040   16.2450 C.3   136  PHE136      0.1605
    126  C         -5.7210   44.0740   14.8100 C.2   136  PHE136      0.2264
    127  O         -4.9010   44.0470   13.8910 O.2   136  PHE136     -0.2867
    128  CB        -4.8310   45.7610   16.4370 C.3   136  PHE136      0.0534
    129  CG        -4.1430   46.0310   17.7570 C.ar  136  PHE136     -0.0203
    130  CD1       -2.7580   46.0590   17.8440 C.ar  136  PHE136     -0.0042
    131  CD2       -4.8830   46.2740   18.9050 C.ar  136  PHE136     -0.0042
    132  CE1       -2.1250   46.3140   19.0500 C.ar  136  PHE136     -0.0003
    133  CE2       -4.2560   46.5300   20.1160 C.ar  136  PHE136     -0.0003
    134  CZ        -2.8750   46.5490   20.1870 C.ar  136  PHE136     -0.0000
    135  N          1.3750   44.4280   17.6750 N.3   146  GLY146     -0.1210
    136  CA         2.0120   45.4470   18.4900 C.3   146  GLY146      0.1956
    137  C          2.4860   44.9500   19.8450 C.2   146  GLY146      0.2612
    138  O          2.5330   43.7440   20.0920 O.2   146  GLY146     -0.2717
    139  N          2.8370   45.8930   20.7170 N.am  147  ASP147     -0.1959
    140  CA         3.3210   45.6010   22.0670 C.3   147  ASP147      0.1840
    141  C          4.5810   44.7290   22.0590 C.2   147  ASP147      0.2622
    142  O          4.6820   43.7570   22.8090 O.2   147  ASP147     -0.2715
    143  CB         2.2150   44.9720   22.9270 C.3   147  ASP147      0.1450
    144  CG         2.4890   45.0910   24.4220 C.2   147  ASP147      0.3671
    145  OD1        3.0310   44.1320   25.0130 O.co2 147  ASP147     -0.2456
    146  OD2        2.1570   46.1440   25.0080 O.co2 147  ASP147     -0.2456
    147  N          5.5380   45.0780   21.2040 N.am  148  PHE148     -0.1960
    148  CA         6.8340   44.4060   21.2010 C.3   148  PHE148      0.1771
    149  C          7.9750   45.4060   21.3800 C.2   148  PHE148      0.2620
    150  O          9.1430   45.0730   21.1880 O.2   148  PHE148     -0.2715
    151  CB         7.0320   43.5650   19.9320 C.3   148  PHE148      0.0574
    152  CG         7.1020   44.3710   18.6650 C.ar  148  PHE148     -0.0200
    153  CD1        8.3190   44.8090   18.1720 C.ar  148  PHE148     -0.0042
    154  CD2        5.9520   44.6740   17.9600 C.ar  148  PHE148     -0.0042
    155  CE1        8.3860   45.5440   17.0110 C.ar  148  PHE148     -0.0003
    156  CE2        6.0120   45.4070   16.7990 C.ar  148  PHE148     -0.0003
    157  CZ         7.2310   45.8430   16.3220 C.ar  148  PHE148     -0.0000
    158  N          7.6250   46.6320   21.7560 N.am  149  GLY149     -0.1954
    159  CA         8.6130   47.6600   22.0280 C.3   149  GLY149      0.1869
    160  C          8.4970   48.2090   23.4370 C.2   149  GLY149      0.2309
    161  O          8.8170   47.5260   24.4100 O.2   149  GLY149     -0.2863
@<TRIPOS>BOND
     1    40    41    2
     2    40    39    1
     3    87    85   am
     4    86    85    2
     5    39    38    1
     6    39    42    1
     7    85    84    1
     8    56    55    2
     9    83    84    1
    10    83    80    1
    11    42    43    1
    12    42    44    1
    13    91    90    2
    14    55    54    1
    15    47    48    2
    16    47    46    1
    17    53    54    1
    18    45    46    1
    19    80    79    1
    20    80    81    1
    21    46    49    1
    22    88    81   am
    23    88    89    1
    24   127   126    2
    25    90    89    1
    26    90   102   am
    27    54    57    1
    28    33    32    2
    29    79    74   am
    30    60    62   ar
    31    60    58   ar
    32    81    82    2
    33    57    58    1
    34   103   104    1
    35   103   102    1
    36   103   106    1
    37   107   106    1
    38   104   105    2
    39    89    92    1
    40    92    93    1
    41    62    63   ar
    42   126   125    1
    43    32    31    1
    44    58    59   ar
    45   108   109    1
    46    74    75    2
    47    74    73    1
    48    51    50    1
    49    49    50    1
    50    94    93   ar
    51    94    96   ar
    52   109   110    1
    53    93    95   ar
    54    50    52    1
    55    73    76    1
    56    73    72    1
    57    63    61   ar
    58    96    97   ar
    59    59    61   ar
    60   125   128    1
    61   125   124    1
    62    31    30    1
    63    31    34    1
    64   157   156   ar
    65   157   155   ar
    66    76    77    1
    67    76    78    1
    68   128   129    1
    69   110   112   am
    70   110   111    2
    71   156   154   ar
    72   115   114    2
    73   112   113    1
    74    95    97   ar
    75    95    98   ar
    76   155   153   ar
    77    34    35    1
    78    97    99   ar
    79    16    17    1
    80   135   136    1
    81   129   130   ar
    82   129   131   ar
    83   130   132   ar
    84    98   100   ar
    85   114   113    1
    86   114   118   am
    87   154   152   ar
    88   117   116    1
    89   113   116    1
    90   153   152   ar
    91    37    35    1
    92    35    36    1
    93   136   137    1
    94   121   120    2
    95   120   119    1
    96    99   101   ar
    97   152   151    1
    98    20    17    1
    99    17    18    1
   100   131   133   ar
   101    19    18    2
   102   119   118    1
   103   119   122    1
   104   132   134   ar
   105   100   101   ar
   106   137   138    2
   107   137   139   am
   108   151   148    1
   109    70    68    1
   110   133   134   ar
   111    66    67    2
   112    66    65    1
   113   122   123    1
   114   139   140    1
   115   150   149    2
   116   148   147    1
   117   148   149    1
   118   147   141   am
   119    65    68    1
   120    65    64    1
   121    68    69    1
   122   149   158   am
   123   158   159    1
   124    71    69    1
   125   159   160    1
   126   141   140    1
   127   141   142    2
   128   140   143    1
   129     8     6    1
   130   143   144    1
   131    21    22    1
   132     6     5    1
   133    14    13    1
   134   160   161    2
   135     7     5    1
   136    25    22    1
   137    25    26    1
   138     5     2    1
   139    22    23    1
   140   144   146   ar
   141   144   145   ar
   142    29    28    1
   143    28    27    1
   144    13    15    1
   145    13    10    1
   146    24    23    2
   147    27    26    1
   148    11    10    1
   149    11    12    2
   150    10     9    1
   151     2     1    1
   152     2     3    1
   153     3     4    2
