@<TRIPOS>MOLECULE
tmp/4fk6B00.pdb
 144 135 0 0 0
SMALL
GASTEIGER

@<TRIPOS>ATOM
      1  N         15.7030    5.1660   -9.9540 N.3    16  ARG16      -0.1231
      2  CA        14.7920    6.1780   -9.3880 C.3    16  ARG16       0.1694
      3  C         15.3200    6.7900   -8.0950 C.2    16  ARG16       0.2592
      4  O         16.2710    6.2680   -7.5140 O.2    16  ARG16      -0.2718
      5  CB        13.3400    5.6510   -9.2150 C.3    16  ARG16       0.0321
      6  CG        13.1970    4.3750   -8.3960 C.3    16  ARG16       0.0489
      7  CD        11.7290    4.0360   -8.1520 C.3    16  ARG16       0.2205
      8  NE        11.6040    3.0000   -7.1210 N.pl3  16  ARG16      -0.0865
      9  CZ        11.4200    3.2310   -5.8240 C.cat  16  ARG16       0.5346
     10  NH1       11.2920    4.4770   -5.3740 N.pl3  16  ARG16       0.1354
     11  NH2       11.3380    2.2190   -4.9700 N.pl3  16  ARG16       0.1354
     12  N         14.7300    7.9240   -7.6720 N.am   17  ASP17      -0.1960
     13  CA        15.1110    8.6140   -6.4390 C.3    17  ASP17       0.1840
     14  C         14.3620    8.0020   -5.2570 C.2    17  ASP17       0.2622
     15  O         13.1530    7.7850   -5.3430 O.2    17  ASP17      -0.2715
     16  CB        14.8090   10.1240   -6.5250 C.3    17  ASP17       0.1450
     17  CG        15.6420   10.9210   -7.5230 C.2    17  ASP17       0.3671
     18  OD1       16.8890   10.7770   -7.5160 O.co2  17  ASP17      -0.2456
     19  OD2       15.0600   11.7530   -8.2460 O.co2  17  ASP17      -0.2456
     20  N         15.0740    7.7400   -4.1570 N.am   18  LEU18      -0.1963
     21  CA        14.4790    7.1740   -2.9390 C.3    18  LEU18       0.1728
     22  C         14.1790    8.2730   -1.9100 C.2    18  LEU18       0.2616
     23  O         13.1880    8.2000   -1.1870 O.2    18  LEU18      -0.2715
     24  CB        15.3670    6.0440   -2.3470 C.3    18  LEU18       0.0311
     25  CG        15.5890    4.8030   -3.2370 C.3    18  LEU18       0.0022
     26  CD1       16.6320    3.8930   -2.6530 C.3    18  LEU18       0.0001
     27  CD2       14.2980    4.0290   -3.4650 C.3    18  LEU18       0.0001
     28  N         15.0130    9.2990   -1.8990 N.am   19  GLY19      -0.1955
     29  CA        14.8720   10.4440   -1.0090 C.3    19  GLY19       0.1869
     30  C         15.9670   11.4730   -1.2050 C.2    19  GLY19       0.2309
     31  O         17.0040   11.1710   -1.7960 O.2    19  GLY19      -0.2863
     32  N         19.4210   10.0610   -2.1170 N.3    26  VAL26      -0.1245
     33  CA        19.4460    8.6100   -2.1240 C.3    26  VAL26       0.1561
     34  C         18.7720    8.0970   -3.3850 C.2    26  VAL26       0.2260
     35  O         17.6140    8.4180   -3.6450 O.2    26  VAL26      -0.2867
     36  CB        18.8760    7.9480   -0.8420 C.3    26  VAL26       0.0252
     37  CG1       19.1520    6.4410   -0.8380 C.3    26  VAL26       0.0019
     38  CG2       19.4380    8.5980    0.4230 C.3    26  VAL26       0.0019
     39  N         20.7570    0.7810   -2.7070 N.3    43  ALA43      -0.1245
     40  CA        20.4420    2.1790   -2.4190 C.3    43  ALA43       0.1562
     41  C         21.7900    2.9090   -2.3520 C.2    43  ALA43       0.2260
     42  O         22.7430    2.4100   -1.7530 O.2    43  ALA43      -0.2867
     43  CB        19.7050    2.3060   -1.1040 C.3    43  ALA43       0.0290
     44  N         19.2250   -0.5160    8.7930 N.3    72  VAL72      -0.1245
     45  CA        19.5650   -0.8170    7.3940 C.3    72  VAL72       0.1561
     46  C         21.0620   -1.2270    7.2600 C.2    72  VAL72       0.2260
     47  O         21.9180   -0.6690    7.9530 O.2    72  VAL72      -0.2867
     48  CB        19.1300    0.3050    6.3940 C.3    72  VAL72       0.0252
     49  CG1       20.0160    1.5400    6.4940 C.3    72  VAL72       0.0019
     50  CG2       19.0830   -0.2160    4.9520 C.3    72  VAL72       0.0019
     51  N         24.0530    0.9930    0.2380 N.3    88  MET88      -0.1230
     52  CA        23.2490    0.2860    1.2110 C.3    88  MET88       0.1702
     53  C         22.3800   -0.7560    0.5360 C.2    88  MET88       0.2592
     54  O         22.1410   -0.6910   -0.6680 O.2    88  MET88      -0.2718
     55  CB        22.3400    1.2770    1.9520 C.3    88  MET88       0.0401
     56  CG        23.0790    2.2060    2.8910 C.3    88  MET88       0.0596
     57  SD        22.0230    3.6180    3.3200 S.3    88  MET88      -0.1393
     58  CE        21.9850    4.5080    1.7610 C.3    88  MET88       0.0692
     59  N         21.8590   -1.6800    1.3210 N.am   89  GLU89      -0.1966
     60  CA        20.9010   -2.6490    0.8310 C.3    89  GLU89       0.1733
     61  C         19.5940   -1.8980    0.4730 C.2    89  GLU89       0.2616
     62  O         19.2850   -0.8700    1.0790 O.2    89  GLU89      -0.2715
     63  CB        20.6400   -3.7520    1.8770 C.3    89  GLU89       0.0429
     64  CG        19.8970   -3.2900    3.1220 C.3    89  GLU89       0.1163
     65  CD        19.4230   -4.3700    4.0800 C.2    89  GLU89       0.3649
     66  OE1       19.2910   -5.5420    3.6590 O.co2  89  GLU89      -0.2457
     67  OE2       19.1580   -4.0320    5.2550 O.co2  89  GLU89      -0.2457
     68  N         18.8850   -2.3860   -0.5400 N.am   90  PHE90      -0.1960
     69  CA        17.6430   -1.7850   -1.0020 C.3    90  PHE90       0.1771
     70  C         16.4590   -2.5940   -0.5120 C.2    90  PHE90       0.2619
     71  O         16.4700   -3.8190   -0.6310 O.2    90  PHE90      -0.2715
     72  CB        17.6380   -1.6550   -2.5470 C.3    90  PHE90       0.0574
     73  CG        16.2790   -1.3530   -3.1480 C.ar   90  PHE90      -0.0200
     74  CD1       15.6470   -0.1350   -2.9080 C.ar   90  PHE90      -0.0042
     75  CD2       15.6340   -2.2860   -3.9570 C.ar   90  PHE90      -0.0042
     76  CE1       14.3800    0.1330   -3.4420 C.ar   90  PHE90      -0.0003
     77  CE2       14.3860   -1.9980   -4.5270 C.ar   90  PHE90      -0.0003
     78  CZ        13.7660   -0.7930   -4.2620 C.ar   90  PHE90      -0.0000
     79  N         15.4400   -1.9260    0.0410 N.am   91  LEU91      -0.1977
     80  CA        14.2540   -2.6110    0.5680 C.3    91  LEU91       0.1596
     81  C         13.0810   -2.2600   -0.3010 C.2    91  LEU91       0.2287
     82  O         12.5930   -1.1330   -0.2140 O.2    91  LEU91      -0.2864
     83  CB        14.0010   -2.2850    2.0670 C.3    91  LEU91       0.0297
     84  CG        14.7570   -3.1360    3.1030 C.3    91  LEU91       0.0022
     85  CD1       16.2840   -3.0800    2.9040 C.3    91  LEU91       0.0001
     86  CD2       14.4600   -2.6550    4.5150 C.3    91  LEU91       0.0001
     87  N          9.8740   -0.1570    0.5250 N.3    94  GLY94      -0.1210
     88  CA        10.0390    1.2670    0.8130 C.3    94  GLY94       0.1956
     89  C          9.8860    1.5860    2.2850 C.2    94  GLY94       0.2612
     90  O         10.1270    0.7290    3.1390 O.2    94  GLY94      -0.2717
     91  N          9.5230    2.8280    2.5970 N.am   95  SER95      -0.1952
     92  CA         9.3400    3.2300    3.9870 C.3    95  SER95       0.1924
     93  C          7.8700    3.0130    4.4440 C.2    95  SER95       0.2314
     94  O          7.0180    2.6630    3.6280 O.2    95  SER95      -0.2863
     95  CB         9.7420    4.6880    4.1750 C.3    95  SER95       0.2116
     96  OG         8.7440    5.5730    3.6990 O.3    95  SER95      -0.2180
     97  N          5.0630    4.7650    2.4340 N.3    98  GLU98      -0.1245
     98  CA         4.5510    4.1550    1.2100 C.3    98  GLU98       0.1567
     99  C          3.8220    2.8640    1.5490 C.2    98  GLU98       0.2260
    100  O          2.7490    2.5900    1.0020 O.2    98  GLU98      -0.2867
    101  CB         5.7070    3.8250    0.2400 C.3    98  GLU98       0.0388
    102  CG         6.3980    5.0280   -0.3670 C.3    98  GLU98       0.1160
    103  CD         7.3980    5.7460    0.5220 C.2    98  GLU98       0.3649
    104  OE1        8.3130    5.0860    1.0700 O.co2  98  GLU98      -0.2457
    105  OE2        7.2850    6.9860    0.6360 O.co2  98  GLU98      -0.2457
    106  N          8.9650    8.2280    7.4120 N.3   139  ARG139     -0.1231
    107  CA         9.6100    8.2790    6.0890 C.3   139  ARG139      0.1694
    108  C         11.0540    7.6730    6.1770 C.2   139  ARG139      0.2592
    109  O         11.5980    7.2660    5.1510 O.2   139  ARG139     -0.2718
    110  CB         9.6620    9.7330    5.5450 C.3   139  ARG139      0.0321
    111  CG        10.5940   10.6520    6.3470 C.3   139  ARG139      0.0489
    112  CD        10.7340   12.0950    5.8580 C.3   139  ARG139      0.2205
    113  NE        10.9940   12.9590    7.0200 N.pl3 139  ARG139     -0.0865
    114  CZ        12.2020   13.2870    7.4850 C.cat 139  ARG139      0.5346
    115  NH1       13.2990   12.9040    6.8400 N.pl3 139  ARG139      0.1354
    116  NH2       12.3190   14.0240    8.5810 N.pl3 139  ARG139      0.1354
    117  N         11.6330    7.5790    7.3950 N.am  140  ASN140     -0.1974
    118  CA        12.9770    6.9900    7.5500 C.3   140  ASN140      0.1688
    119  C         12.9320    5.5920    8.0870 C.2   140  ASN140      0.2292
    120  O         13.9830    5.0190    8.3640 O.2   140  ASN140     -0.2864
    121  CB        13.9000    7.8780    8.3970 C.3   140  ASN140      0.1181
    122  CG        14.3080    9.1260    7.6870 C.2   140  ASN140      0.2629
    123  OD1       14.4750    9.1540    6.4600 O.2   140  ASN140     -0.2716
    124  ND2       14.4430   10.1960    8.4440 N.am  140  ASN140     -0.0877
    125  N         12.1250    1.9270    7.1420 N.3   142  LEU142     -0.1245
    126  CA        11.9790    1.0260    6.0030 C.3   142  LEU142      0.1561
    127  C         11.2950   -0.2630    6.3520 C.2   142  LEU142      0.2260
    128  O         11.4530   -0.7550    7.4540 O.2   142  LEU142     -0.2867
    129  CB        13.3580    0.7180    5.3700 C.3   142  LEU142      0.0270
    130  CG        14.2060    1.9150    4.9460 C.3   142  LEU142      0.0019
    131  CD1       15.5390    1.4450    4.3570 C.3   142  LEU142      0.0001
    132  CD2       13.4350    2.8220    3.9810 C.3   142  LEU142      0.0001
    133  N         16.3590    3.5090    8.2550 N.3   152  GLY152     -0.1210
    134  CA        17.0330    3.5500    6.9610 C.3   152  GLY152      0.1956
    135  C         17.8350    4.7530    6.5480 C.2   152  GLY152      0.2611
    136  O         18.3250    4.7920    5.4170 O.2   152  GLY152     -0.2717
    137  N         17.9540    5.7480    7.4240 N.am  153  ASP153     -0.1973
    138  CA        18.7130    6.9420    7.0920 C.3   153  ASP153      0.1709
    139  C         19.3530    7.5020    8.3110 C.2   153  ASP153      0.2293
    140  O         18.7300    7.5700    9.3600 O.2   153  ASP153     -0.2864
    141  CB        17.8780    8.0100    6.3570 C.3   153  ASP153      0.1436
    142  CG        18.7920    9.0330    5.7070 C.2   153  ASP153      0.3671
    143  OD1       19.3470    8.7320    4.6220 O.co2 153  ASP153     -0.2456
    144  OD2       19.0320   10.0900    6.3260 O.co2 153  ASP153     -0.2456
@<TRIPOS>BOND
     1     1     2    1
     2     2     5    1
     3     2     3    1
     4     5     6    1
     5     6     7    1
     6    19    17   ar
     7     7     8    1
     8     3    12   am
     9     3     4    2
    10    12    13    1
    11    17    18   ar
    12    17    16    1
    13     8     9    2
    14    16    13    1
    15    13    14    1
    16     9    10    1
    17     9    11    1
    18    15    14    2
    19    14    20   am
    20    77    78   ar
    21    77    75   ar
    22    78    76   ar
    23    20    21    1
    24    75    73   ar
    25    35    34    2
    26    27    25    1
    27    76    74   ar
    28    34    33    1
    29    25    26    1
    30    25    24    1
    31    73    74   ar
    32    73    72    1
    33    21    24    1
    34    21    22    1
    35    39    40    1
    36    72    69    1
    37    40    41    1
    38    40    43    1
    39    41    42    2
    40    33    32    1
    41    33    36    1
    42    22    28   am
    43    22    23    2
    44    28    29    1
    45    31    30    2
    46    30    29    1
    47    69    68    1
    48    69    70    1
    49    36    37    1
    50    36    38    1
    51    54    53    2
    52    71    70    2
    53    68    61   am
    54    70    79   am
    55   102   101    1
    56   102   103    1
    57    81    82    2
    58    81    80    1
    59    79    80    1
    60    51    52    1
    61   101    98    1
    62    61    60    1
    63    61    62    2
    64   103   105   ar
    65   103   104   ar
    66    87    88    1
    67    53    52    1
    68    53    59   am
    69    80    83    1
    70    88    89    1
    71    60    59    1
    72    60    63    1
    73   100    99    2
    74    98    99    1
    75    98    97    1
    76    52    55    1
    77    58    57    1
    78    63    64    1
    79    55    56    1
    80    83    84    1
    81    89    91   am
    82    89    90    2
    83    91    92    1
    84    56    57    1
    85    85    84    1
    86    84    86    1
    87    64    65    1
    88    94    93    2
    89    66    65   ar
    90    96    95    1
    91   132   130    1
    92    92    95    1
    93    92    93    1
    94    65    67   ar
    95   131   130    1
    96   143   142   ar
    97   130   129    1
    98    50    48    1
    99   109   108    2
   100   129   126    1
   101   136   135    2
   102   110   107    1
   103   110   111    1
   104   142   144   ar
   105   142   141    1
   106   112   111    1
   107   112   113    1
   108   126   127    1
   109   126   125    1
   110   107   108    1
   111   107   106    1
   112   108   117   am
   113   127   128    2
   114   141   138    1
   115    48    49    1
   116    48    45    1
   117   123   122    2
   118   135   134    1
   119   135   137   am
   120   115   114    1
   121   134   133    1
   122   113   114    2
   123   138   137    1
   124   138   139    1
   125    46    45    1
   126    46    47    2
   127    45    44    1
   128   117   118    1
   129   114   116    1
   130   118   119    1
   131   118   121    1
   132   122   121    1
   133   122   124   am
   134   119   120    2
   135   139   140    2
