@<TRIPOS>MOLECULE
tmp/4fk7A00.pdb
 122 118 0 0 0
SMALL
GASTEIGER

@<TRIPOS>ATOM
      1  N         -2.2880   -1.6590   -0.1690 N.3    38  TYR38      -0.1241
      2  CA        -1.8010   -1.2590   -1.4810 C.3    38  TYR38       0.1605
      3  C         -2.5380   -2.0150   -2.5840 C.2    38  TYR38       0.2264
      4  O         -2.9280   -1.4010   -3.6090 O.2    38  TYR38      -0.2867
      5  CB        -0.2830   -1.5050   -1.5670 C.3    38  TYR38       0.0534
      6  CG         0.2580   -1.4600   -2.9670 C.ar   38  TYR38      -0.0201
      7  CD1        0.5920   -0.2660   -3.5630 C.ar   38  TYR38      -0.0009
      8  CD2        0.3910   -2.6010   -3.7030 C.ar   38  TYR38      -0.0009
      9  CE1        1.0820   -0.2210   -4.8860 C.ar   38  TYR38       0.0417
     10  CE2        0.8880   -2.5720   -5.0210 C.ar   38  TYR38       0.0417
     11  CZ         1.2160   -1.3760   -5.5980 C.ar   38  TYR38       0.1957
     12  OH         1.6720   -1.3340   -6.9090 O.3    38  TYR38      -0.2866
     13  N         -2.1220    4.9070   -6.5020 N.3    44  ASP44      -0.1239
     14  CA        -0.7160    4.5740   -6.3220 C.3    44  ASP44       0.1674
     15  C         -0.1050    5.5920   -5.3580 C.2    44  ASP44       0.2266
     16  O         -0.1290    6.7930   -5.6500 O.2    44  ASP44      -0.2867
     17  CB         0.0060    4.6200   -7.6760 C.3    44  ASP44       0.1410
     18  CG        -0.5860    3.6460   -8.6920 C.2    44  ASP44       0.3668
     19  OD1       -0.5060    2.4210   -8.4550 O.co2  44  ASP44      -0.2456
     20  OD2       -1.1410    4.1030   -9.7230 O.co2  44  ASP44      -0.2456
     21  N          4.8890  -10.4090  -15.8800 N.3    81  TYR81      -0.1227
     22  CA         3.9330   -9.9490  -16.8890 C.3    81  TYR81       0.1736
     23  C          3.1210   -8.8150  -16.3460 C.2    81  TYR81       0.2595
     24  O          2.7120   -8.8200  -15.1740 O.2    81  TYR81      -0.2718
     25  CB         2.9960  -11.0950  -17.2150 C.3    81  TYR81       0.0548
     26  CG         3.7220  -12.2610  -17.8240 C.ar   81  TYR81      -0.0200
     27  CD1        4.1870  -13.3320  -17.0620 C.ar   81  TYR81      -0.0009
     28  CD2        4.0020  -12.2760  -19.2060 C.ar   81  TYR81      -0.0009
     29  CE1        4.8560  -14.4010  -17.6780 C.ar   81  TYR81       0.0417
     30  CE2        4.6490  -13.3230  -19.7810 C.ar   81  TYR81       0.0417
     31  CZ         5.0650  -14.3950  -19.0300 C.ar   81  TYR81       0.1957
     32  OH         5.7220  -15.4510  -19.6590 O.3    81  TYR81      -0.2866
     33  N          2.9120   -7.7950  -17.1710 N.am   82  ARG82      -0.1966
     34  CA         2.1200   -6.6600  -16.7340 C.3    82  ARG82       0.1729
     35  C          1.3360   -6.0880  -17.8880 C.2    82  ARG82       0.2616
     36  O          1.9220   -5.6250  -18.8620 O.2    82  ARG82      -0.2715
     37  CB         3.0720   -5.6030  -16.1450 C.3    82  ARG82       0.0348
     38  CG         2.4740   -4.3270  -15.6620 C.3    82  ARG82       0.0492
     39  CD         3.5540   -3.4110  -15.0560 C.3    82  ARG82       0.2205
     40  NE         3.1380   -1.9930  -15.0360 N.pl3  82  ARG82      -0.0865
     41  CZ         2.3860   -1.4130  -14.1000 C.cat  82  ARG82       0.5346
     42  NH1        1.8880   -2.1180  -13.0750 N.pl3  82  ARG82       0.1354
     43  NH2        2.0880   -0.1110  -14.1760 N.pl3  82  ARG82       0.1354
     44  N          0.0160   -6.1070  -17.7580 N.am   83  ARG83      -0.1963
     45  CA        -0.8880   -5.5100  -18.7420 C.3    83  ARG83       0.1729
     46  C         -1.0260   -4.0010  -18.4700 C.2    83  ARG83       0.2616
     47  O         -1.2080   -3.5600  -17.3220 O.2    83  ARG83      -0.2715
     48  CB        -2.2350   -6.1600  -18.6410 C.3    83  ARG83       0.0348
     49  CG        -2.2880   -7.5250  -19.3010 C.3    83  ARG83       0.0492
     50  CD        -2.5550   -7.4110  -20.7780 C.3    83  ARG83       0.2205
     51  NE        -2.4250   -8.6540  -21.4490 N.pl3  83  ARG83      -0.0865
     52  CZ        -2.5940   -8.8050  -22.7600 C.cat  83  ARG83       0.5346
     53  NH1       -2.7730   -7.7310  -23.5300 N.pl3  83  ARG83       0.1354
     54  NH2       -2.4620  -10.0110  -23.2990 N.pl3  83  ARG83       0.1354
     55  N         -0.9370   -3.2030  -19.5490 N.am   84  VAL84      -0.1977
     56  CA        -1.0790   -1.7580  -19.4520 C.3    84  VAL84       0.1596
     57  C         -1.8000   -1.2140  -20.7100 C.2    84  VAL84       0.2287
     58  O         -1.9720   -1.9130  -21.7020 O.2    84  VAL84      -0.2864
     59  CB         0.3160   -1.0540  -19.3600 C.3    84  VAL84       0.0276
     60  CG1        1.0680   -1.4740  -18.0960 C.3    84  VAL84       0.0022
     61  CG2        1.1640   -1.3900  -20.5950 C.3    84  VAL84       0.0022
     62  N          3.3830   -3.2550   -9.9390 N.3   128  SER128     -0.1202
     63  CA         2.6340   -4.4880   -9.7780 C.3   128  SER128      0.2020
     64  C          2.7650   -5.3190  -11.0460 C.2   128  SER128      0.2619
     65  O          2.5430   -4.7980  -12.1500 O.2   128  SER128     -0.2717
     66  CB         1.1630   -4.1870   -9.4700 C.3   128  SER128      0.2103
     67  OG         1.0470   -3.6940   -8.1300 O.3   128  SER128     -0.2182
     68  N          3.0940   -6.5930  -10.9060 N.am  129  THR129     -0.1938
     69  CA         3.2290   -7.5260  -12.0370 C.3   129  THR129      0.2028
     70  C          2.6690   -8.8720  -11.6450 C.2   129  THR129      0.2642
     71  O          2.4250   -9.1140  -10.4570 O.2   129  THR129     -0.2714
     72  CB         4.6860   -7.7650  -12.4770 C.3   129  THR129      0.1808
     73  OG1        5.3790   -8.5500  -11.4760 O.3   129  THR129     -0.2208
     74  CG2        5.4110   -6.4670  -12.6890 C.3   129  THR129      0.0379
     75  N          2.4330   -9.7260  -12.6200 N.am  130  SER130     -0.1949
     76  CA         1.9870  -11.0870  -12.3310 C.3   130  SER130      0.1924
     77  C          3.0800  -12.0850  -12.6500 C.2   130  SER130      0.2314
     78  O          3.7920  -11.9690  -13.6320 O.2   130  SER130     -0.2863
     79  CB         0.7510  -11.4870  -13.1520 C.3   130  SER130      0.2116
     80  OG        -0.3840  -10.6560  -12.8850 O.3   130  SER130     -0.2180
     81  N         -7.0250   -7.4060  -15.1040 N.3   139  TYR139     -0.1241
     82  CA        -5.9240   -7.0070  -15.9970 C.3   139  TYR139      0.1605
     83  C         -5.8340   -7.9640  -17.1740 C.2   139  TYR139      0.2264
     84  O         -4.9760   -8.8440  -17.2260 O.2   139  TYR139     -0.2867
     85  CB        -4.6020   -6.8750  -15.2280 C.3   139  TYR139      0.0534
     86  CG        -4.6370   -5.6750  -14.3380 C.ar  139  TYR139     -0.0201
     87  CD1       -4.9110   -5.7960  -12.9990 C.ar  139  TYR139     -0.0009
     88  CD2       -4.4920   -4.3900  -14.8680 C.ar  139  TYR139     -0.0009
     89  CE1       -4.9920   -4.6850  -12.1730 C.ar  139  TYR139      0.0417
     90  CE2       -4.5790   -3.2690  -14.0620 C.ar  139  TYR139      0.0417
     91  CZ        -4.8270   -3.4310  -12.7140 C.ar  139  TYR139      0.1957
     92  OH        -4.9170   -2.3770  -11.9010 O.3   139  TYR139     -0.2866
     93  N         -6.7540   -4.3060  -22.0610 N.3   144  TYR144     -0.1241
     94  CA        -5.4220   -3.7450  -22.2140 C.3   144  TYR144      0.1605
     95  C         -4.6810   -4.2830  -23.4340 C.2   144  TYR144      0.2264
     96  O         -4.4970   -5.4820  -23.5840 O.2   144  TYR144     -0.2867
     97  CB        -4.6360   -4.0450  -20.9220 C.3   144  TYR144      0.0534
     98  CG        -5.1820   -3.3580  -19.6720 C.ar  144  TYR144     -0.0201
     99  CD1       -5.8810   -4.0610  -18.7090 C.ar  144  TYR144     -0.0009
    100  CD2       -4.9950   -2.0060  -19.4670 C.ar  144  TYR144     -0.0009
    101  CE1       -6.3710   -3.4240  -17.5760 C.ar  144  TYR144      0.0417
    102  CE2       -5.4750   -1.3530  -18.3310 C.ar  144  TYR144      0.0417
    103  CZ        -6.1890   -2.0650  -17.3990 C.ar  144  TYR144      0.1957
    104  OH        -6.6620   -1.4690  -16.2590 O.3   144  TYR144     -0.2866
    105  N         -4.4560  -12.3970   -8.9310 N.3   170  GLN170     -0.1245
    106  CA        -3.5190  -11.6140   -9.7660 C.3   170  GLN170      0.1566
    107  C         -2.0810  -12.2140   -9.7460 C.2   170  GLN170      0.2260
    108  O         -1.2350  -11.8070  -10.5260 O.2   170  GLN170     -0.2867
    109  CB        -3.4920  -10.1600   -9.3350 C.3   170  GLN170      0.0367
    110  CG        -4.7730   -9.4170   -9.6920 C.3   170  GLN170      0.0905
    111  CD        -4.9150   -8.0550   -9.0640 C.2   170  GLN170      0.2608
    112  OE1       -4.2690   -7.7140   -8.0570 O.2   170  GLN170     -0.2717
    113  NE2       -5.8500   -7.2410   -9.6390 N.am  170  GLN170     -0.0878
    114  N          0.4650  -11.8010   -7.7960 N.3   172  GLU172     -0.1245
    115  CA         1.2600  -10.6070   -7.8470 C.3   172  GLU172      0.1567
    116  C          2.6800  -10.7320   -7.3270 C.2   172  GLU172      0.2260
    117  O          2.8880  -11.1300   -6.1630 O.2   172  GLU172     -0.2867
    118  CB         0.5700   -9.4570   -7.1320 C.3   172  GLU172      0.0388
    119  CG         1.3480   -8.1450   -7.3380 C.3   172  GLU172      0.1160
    120  CD         0.6700   -6.8680   -6.8700 C.2   172  GLU172      0.3649
    121  OE1       -0.5450   -6.7940   -6.5990 O.co2 172  GLU172     -0.2457
    122  OE2        1.4280   -5.8730   -6.7800 O.co2 172  GLU172     -0.2457
@<TRIPOS>BOND
     1    96    95    2
     2    53    52    1
     3    95    94    1
     4    54    52    1
     5    52    51    2
     6    94    93    1
     7    94    97    1
     8    58    57    2
     9    51    50    1
    10    97    98    1
    11    50    49    1
    12    57    56    1
    13    61    59    1
    14    30    28   ar
    15    30    31   ar
    16    98   100   ar
    17    98    99   ar
    18    32    31    1
    19    55    56    1
    20    55    46   am
    21   100   102   ar
    22    56    59    1
    23    59    60    1
    24    49    48    1
    25    28    26   ar
    26    31    29   ar
    27    36    35    2
    28    45    48    1
    29    45    46    1
    30    45    44    1
    31    99   101   ar
    32    46    47    2
    33   102   103   ar
    34    35    44   am
    35    35    34    1
    36    26    25    1
    37    26    27   ar
    38    29    27   ar
    39   101   103   ar
    40   103   104    1
    41    84    83    2
    42    25    22    1
    43    83    82    1
    44    33    34    1
    45    33    23   am
    46    22    23    1
    47    22    21    1
    48    34    37    1
    49    23    24    2
    50    37    38    1
    51    82    85    1
    52    82    81    1
    53    38    39    1
    54    85    86    1
    55    39    40    1
    56    40    41    2
    57    88    86   ar
    58    88    90   ar
    59    86    87   ar
    60    43    41    1
    61    41    42    1
    62    90    91   ar
    63    78    77    2
    64    79    80    1
    65    79    76    1
    66    87    89   ar
    67    91    89   ar
    68    91    92    1
    69    74    72    1
    70    77    76    1
    71    75    76    1
    72    75    70   am
    73    72    69    1
    74    72    73    1
    75    65    64    2
    76    69    70    1
    77    69    68    1
    78    70    71    2
    79    64    68   am
    80    64    63    1
    81   108   107    2
    82    62    63    1
    83    63    66    1
    84   106   107    1
    85   106   109    1
    86   106   105    1
    87    20    18   ar
    88   110   109    1
    89   110   111    1
    90   113   111   am
    91    66    67    1
    92   111   112    2
    93    18    19   ar
    94    18    17    1
    95   115   114    1
    96   115   116    1
    97   115   118    1
    98    17    14    1
    99   119   118    1
   100   119   120    1
   101   116   117    2
   102    12    11    1
   103   120   122   ar
   104   120   121   ar
   105    13    14    1
   106    14    15    1
   107    16    15    2
   108    11    10   ar
   109    11     9   ar
   110    10     8   ar
   111     9     7   ar
   112     8     6   ar
   113     4     3    2
   114     7     6   ar
   115     6     5    1
   116     3     2    1
   117     5     2    1
   118     2     1    1
