@<TRIPOS>MOLECULE
tmp/4fk8A00.pdb
 179 175 0 0 0
SMALL
GASTEIGER

@<TRIPOS>ATOM
      1  N        -16.0460  -11.2820   17.4230 N.3    35  PHE35      -0.1241
      2  CA       -16.4320  -10.9860   18.8000 C.3    35  PHE35       0.1605
      3  C        -16.8250  -12.2670   19.5420 C.2    35  PHE35       0.2264
      4  O        -17.1190  -13.2990   18.9140 O.2    35  PHE35      -0.2867
      5  CB       -17.5590   -9.9350   18.8620 C.3    35  PHE35       0.0534
      6  CG       -18.9220  -10.4380   18.4430 C.ar   35  PHE35      -0.0203
      7  CD1      -19.7650  -11.0580   19.3600 C.ar   35  PHE35      -0.0042
      8  CD2      -19.3800  -10.2510   17.1350 C.ar   35  PHE35      -0.0042
      9  CE1      -21.0400  -11.5080   18.9820 C.ar   35  PHE35      -0.0003
     10  CE2      -20.6530  -10.6780   16.7500 C.ar   35  PHE35      -0.0003
     11  CZ       -21.4790  -11.3060   17.6770 C.ar   35  PHE35      -0.0000
     12  N        -22.3730   -9.7320   27.5770 N.3    49  ARG49      -0.1231
     13  CA       -22.4910   -8.8330   26.4490 C.3    49  ARG49       0.1694
     14  C        -21.4700   -9.2380   25.3830 C.2    49  ARG49       0.2592
     15  O        -20.4170   -9.8230   25.6980 O.2    49  ARG49      -0.2718
     16  CB       -22.2220   -7.3710   26.8830 C.3    49  ARG49       0.0321
     17  CG       -23.1760   -6.7850   27.9250 C.3    49  ARG49       0.0489
     18  CD       -24.6220   -6.6720   27.4150 C.3    49  ARG49       0.2205
     19  NE       -25.5010   -5.9950   28.3780 N.pl3  49  ARG49      -0.0865
     20  CZ       -26.4030   -6.5920   29.1660 C.cat  49  ARG49       0.5346
     21  NH1      -27.1380   -5.8690   30.0000 N.pl3  49  ARG49       0.1354
     22  NH2      -26.5870   -7.8990   29.1240 N.pl3  49  ARG49       0.1354
     23  N        -21.7750   -8.8970   24.1320 N.am   50  ALA50      -0.1966
     24  CA       -20.8430   -9.0680   23.0130 C.3    50  ALA50       0.1728
     25  C        -19.6700   -8.1150   23.1660 C.2    50  ALA50       0.2616
     26  O        -19.8800   -6.9390   23.5080 O.2    50  ALA50      -0.2715
     27  CB       -21.5750   -8.8080   21.6980 C.3    50  ALA50       0.0334
     28  N        -18.4460   -8.6280   22.9460 N.am   51  TYR51      -0.1960
     29  CA       -17.2240   -7.8050   22.9300 C.3    51  TYR51       0.1771
     30  C        -16.3120   -8.2440   21.8160 C.2    51  TYR51       0.2620
     31  O        -16.0760   -9.4380   21.6720 O.2    51  TYR51      -0.2715
     32  CB       -16.4190   -7.9810   24.2170 C.3    51  TYR51       0.0574
     33  CG       -16.8940   -7.0730   25.2870 C.ar   51  TYR51      -0.0198
     34  CD1      -17.9130   -7.4570   26.1610 C.ar   51  TYR51      -0.0009
     35  CD2      -16.3650   -5.7960   25.3970 C.ar   51  TYR51      -0.0009
     36  CE1      -18.3650   -6.5820   27.1440 C.ar   51  TYR51       0.0417
     37  CE2      -16.8230   -4.9160   26.3600 C.ar   51  TYR51       0.0417
     38  CZ       -17.8040   -5.3200   27.2290 C.ar   51  TYR51       0.1957
     39  OH       -18.2170   -4.4330   28.1800 O.3    51  TYR51      -0.2866
     40  N        -15.7800   -7.2920   21.0650 N.am   52  SER52      -0.1950
     41  CA       -14.7780   -7.6230   20.0480 C.3    52  SER52       0.1924
     42  C        -13.5290   -8.1050   20.7600 C.2    52  SER52       0.2314
     43  O        -13.1670   -7.5670   21.8070 O.2    52  SER52      -0.2863
     44  CB       -14.4130   -6.3950   19.1910 C.3    52  SER52       0.2116
     45  OG       -15.5640   -5.9380   18.4990 O.3    52  SER52      -0.2180
     46  N        -11.5370   -4.4410   25.4400 N.3    65  PHE65      -0.1227
     47  CA       -11.5490   -2.9980   25.6520 C.3    65  PHE65       0.1736
     48  C        -13.0090   -2.6350   25.8900 C.2    65  PHE65       0.2596
     49  O        -13.8630   -2.9370   25.0480 O.2    65  PHE65      -0.2718
     50  CB       -11.0600   -2.3410   24.3380 C.3    65  PHE65       0.0547
     51  CG       -11.0530   -0.8430   24.3200 C.ar   65  PHE65      -0.0202
     52  CD1      -10.2610   -0.1050   25.2080 C.ar   65  PHE65      -0.0042
     53  CD2      -11.7670   -0.1500   23.3250 C.ar   65  PHE65      -0.0042
     54  CE1      -10.2080    1.2920   25.1410 C.ar   65  PHE65      -0.0003
     55  CE2      -11.7130    1.2330   23.2520 C.ar   65  PHE65      -0.0003
     56  CZ       -10.9290    1.9560   24.1490 C.ar   65  PHE65      -0.0000
     57  N        -13.2860   -1.9480   26.9920 N.am   66  SER66      -0.1938
     58  CA       -14.6430   -1.6800   27.4070 C.3    66  SER66       0.2055
     59  C        -14.9230   -0.2190   27.7430 C.2    66  SER66       0.2642
     60  O        -14.1120    0.4690   28.3840 O.2    66  SER66      -0.2714
     61  CB       -14.9360   -2.5100   28.6570 C.3    66  SER66       0.2130
     62  OG       -16.3170   -2.4980   28.9780 O.3    66  SER66      -0.2179
     63  N        -16.1110    0.2140   27.3390 N.am   67  ILE67      -0.1977
     64  CA       -16.7690    1.4340   27.8370 C.3    67  ILE67       0.1596
     65  C        -17.2080    1.1810   29.2740 C.2    67  ILE67       0.2287
     66  O        -17.3640   -0.0020   29.7030 O.2    67  ILE67      -0.2864
     67  CB       -18.0430    1.6700   27.0000 C.3    67  ILE67       0.0276
     68  CG1      -18.6250    3.0830   27.1870 C.3    67  ILE67       0.0022
     69  CG2      -19.0420    0.5270   27.2300 C.3    67  ILE67       0.0022
     70  CD1      -17.7350    4.1980   26.6600 C.3    67  ILE67       0.0001
     71  N        -20.4120    2.2820   31.0680 N.3    69  VAL69      -0.1245
     72  CA       -21.7140    2.9520   30.9680 C.3    69  VAL69       0.1561
     73  C        -22.2810    3.1820   32.3690 C.2    69  VAL69       0.2260
     74  O        -22.3130    2.2590   33.2060 O.2    69  VAL69      -0.2867
     75  CB       -22.6980    2.1580   30.0890 C.3    69  VAL69       0.0252
     76  CG1      -24.1420    2.6040   30.3550 C.3    69  VAL69       0.0019
     77  CG2      -22.3270    2.3220   28.6180 C.3    69  VAL69       0.0019
     78  N        -25.0060    0.9260   33.3850 N.3    72  GLY72      -0.1210
     79  CA       -24.8760   -0.2490   32.5230 C.3    72  GLY72       0.1940
     80  C        -24.7830   -1.5120   33.3480 C.2    72  GLY72       0.2454
     81  O        -23.8280   -1.6850   34.0990 O.2    72  GLY72      -0.2732
     82  N        -25.7630   -2.4130   33.2100 N.am   73  PRO73      -0.2717
     83  CA       -25.7340   -3.6110   34.0350 C.3    73  PRO73       0.1535
     84  C        -24.3410   -4.2730   34.0520 C.2    73  PRO73       0.2598
     85  O        -23.8120   -4.5280   35.1390 O.2    73  PRO73      -0.2715
     86  CB       -26.7660   -4.5210   33.3580 C.3    73  PRO73       0.0310
     87  CG       -27.7510   -3.5650   32.7740 C.3    73  PRO73       0.0237
     88  CD       -26.9050   -2.4160   32.2790 C.3    73  PRO73       0.0939
     89  N        -23.7410   -4.5220   32.8820 N.am   74  LEU74      -0.1964
     90  CA       -22.4660   -5.2490   32.8720 C.3    74  LEU74       0.1728
     91  C        -21.2780   -4.3730   33.1950 C.2    74  LEU74       0.2616
     92  O        -20.4850   -4.7320   34.0710 O.2    74  LEU74      -0.2715
     93  CB       -22.2080   -6.0270   31.5710 C.3    74  LEU74       0.0311
     94  CG       -20.8360   -6.7460   31.5090 C.3    74  LEU74       0.0022
     95  CD1      -20.6560   -7.7680   32.6500 C.3    74  LEU74       0.0001
     96  CD2      -20.6490   -7.4470   30.1690 C.3    74  LEU74       0.0001
     97  N        -21.1360   -3.2560   32.4820 N.am   75  THR75      -0.1951
     98  CA       -19.9340   -2.4500   32.6190 C.3    75  THR75       0.1897
     99  C        -19.7970   -1.7270   33.9690 C.2    75  THR75       0.2313
    100  O        -18.6730   -1.4230   34.3860 O.2    75  THR75      -0.2863
    101  CB       -19.7160   -1.4770   31.4400 C.3    75  THR75       0.1794
    102  OG1      -20.8040   -0.5590   31.3430 O.3    75  THR75      -0.2208
    103  CG2      -19.6130   -2.2670   30.1520 C.3    75  THR75       0.0378
    104  N        -16.5000    5.4690   18.1980 N.3   114  GLY114     -0.1210
    105  CA       -16.4700    5.0170   19.5960 C.3   114  GLY114      0.1956
    106  C        -15.5700    3.7990   19.8190 C.2   114  GLY114      0.2612
    107  O        -14.4860    3.6910   19.2490 O.2   114  GLY114     -0.2717
    108  N        -16.0350    2.8820   20.6540 N.am  115  THR115     -0.1952
    109  CA       -15.3410    1.6240   20.9270 C.3   115  THR115      0.1897
    110  C        -15.3080    0.6900   19.7160 C.2   115  THR115      0.2313
    111  O        -14.7080   -0.3880   19.7820 O.2   115  THR115     -0.2863
    112  CB       -15.9920    0.9020   22.1390 C.3   115  THR115      0.1794
    113  OG1      -17.3970    0.7690   21.9110 O.3   115  THR115     -0.2208
    114  CG2      -15.7960    1.7260   23.4240 C.3   115  THR115      0.0378
    115  N        -12.3680   -1.2820   18.4240 N.3   118  ALA118     -0.1245
    116  CA       -11.9200   -2.5250   19.0900 C.3   118  ALA118      0.1562
    117  C        -11.5580   -3.6870   18.1360 C.2   118  ALA118      0.2260
    118  O        -10.4400   -4.2050   18.2250 O.2   118  ALA118     -0.2867
    119  CB       -12.9200   -2.9630   20.1700 C.3   118  ALA118      0.0290
    120  N        -19.7550   12.0910   16.2530 N.3   179  GLU179     -0.1245
    121  CA       -19.1600   10.7740   16.0620 C.3   179  GLU179      0.1567
    122  C        -19.5320   10.2010   14.6900 C.2   179  GLU179      0.2260
    123  O        -18.8350    9.3330   14.1760 O.2   179  GLU179     -0.2867
    124  CB       -19.5360    9.8150   17.2050 C.3   179  GLU179      0.0388
    125  CG       -18.8910   10.1000   18.5460 C.3   179  GLU179      0.1160
    126  CD       -19.3140    9.0570   19.5820 C.2   179  GLU179      0.3649
    127  OE1      -19.7860    7.9360   19.2980 O.co2 179  GLU179     -0.2457
    128  OE2      -19.2680    9.3280   20.8050 O.co2 179  GLU179     -0.2457
    129  N        -20.7120   -4.1450   11.1900 N.3   242  GLU242     -0.1231
    130  CA       -21.0520   -4.6910   12.4920 C.3   242  GLU242      0.1699
    131  C        -21.3180   -3.5030   13.4090 C.2   242  GLU242      0.2592
    132  O        -20.5520   -2.5480   13.4160 O.2   242  GLU242     -0.2718
    133  CB       -19.8890   -5.5390   13.0120 C.3   242  GLU242      0.0402
    134  CG       -20.1400   -6.2090   14.3550 C.3   242  GLU242      0.1161
    135  CD       -19.0160   -7.1500   14.7490 C.2   242  GLU242      0.3649
    136  OE1      -19.0120   -8.3000   14.2500 O.co2 242  GLU242     -0.2457
    137  OE2      -18.1470   -6.7560   15.5790 O.co2 242  GLU242     -0.2457
    138  N        -22.4050   -3.5680   14.1800 N.am  243  ARG243     -0.1966
    139  CA       -22.6950   -2.5500   15.1840 C.3   243  ARG243      0.1729
    140  C        -21.6640   -2.5790   16.3360 C.2   243  ARG243      0.2616
    141  O        -21.3190   -3.6550   16.8500 O.2   243  ARG243     -0.2715
    142  CB       -24.1220   -2.7290   15.7340 C.3   243  ARG243      0.0348
    143  CG       -25.2310   -2.5370   14.6880 C.3   243  ARG243      0.0492
    144  CD       -26.6200   -2.7910   15.2760 C.3   243  ARG243      0.2205
    145  NE       -26.8090   -4.1880   15.6330 N.pl3 243  ARG243     -0.0865
    146  CZ       -27.8980   -4.6930   16.2150 C.cat 243  ARG243      0.5346
    147  NH1      -28.9190   -3.9150   16.5590 N.pl3 243  ARG243      0.1354
    148  NH2      -27.9530   -5.9880   16.4820 N.pl3 243  ARG243      0.1354
    149  N        -21.1860   -1.3960   16.7360 N.am  244  ALA244     -0.1963
    150  CA       -20.2960   -1.2650   17.9090 C.3   244  ALA244      0.1728
    151  C        -21.0690   -1.5030   19.1990 C.2   244  ALA244      0.2616
    152  O        -20.4830   -1.8530   20.2220 O.2   244  ALA244     -0.2715
    153  CB       -19.6390    0.1140   17.9350 C.3   244  ALA244      0.0334
    154  N        -22.3830   -1.2870   19.1400 N.am  245  PHE245     -0.1960
    155  CA       -23.2920   -1.4450   20.2860 C.3   245  PHE245      0.1771
    156  C        -24.7270   -1.3670   19.7650 C.2   245  PHE245      0.2619
    157  O        -24.9590   -0.9300   18.6290 O.2   245  PHE245     -0.2715
    158  CB       -23.0750   -0.3610   21.3580 C.3   245  PHE245      0.0574
    159  CG       -23.3080    1.0390   20.8580 C.ar  245  PHE245     -0.0200
    160  CD1      -24.5760    1.6270   20.9430 C.ar  245  PHE245     -0.0042
    161  CD2      -22.2630    1.7790   20.3070 C.ar  245  PHE245     -0.0042
    162  CE1      -24.7990    2.9190   20.4930 C.ar  245  PHE245     -0.0003
    163  CE2      -22.4870    3.0740   19.8430 C.ar  245  PHE245     -0.0003
    164  CZ       -23.7500    3.6440   19.9400 C.ar  245  PHE245     -0.0000
    165  N        -25.6760   -1.7660   20.6040 N.am  246  VAL246     -0.1963
    166  CA       -27.0840   -1.9000   20.2050 C.3   246  VAL246      0.1727
    167  C        -27.8940   -0.7800   20.8470 C.2   246  VAL246      0.2616
    168  O        -27.7650   -0.5610   22.0440 O.2   246  VAL246     -0.2715
    169  CB       -27.6390   -3.2770   20.6460 C.3   246  VAL246      0.0290
    170  CG1      -29.1380   -3.3890   20.3280 C.3   246  VAL246      0.0023
    171  CG2      -26.8420   -4.3920   19.9740 C.3   246  VAL246      0.0023
    172  N        -28.7110   -0.0690   20.0620 N.am  247  ASP247     -0.1971
    173  CA       -29.4690    1.0670   20.6090 C.3   247  ASP247      0.1709
    174  C        -30.5670    0.5800   21.5510 C.2   247  ASP247      0.2293
    175  O        -31.2360   -0.4260   21.2960 O.2   247  ASP247     -0.2864
    176  CB       -30.0960    1.9430   19.5180 C.3   247  ASP247      0.1436
    177  CG       -29.0890    2.4530   18.5110 C.2   247  ASP247      0.3671
    178  OD1      -29.2260    2.0720   17.3410 O.co2 247  ASP247     -0.2456
    179  OD2      -28.1850    3.2430   18.8650 O.co2 247  ASP247     -0.2456
@<TRIPOS>BOND
     1   129   130    1
     2   130   133    1
     3   130   131    1
     4   133   134    1
     5   131   132    2
     6   131   138   am
     7   123   122    2
     8   138   139    1
     9   136   135   ar
    10   134   135    1
    11   143   144    1
    12   143   142    1
    13   122   121    1
    14   135   137   ar
    15   139   142    1
    16   139   140    1
    17   144   145    1
    18   145   146    2
    19   121   120    1
    20   121   124    1
    21   146   148    1
    22   146   147    1
    23   140   149   am
    24   140   141    2
    25   149   150    1
    26    10     8   ar
    27    10    11   ar
    28     8     6   ar
    29   124   125    1
    30   178   177   ar
    31     1     2    1
    32    11     9   ar
    33   150   153    1
    34   150   151    1
    35   117   118    2
    36   117   116    1
    37   104   105    1
    38   115   116    1
    39     6     5    1
    40     6     7   ar
    41    45    44    1
    42   177   179   ar
    43   177   176    1
    44   125   126    1
    45   157   156    2
    46     2     5    1
    47     2     3    1
    48     4     3    2
    49     9     7   ar
    50   116   119    1
    51   154   151   am
    52   154   155    1
    53    44    41    1
    54   151   152    2
    55   107   106    2
    56   127   126   ar
    57   176   173    1
    58   126   128   ar
    59   105   106    1
    60   110   111    2
    61   110   109    1
    62   156   155    1
    63   156   165   am
    64   106   108   am
    65   163   164   ar
    66   163   161   ar
    67   164   162   ar
    68   171   169    1
    69    41    42    1
    70    41    40    1
    71   172   173    1
    72   172   167   am
    73   166   165    1
    74   166   169    1
    75   166   167    1
    76   155   158    1
    77   161   159   ar
    78   170   169    1
    79   162   160   ar
    80   173   174    1
    81   108   109    1
    82    42    43    2
    83   167   168    2
    84   159   160   ar
    85   159   158    1
    86   109   112    1
    87    40    30   am
    88   175   174    2
    89    31    30    2
    90    27    24    1
    91    30    29    1
    92   113   112    1
    93   112   114    1
    94    29    28    1
    95    29    32    1
    96    28    25   am
    97    24    25    1
    98    24    23    1
    99    25    26    2
   100    55    53   ar
   101    55    56   ar
   102    53    51   ar
   103    23    14   am
   104    56    54   ar
   105    32    33    1
   106    51    50    1
   107    51    52   ar
   108    50    47    1
   109    49    48    2
   110    54    52   ar
   111    33    35   ar
   112    33    34   ar
   113    14    15    2
   114    14    13    1
   115    35    37   ar
   116    46    47    1
   117    47    48    1
   118    48    57   am
   119    34    36   ar
   120    37    38   ar
   121    13    16    1
   122    13    12    1
   123    70    68    1
   124    16    17    1
   125    57    58    1
   126    67    68    1
   127    67    69    1
   128    67    64    1
   129    36    38   ar
   130    38    39    1
   131    63    59   am
   132    63    64    1
   133    58    59    1
   134    58    61    1
   135    18    17    1
   136    18    19    1
   137    59    60    2
   138    64    65    1
   139    19    20    2
   140    77    75    1
   141    61    62    1
   142    22    20    1
   143    20    21    1
   144    65    66    2
   145    75    76    1
   146    75    72    1
   147   103   101    1
   148    96    94    1
   149    72    71    1
   150    72    73    1
   151   102   101    1
   152   101    98    1
   153    94    93    1
   154    94    95    1
   155    93    90    1
   156    88    87    1
   157    88    82    1
   158    73    74    2
   159    97    98    1
   160    97    91   am
   161    79    80    1
   162    79    78    1
   163    98    99    1
   164    87    86    1
   165    90    89    1
   166    90    91    1
   167    89    84   am
   168    91    92    2
   169    82    80   am
   170    82    83    1
   171    80    81    2
   172    86    83    1
   173    99   100    2
   174    83    84    1
   175    84    85    2
