@<TRIPOS>MOLECULE
tmp/4fkiA00.pdb
 168 160 0 0 0
SMALL
GASTEIGER

@<TRIPOS>ATOM
      1  N          0.3710  -11.2510   38.7250 N.3     8  GLU8       -0.1231
      2  CA         0.0510  -12.4420   37.9520 C.3     8  GLU8        0.1699
      3  C          0.6220  -12.3290   36.5550 C.2     8  GLU8        0.2592
      4  O          0.9060  -11.2260   36.0810 O.2     8  GLU8       -0.2718
      5  CB        -1.4580  -12.7340   37.8970 C.3     8  GLU8        0.0402
      6  CG        -2.3330  -11.5560   37.5130 C.3     8  GLU8        0.1161
      7  CD        -3.7430  -11.6050   38.0710 C.2     8  GLU8        0.3649
      8  OE1       -4.3190  -12.7150   38.1620 O.co2   8  GLU8       -0.2457
      9  OE2       -4.2820  -10.5220   38.3940 O.co2   8  GLU8       -0.2457
     10  N          0.7910  -13.4830   35.8990 N.am    9  LYS9       -0.1966
     11  CA         1.2940  -13.5710   34.5390 C.3     9  LYS9        0.1728
     12  C          0.1730  -13.1960   33.5840 C.2     9  LYS9        0.2616
     13  O         -0.9590  -13.6780   33.7430 O.2     9  LYS9       -0.2715
     14  CB         1.8060  -15.0050   34.2750 C.3     9  LYS9        0.0311
     15  CG         2.5220  -15.1820   32.9510 C.3     9  LYS9        0.0038
     16  CD         3.1830  -16.5580   32.8660 C.3     9  LYS9        0.0206
     17  CE         3.3920  -16.9870   31.4350 C.3     9  LYS9        0.1093
     18  NZ         4.1580  -18.2580   31.3420 N.3     9  LYS9       -0.1314
     19  N          0.4580  -12.2860   32.6440 N.am   10  ILE10      -0.1977
     20  CA        -0.4770  -11.8640   31.5940 C.3    10  ILE10       0.1596
     21  C         -0.3840  -12.8770   30.4870 C.2    10  ILE10       0.2287
     22  O         -1.4040  -13.2980   29.9340 O.2    10  ILE10      -0.2864
     23  CB        -0.1670  -10.4130   31.1170 C.3    10  ILE10       0.0276
     24  CG1       -0.7700   -9.3970   32.0810 C.3    10  ILE10       0.0022
     25  CG2       -0.6130  -10.1640   29.6350 C.3    10  ILE10       0.0022
     26  CD1       -0.2460   -7.9950   31.9350 C.3    10  ILE10       0.0001
     27  N          5.1640  -11.5460   30.0110 N.3    18  VAL18      -0.1245
     28  CA         4.4950  -10.3110   30.4110 C.3    18  VAL18       0.1561
     29  C          3.7810  -10.5630   31.7330 C.2    18  VAL18       0.2260
     30  O          3.0190  -11.5340   31.8720 O.2    18  VAL18      -0.2867
     31  CB         3.5060   -9.7390   29.3470 C.3    18  VAL18       0.0252
     32  CG1        3.0050   -8.3520   29.7430 C.3    18  VAL18       0.0019
     33  CG2        4.1430   -9.6850   27.9600 C.3    18  VAL18       0.0019
     34  N          1.5300   -8.7550   35.0700 N.3    20  LYS20      -0.1245
     35  CA         0.8430   -7.6240   35.6620 C.3    20  LYS20       0.1561
     36  C          1.6460   -7.3540   36.9400 C.2    20  LYS20       0.2260
     37  O          1.9550   -8.3060   37.6630 O.2    20  LYS20      -0.2867
     38  CB        -0.6330   -7.9880   35.9530 C.3    20  LYS20       0.0271
     39  CG        -1.3840   -6.8270   36.6480 C.3    20  LYS20       0.0035
     40  CD        -2.8490   -7.2210   36.8900 C.3    20  LYS20       0.0206
     41  CE        -3.6710   -6.0580   37.3870 C.3    20  LYS20       0.1093
     42  NZ        -5.0730   -6.4780   37.6900 N.3    20  LYS20      -0.1314
     43  N          2.0670   -3.2050   33.1910 N.3    31  ALA31      -0.1245
     44  CA         2.4170   -4.4690   32.5370 C.3    31  ALA31       0.1562
     45  C          3.9150   -4.4710   32.3820 C.2    31  ALA31       0.2260
     46  O          4.4780   -3.5140   31.8500 O.2    31  ALA31      -0.2867
     47  CB         1.7400   -4.5840   31.1960 C.3    31  ALA31       0.0290
     48  N          7.2180   -6.2990   30.7510 N.3    33  LYS33      -0.1245
     49  CA         7.6870   -7.2690   29.7550 C.3    33  LYS33       0.1561
     50  C          9.1710   -7.5310   29.9910 C.2    33  LYS33       0.2260
     51  O          9.9780   -6.5980   29.9670 O.2    33  LYS33      -0.2867
     52  CB         7.4240   -6.7520   28.3200 C.3    33  LYS33       0.0271
     53  CG         7.7940   -7.7330   27.2090 C.3    33  LYS33       0.0035
     54  CD         7.0610   -7.4120   25.8970 C.3    33  LYS33       0.0206
     55  CE         7.4240   -8.3250   24.7450 C.3    33  LYS33       0.1093
     56  NZ         6.9420   -9.7260   24.9260 N.3    33  LYS33      -0.1314
     57  N         -0.4540    2.0470   23.4360 N.3    56  VAL56      -0.1245
     58  CA        -0.1980    1.6780   24.8490 C.3    56  VAL56       0.1561
     59  C          1.0730    2.3880   25.2820 C.2    56  VAL56       0.2260
     60  O          2.1250    2.2630   24.6330 O.2    56  VAL56      -0.2867
     61  CB        -0.0940    0.1450   24.9800 C.3    56  VAL56       0.0252
     62  CG1        0.2890   -0.2690   26.4040 C.3    56  VAL56       0.0019
     63  CG2       -1.3910   -0.5180   24.5870 C.3    56  VAL56       0.0019
     64  N          4.9680   -0.9640   30.7910 N.3    72  PHE72      -0.1227
     65  CA         3.8870   -0.3900   29.9880 C.3    72  PHE72       0.1736
     66  C          2.6740   -0.0620   30.8020 C.2    72  PHE72       0.2598
     67  O          2.4620   -0.6480   31.8600 O.2    72  PHE72      -0.2717
     68  CB         3.4350   -1.4360   28.9390 C.3    72  PHE72       0.0547
     69  CG         4.3780   -1.6150   27.7940 C.ar   72  PHE72      -0.0202
     70  CD1        4.3640   -0.7260   26.7120 C.ar   72  PHE72      -0.0042
     71  CD2        5.1950   -2.7310   27.7260 C.ar   72  PHE72      -0.0042
     72  CE1        5.2250   -0.9120   25.6290 C.ar   72  PHE72      -0.0003
     73  CE2        6.0390   -2.9220   26.6360 C.ar   72  PHE72      -0.0003
     74  CZ         6.0530   -2.0090   25.6010 C.ar   72  PHE72      -0.0000
     75  N          1.8180    0.8010   30.2600 N.am   73  GLU73      -0.1920
     76  CA         0.4880    1.0320   30.8040 C.3    73  GLU73       0.1949
     77  C         -0.2730   -0.3290   30.7900 C.2    73  GLU73       0.2659
     78  O         -0.0790   -1.1280   29.8640 O.2    73  GLU73      -0.2711
     79  CB        -0.1860    2.0320   29.8290 C.2    73  GLU73       0.0111
     80  CG        -1.6880    2.1370   29.8770 C.2    73  GLU73       0.0838
     81  CD        -2.3080    2.9860   28.7830 C.2    73  GLU73       0.3877
     82  OE1       -1.6300    3.3330   27.7800 O.co2  73  GLU73      -0.2406
     83  OE2       -3.5190    3.2650   28.9250 O.co2  73  GLU73      -0.2406
     84  N         -1.0900   -0.5800   31.8290 N.am   74  PHE74      -0.1957
     85  CA        -1.8800   -1.8070   31.9080 C.3    74  PHE74       0.1771
     86  C         -3.3100   -1.5600   31.4430 C.2    74  PHE74       0.2619
     87  O         -3.9530   -0.5930   31.9060 O.2    74  PHE74      -0.2715
     88  CB        -1.9180   -2.2830   33.3640 C.3    74  PHE74       0.0574
     89  CG        -2.7720   -3.4960   33.6020 C.ar   74  PHE74      -0.0200
     90  CD1       -2.3110   -4.7670   33.2590 C.ar   74  PHE74      -0.0042
     91  CD2       -4.0720   -3.3700   34.0850 C.ar   74  PHE74      -0.0042
     92  CE1       -3.1240   -5.8920   33.4060 C.ar   74  PHE74      -0.0003
     93  CE2       -4.8910   -4.5000   34.2280 C.ar   74  PHE74      -0.0003
     94  CZ        -4.4140   -5.7550   33.8860 C.ar   74  PHE74      -0.0000
     95  N         -3.8250   -2.4800   30.6160 N.am   75  LEU75      -0.1963
     96  CA        -5.2280   -2.4820   30.1960 C.3    75  LEU75       0.1728
     97  C         -5.8060   -3.8450   30.5350 C.2    75  LEU75       0.2616
     98  O         -5.1100   -4.8540   30.4340 O.2    75  LEU75      -0.2715
     99  CB        -5.4290   -2.1470   28.7090 C.3    75  LEU75       0.0311
    100  CG        -5.2200   -0.6780   28.3820 C.3    75  LEU75       0.0022
    101  CD1       -3.7900   -0.4550   27.9550 C.3    75  LEU75       0.0001
    102  CD2       -6.1450   -0.2170   27.2430 C.3    75  LEU75       0.0001
    103  N         -7.0890   -3.9050   30.8890 N.am   76  HIS76      -0.1959
    104  CA        -7.6160   -5.1490   31.4340 C.3    76  HIS76       0.1787
    105  C         -7.9390   -6.2560   30.4640 C.2    76  HIS76       0.2620
    106  O         -8.1390   -7.3960   30.9330 O.2    76  HIS76      -0.2715
    107  CB        -8.8440   -4.8430   32.2900 C.3    76  HIS76       0.0785
    108  CG        -8.5030   -4.2050   33.6060 C.ar   76  HIS76       0.0821
    109  ND1       -8.2440   -2.8230   33.7240 N.ar   76  HIS76      -0.2267
    110  CD2       -8.3810   -4.7720   34.8340 C.ar   76  HIS76       0.1154
    111  CE1       -7.9790   -2.6170   35.0040 C.ar   76  HIS76       0.1986
    112  NE2       -8.0700   -3.7520   35.7170 N.ar   76  HIS76      -0.2212
    113  N         -8.0560   -5.9720   29.1660 N.am   77  GLN77      -0.1963
    114  CA        -8.4430   -7.0250   28.2460 C.3    77  GLN77       0.1733
    115  C         -7.8080   -6.8090   26.8910 C.2    77  GLN77       0.2616
    116  O         -7.5310   -5.6630   26.5290 O.2    77  GLN77      -0.2715
    117  CB        -9.9820   -6.9330   28.1470 C.3    77  GLN77       0.0408
    118  CG       -10.6480   -7.6270   27.0020 C.3    77  GLN77       0.0908
    119  CD       -10.7760   -9.0580   27.2930 C.2    77  GLN77       0.2608
    120  OE1       -9.7700   -9.7470   27.4870 O.2    77  GLN77      -0.2717
    121  NE2      -12.0190   -9.5250   27.3140 N.am   77  GLN77      -0.0878
    122  N         -7.5900   -7.9070   26.1410 N.am   78  ASP78      -0.1971
    123  CA        -7.1390   -7.7860   24.7550 C.3    78  ASP78       0.1709
    124  C         -8.2770   -8.1430   23.7920 C.2    78  ASP78       0.2293
    125  O         -9.2630   -8.8080   24.1680 O.2    78  ASP78      -0.2864
    126  CB        -5.8660   -8.5810   24.4230 C.3    78  ASP78       0.1436
    127  CG        -5.9910  -10.0770   24.5200 C.2    78  ASP78       0.3671
    128  OD1       -6.8360  -10.6490   23.8020 O.co2  78  ASP78      -0.2456
    129  OD2       -5.1920  -10.6890   25.2500 O.co2  78  ASP78      -0.2456
    130  N         -9.3040  -11.9980   23.2810 N.3    81  LYS81      -0.1245
    131  CA       -10.1650  -12.5230   24.3260 C.3    81  LYS81       0.1561
    132  C        -11.5760  -11.9350   24.2040 C.2    81  LYS81       0.2260
    133  O        -12.5570  -12.6860   24.2990 O.2    81  LYS81      -0.2867
    134  CB        -9.5330  -12.2400   25.6950 C.3    81  LYS81       0.0271
    135  CG        -8.2930  -13.1030   25.9350 C.3    81  LYS81       0.0035
    136  CD        -8.0640  -13.4110   27.4150 C.3    81  LYS81       0.0206
    137  CE        -6.6440  -13.8610   27.7070 C.3    81  LYS81       0.1093
    138  NZ        -5.6390  -12.8050   27.4000 N.3    81  LYS81      -0.1314
    139  N         -4.2190  -10.0910   19.6090 N.3   123  GLN123     -0.1245
    140  CA        -3.5030  -10.2680   20.8910 C.3   123  GLN123      0.1566
    141  C         -2.8190   -8.9650   21.3290 C.2   123  GLN123      0.2260
    142  O         -2.6400   -8.7290   22.5420 O.2   123  GLN123     -0.2867
    143  CB        -2.4430  -11.3870   20.7490 C.3   123  GLN123      0.0367
    144  CG        -3.0180  -12.7460   20.3400 C.3   123  GLN123      0.0905
    145  CD        -2.9980  -13.0590   18.8510 C.2   123  GLN123      0.2608
    146  OE1       -3.7330  -12.4740   18.0120 O.2   123  GLN123     -0.2717
    147  NE2       -2.2060  -14.0740   18.4990 N.am  123  GLN123     -0.0878
    148  N         -5.3900   -3.7180   22.7640 N.3   126  LEU126     -0.1245
    149  CA        -5.8710   -3.7390   24.1550 C.3   126  LEU126      0.1561
    150  C         -7.0280   -2.7940   24.3630 C.2   126  LEU126      0.2260
    151  O         -7.0640   -1.7260   23.7540 O.2   126  LEU126     -0.2867
    152  CB        -4.7220   -3.3290   25.1050 C.3   126  LEU126      0.0270
    153  CG        -3.4360   -4.1990   25.0010 C.3   126  LEU126      0.0019
    154  CD1       -2.4240   -3.7120   25.9790 C.3   126  LEU126      0.0001
    155  CD2       -3.7380   -5.6670   25.2890 C.3   126  LEU126      0.0001
    156  N         -0.5480   -2.1930   21.0890 N.3   136  ALA136     -0.1231
    157  CA         0.5950   -2.5700   21.9520 C.3   136  ALA136      0.1694
    158  C          1.7340   -3.1460   21.1090 C.2   136  ALA136      0.2592
    159  O          1.4840   -3.6530   20.0350 O.2   136  ALA136     -0.2718
    160  CB         0.1820   -3.5920   23.0050 C.3   136  ALA136      0.0304
    161  N          2.9670   -3.0800   21.6390 N.am  137  ASP137     -0.1974
    162  CA         4.2120   -3.5820   20.9980 C.3   137  ASP137      0.1709
    163  C          4.6210   -2.7780   19.7410 C.2   137  ASP137      0.2293
    164  O          5.3820   -3.2630   18.8930 O.2   137  ASP137     -0.2864
    165  CB         4.1030   -5.0850   20.6740 C.3   137  ASP137      0.1436
    166  CG         4.0240   -5.9820   21.9100 C.2   137  ASP137      0.3671
    167  OD1        4.0680   -5.4450   23.0520 O.co2 137  ASP137     -0.2456
    168  OD2        3.9480   -7.2200   21.7410 O.co2 137  ASP137     -0.2456
@<TRIPOS>BOND
     1   146   145    2
     2   147   145   am
     3   145   144    1
     4   164   163    2
     5   139   140    1
     6   163   162    1
     7   159   158    2
     8   144   143    1
     9   165   162    1
    10   165   166    1
    11   143   140    1
    12   140   141    1
    13   162   161    1
    14   156   157    1
    15   158   161   am
    16   158   157    1
    17   141   142    2
    18   168   166   ar
    19   166   167   ar
    20   157   160    1
    21   148   149    1
    22   130   131    1
    23    57    58    1
    24   151   150    2
    25   124   125    2
    26   124   123    1
    27   128   127   ar
    28   149   150    1
    29   149   152    1
    30   132   133    2
    31   132   131    1
    32   131   134    1
    33   126   127    1
    34   126   123    1
    35   127   129   ar
    36    63    61    1
    37    60    59    2
    38    55    56    1
    39    55    54    1
    40   123   122    1
    41    58    61    1
    42    58    59    1
    43    61    62    1
    44   153   152    1
    45   153   155    1
    46   153   154    1
    47    74    72   ar
    48    74    73   ar
    49    72    70   ar
    50   134   135    1
    51    54    53    1
    52   135   136    1
    53   122   115   am
    54   116   115    2
    55    73    71   ar
    56    70    69   ar
    57   115   114    1
    58   118   119    1
    59   118   117    1
    60    53    52    1
    61   102   100    1
    62   119   121   am
    63   119   120    2
    64   138   137    1
    65   136   137    1
    66    71    69   ar
    67    82    81   ar
    68    69    68    1
    69   101   100    1
    70    33    31    1
    71   117   114    1
    72   114   113    1
    73    52    49    1
    74   100    99    1
    75    99    96    1
    76    81    83   ar
    77    81    80    1
    78    68    65    1
    79   113   105   am
    80    31    32    1
    81    31    28    1
    82    25    23    1
    83    49    50    1
    84    49    48    1
    85    79    80    2
    86    79    76    1
    87    78    77    2
    88    22    21    2
    89    51    50    2
    90    65    64    1
    91    65    66    1
    92    27    28    1
    93    96    97    1
    94    96    95    1
    95    75    66   am
    96    75    76    1
    97    28    29    1
    98    98    97    2
    99   105   106    2
   100   105   104    1
   101    21    20    1
   102    97   103   am
   103    95    86   am
   104    77    76    1
   105    77    84   am
   106    66    67    2
   107   103   104    1
   108    23    20    1
   109    23    24    1
   110    47    44    1
   111    18    17    1
   112   104   107    1
   113    17    16    1
   114    86    87    2
   115    86    85    1
   116    20    19    1
   117    29    30    2
   118    84    85    1
   119    46    45    2
   120    85    88    1
   121    26    24    1
   122   107   108    1
   123    45    44    1
   124    44    43    1
   125    19    12   am
   126    16    15    1
   127    15    14    1
   128    90    92   ar
   129    90    89   ar
   130    88    89    1
   131    92    94   ar
   132    12    13    2
   133    12    11    1
   134    89    91   ar
   135   108   109   ar
   136   108   110   ar
   137   109   111   ar
   138    94    93   ar
   139    91    93   ar
   140    14    11    1
   141    11    10    1
   142   110   112   ar
   143   111   112   ar
   144    34    35    1
   145    35    38    1
   146    35    36    1
   147    10     3   am
   148    38    39    1
   149     4     3    2
   150     3     2    1
   151    39    40    1
   152    40    41    1
   153    36    37    2
   154    41    42    1
   155     6     5    1
   156     6     7    1
   157     5     2    1
   158     2     1    1
   159     7     8   ar
   160     7     9   ar
