@<TRIPOS>MOLECULE
tmp/4fkjA00.pdb
 159 152 0 0 0
SMALL
GASTEIGER

@<TRIPOS>ATOM
      1  N         -0.3070  -11.0360  -38.4590 N.3     8  GLU8       -0.1182
      2  CA         0.1540  -12.1650  -37.6530 C.3     8  GLU8        0.1915
      3  C         -0.5500  -12.1620  -36.3130 C.2     8  GLU8        0.2634
      4  O         -1.0400  -11.1180  -35.8740 O.2     8  GLU8       -0.2714
      5  CB         1.6930  -12.2100  -37.4920 C.2     8  GLU8        0.0085
      6  CG         2.3180  -11.0220  -36.7810 C.2     8  GLU8        0.0835
      7  CD         3.7800  -11.1810  -36.4180 C.2     8  GLU8        0.3877
      8  OE1        4.6200  -10.5060  -37.0540 O.co2   8  GLU8       -0.2406
      9  OE2        4.0840  -11.9450  -35.4730 O.co2   8  GLU8       -0.2406
     10  N         -0.6390  -13.3430  -35.6810 N.am    9  LYS9       -0.1963
     11  CA        -1.2660  -13.4760  -34.3790 C.3     9  LYS9        0.1728
     12  C         -0.1990  -13.1220  -33.3630 C.2     9  LYS9        0.2616
     13  O          0.8660  -13.7570  -33.3550 O.2     9  LYS9       -0.2715
     14  CB        -1.7690  -14.9150  -34.1840 C.3     9  LYS9        0.0311
     15  CG        -2.5510  -15.1180  -32.9040 C.3     9  LYS9        0.0038
     16  CD        -3.0940  -16.5350  -32.8210 C.3     9  LYS9        0.0206
     17  CE        -3.6270  -16.8300  -31.4450 C.3     9  LYS9        0.1093
     18  NZ        -4.2220  -18.1900  -31.3610 N.3     9  LYS9       -0.1314
     19  N         -0.4460  -12.0870  -32.5430 N.am   10  ILE10      -0.1977
     20  CA         0.4860  -11.6520  -31.4940 C.3    10  ILE10       0.1596
     21  C          0.4280  -12.6730  -30.3820 C.2    10  ILE10       0.2287
     22  O          1.4680  -13.1240  -29.9050 O.2    10  ILE10      -0.2864
     23  CB         0.1570  -10.2090  -30.9940 C.3    10  ILE10       0.0276
     24  CG1        0.6590   -9.1530  -31.9750 C.3    10  ILE10       0.0022
     25  CG2        0.6510   -9.9530  -29.5540 C.3    10  ILE10       0.0022
     26  CD1        0.2290   -7.7810  -31.6940 C.3    10  ILE10       0.0001
     27  N         -5.1890  -11.4400  -29.9090 N.3    18  VAL18      -0.1245
     28  CA        -4.5150  -10.1980  -30.2650 C.3    18  VAL18       0.1561
     29  C         -3.7910  -10.4390  -31.5870 C.2    18  VAL18       0.2260
     30  O         -2.9970  -11.3800  -31.7080 O.2    18  VAL18      -0.2867
     31  CB        -3.5090   -9.6940  -29.1790 C.3    18  VAL18       0.0252
     32  CG1       -3.0730   -8.2680  -29.4720 C.3    18  VAL18       0.0019
     33  CG2       -4.1000   -9.7840  -27.7720 C.3    18  VAL18       0.0019
     34  N         -2.1180   -3.1140  -33.0360 N.3    31  ALA31      -0.1245
     35  CA        -2.4290   -4.3920  -32.3900 C.3    31  ALA31       0.1562
     36  C         -3.9290   -4.3490  -32.2300 C.2    31  ALA31       0.2260
     37  O         -4.4750   -3.3580  -31.7110 O.2    31  ALA31      -0.2867
     38  CB        -1.7850   -4.4850  -31.0210 C.3    31  ALA31       0.0290
     39  N         -7.2160   -6.1920  -30.5300 N.3    33  LYS33      -0.1245
     40  CA        -7.7020   -7.1340  -29.5240 C.3    33  LYS33       0.1561
     41  C         -9.1780   -7.3840  -29.7890 C.2    33  LYS33       0.2260
     42  O         -9.9580   -6.4340  -29.8360 O.2    33  LYS33      -0.2867
     43  CB        -7.4910   -6.5740  -28.0930 C.3    33  LYS33       0.0271
     44  CG        -7.8040   -7.5840  -26.9960 C.3    33  LYS33       0.0035
     45  CD        -7.0230   -7.3090  -25.7070 C.3    33  LYS33       0.0206
     46  CE        -7.4670   -8.1580  -24.5270 C.3    33  LYS33       0.1093
     47  NZ        -7.1600   -9.6090  -24.6900 N.3    33  LYS33      -0.1314
     48  N          0.5120    2.1580  -23.3010 N.3    55  VAL55      -0.1245
     49  CA         0.2670    1.7740  -24.7020 C.3    55  VAL55       0.1561
     50  C         -1.0080    2.4840  -25.1390 C.2    55  VAL55       0.2260
     51  O         -2.0460    2.3530  -24.4830 O.2    55  VAL55      -0.2867
     52  CB         0.1460    0.2310  -24.8690 C.3    55  VAL55       0.0252
     53  CG1       -0.1540   -0.1310  -26.3230 C.3    55  VAL55       0.0019
     54  CG2        1.4380   -0.4290  -24.4670 C.3    55  VAL55       0.0019
     55  N         -4.9450   -0.8000  -30.6040 N.3    71  PHE71      -0.1227
     56  CA        -3.8500   -0.2680  -29.8240 C.3    71  PHE71       0.1736
     57  C         -2.6560    0.0490  -30.6710 C.2    71  PHE71       0.2595
     58  O         -2.4440   -0.5630  -31.7180 O.2    71  PHE71      -0.2718
     59  CB        -3.4080   -1.3300  -28.8010 C.3    71  PHE71       0.0547
     60  CG        -4.3350   -1.5270  -27.6330 C.ar   71  PHE71      -0.0202
     61  CD1       -4.3250   -0.6380  -26.5600 C.ar   71  PHE71      -0.0042
     62  CD2       -5.1380   -2.6540  -27.5510 C.ar   71  PHE71      -0.0042
     63  CE1       -5.1500   -0.8480  -25.4500 C.ar   71  PHE71      -0.0003
     64  CE2       -5.9560   -2.8670  -26.4410 C.ar   71  PHE71      -0.0003
     65  CZ        -5.9540   -1.9660  -25.3960 C.ar   71  PHE71      -0.0000
     66  N         -1.8010    0.9300  -30.1380 N.am   72  GLU72      -0.1965
     67  CA        -0.4720    1.1740  -30.6620 C.3    72  GLU72       0.1733
     68  C          0.2650   -0.2030  -30.6370 C.2    72  GLU72       0.2616
     69  O          0.0800   -0.9900  -29.7010 O.2    72  GLU72      -0.2715
     70  CB         0.2050    2.1160  -29.6540 C.3    72  GLU72       0.0429
     71  CG         1.6930    2.2780  -29.8000 C.3    72  GLU72       0.1163
     72  CD         2.3330    3.0620  -28.6730 C.2    72  GLU72       0.3649
     73  OE1        1.6540    3.3750  -27.6630 O.co2  72  GLU72      -0.2457
     74  OE2        3.5330    3.3630  -28.8170 O.co2  72  GLU72      -0.2457
     75  N          1.0960   -0.4600  -31.6570 N.am   73  PHE73      -0.1960
     76  CA         1.8570   -1.7000  -31.7110 C.3    73  PHE73       0.1771
     77  C          3.3060   -1.4560  -31.2930 C.2    73  PHE73       0.2619
     78  O          3.9480   -0.5170  -31.7950 O.2    73  PHE73      -0.2715
     79  CB         1.8460   -2.2170  -33.1470 C.3    73  PHE73       0.0574
     80  CG         2.7270   -3.4200  -33.3490 C.ar   73  PHE73      -0.0200
     81  CD1        2.2890   -4.6860  -32.9910 C.ar   73  PHE73      -0.0042
     82  CD2        3.9930   -3.2900  -33.9130 C.ar   73  PHE73      -0.0042
     83  CE1        3.1150   -5.7960  -33.1450 C.ar   73  PHE73      -0.0003
     84  CE2        4.8220   -4.3980  -34.0630 C.ar   73  PHE73      -0.0003
     85  CZ         4.3820   -5.6450  -33.6860 C.ar   73  PHE73      -0.0000
     86  N          3.8400   -2.3600  -30.4690 N.am   74  LEU74      -0.1963
     87  CA         5.2450   -2.3740  -30.0940 C.3    74  LEU74       0.1728
     88  C          5.7810   -3.7460  -30.4460 C.2    74  LEU74       0.2616
     89  O          5.0710   -4.7280  -30.3140 O.2    74  LEU74      -0.2715
     90  CB         5.5160   -2.0320  -28.6250 C.3    74  LEU74       0.0311
     91  CG         5.3000   -0.5490  -28.2710 C.3    74  LEU74       0.0022
     92  CD1        3.8740   -0.3270  -27.8480 C.3    74  LEU74       0.0001
     93  CD2        6.2260   -0.1220  -27.1170 C.3    74  LEU74       0.0001
     94  N          7.0520   -3.8370  -30.8070 N.am   75  HIS75      -0.1959
     95  CA         7.5650   -5.0910  -31.3130 C.3    75  HIS75       0.1787
     96  C          7.8610   -6.2000  -30.3720 C.2    75  HIS75       0.2620
     97  O          7.9670   -7.3560  -30.8170 O.2    75  HIS75      -0.2715
     98  CB         8.7830   -4.8130  -32.1970 C.3    75  HIS75       0.0785
     99  CG         8.4470   -4.1940  -33.5120 C.ar   75  HIS75       0.0821
    100  ND1        8.2180   -2.8180  -33.6430 N.ar   75  HIS75      -0.2267
    101  CD2        8.2810   -4.7830  -34.7300 C.ar   75  HIS75       0.1154
    102  CE1        8.0050   -2.6180  -34.9340 C.ar   75  HIS75       0.1986
    103  NE2        8.0380   -3.7620  -35.6260 N.ar   75  HIS75      -0.2212
    104  N          8.0630   -5.8770  -29.0860 N.am   76  GLN76      -0.1963
    105  CA         8.4710   -6.8750  -28.1190 C.3    76  GLN76       0.1733
    106  C          7.7910   -6.6580  -26.7660 C.2    76  GLN76       0.2616
    107  O          7.4110   -5.5260  -26.4390 O.2    76  GLN76      -0.2715
    108  CB        10.0210   -6.7790  -27.9910 C.3    76  GLN76       0.0408
    109  CG        10.7210   -7.7540  -27.0250 C.3    76  GLN76       0.0908
    110  CD        10.5500   -9.2140  -27.3530 C.2    76  GLN76       0.2608
    111  OE1        9.4340   -9.7040  -27.5390 O.2    76  GLN76      -0.2717
    112  NE2       11.6470   -9.9650  -27.3340 N.am   76  GLN76      -0.0878
    113  N          7.6300   -7.7400  -25.9820 N.am   77  ASP77      -0.1971
    114  CA         7.1400   -7.6170  -24.6010 C.3    77  ASP77       0.1709
    115  C          8.2970   -7.9750  -23.6580 C.2    77  ASP77       0.2293
    116  O          9.2880   -8.5970  -24.0800 O.2    77  ASP77      -0.2864
    117  CB         5.8720   -8.4450  -24.2940 C.3    77  ASP77       0.1436
    118  CG         6.0130   -9.9510  -24.4200 C.2    77  ASP77       0.3671
    119  OD1        6.8580  -10.5230  -23.7220 O.co2  77  ASP77      -0.2456
    120  OD2        5.3220  -10.5440  -25.2760 O.co2  77  ASP77      -0.2456
    121  N          9.3160  -11.8800  -23.1880 N.3    80  LYS80      -0.1245
    122  CA        10.1850  -12.4180  -24.2290 C.3    80  LYS80       0.1561
    123  C         11.5930  -11.8330  -24.1000 C.2    80  LYS80       0.2260
    124  O         12.5690  -12.5730  -24.2290 O.2    80  LYS80      -0.2867
    125  CB         9.5810  -12.1310  -25.6030 C.3    80  LYS80       0.0271
    126  CG         8.3640  -13.0090  -25.9140 C.3    80  LYS80       0.0035
    127  CD         7.7500  -12.6570  -27.2700 C.3    80  LYS80       0.0206
    128  CE         6.5030  -13.4490  -27.5970 C.3    80  LYS80       0.1093
    129  NZ         5.3150  -12.9510  -26.8550 N.3    80  LYS80      -0.1314
    130  N          4.3320   -9.9310  -19.5330 N.3   122  GLN122     -0.1245
    131  CA         3.6830  -10.0670  -20.8560 C.3   122  GLN122      0.1566
    132  C          2.9130   -8.7920  -21.2520 C.2   122  GLN122      0.2260
    133  O          2.7020   -8.5600  -22.4530 O.2   122  GLN122     -0.2867
    134  CB         2.7470  -11.2880  -20.8470 C.3   122  GLN122      0.0367
    135  CG         3.4410  -12.5880  -20.4450 C.3   122  GLN122      0.0905
    136  CD         3.2210  -12.9300  -18.9890 C.2   122  GLN122      0.2608
    137  OE1        3.8660  -12.3790  -18.0560 O.2   122  GLN122     -0.2717
    138  NE2        2.3180  -13.8860  -18.7710 N.am  122  GLN122     -0.0878
    139  N          5.4700   -3.5850  -22.6690 N.3   125  LEU125     -0.1245
    140  CA         5.9330   -3.5900  -24.0550 C.3   125  LEU125      0.1561
    141  C          7.0780   -2.6580  -24.2580 C.2   125  LEU125      0.2260
    142  O          7.1270   -1.5990  -23.6270 O.2   125  LEU125     -0.2867
    143  CB         4.7820   -3.1990  -25.0010 C.3   125  LEU125      0.0270
    144  CG         3.4710   -4.0280  -24.8540 C.3   125  LEU125      0.0019
    145  CD1        2.4800   -3.5600  -25.8790 C.3   125  LEU125      0.0001
    146  CD2        3.7350   -5.5260  -25.0860 C.3   125  LEU125      0.0001
    147  N          0.5770   -2.0880  -20.9580 N.3   135  ALA135     -0.1231
    148  CA        -0.5350   -2.4680  -21.8330 C.3   135  ALA135      0.1694
    149  C         -1.6910   -3.0310  -21.0120 C.2   135  ALA135      0.2592
    150  O         -1.4520   -3.6040  -19.9520 O.2   135  ALA135     -0.2718
    151  CB        -0.0940   -3.5140  -22.8530 C.3   135  ALA135      0.0304
    152  N         -2.9350   -2.9120  -21.5320 N.am  136  ASP136     -0.1974
    153  CA        -4.1650   -3.4240  -20.8600 C.3   136  ASP136      0.1709
    154  C         -4.5830   -2.6490  -19.6050 C.2   136  ASP136      0.2293
    155  O         -5.3110   -3.1600  -18.7350 O.2   136  ASP136     -0.2864
    156  CB        -4.0820   -4.9470  -20.5830 C.3   136  ASP136      0.1436
    157  CG        -4.1250   -5.8060  -21.8380 C.2   136  ASP136      0.3671
    158  OD1       -4.2100   -5.2350  -22.9540 O.co2 136  ASP136     -0.2456
    159  OD2       -4.1030   -7.0480  -21.7050 O.co2 136  ASP136     -0.2456
@<TRIPOS>BOND
     1     1     2    1
     2     2     5    1
     3     2     3    1
     4     5     6    2
     5     8     7   ar
     6     6     7    1
     7     7     9   ar
     8     3     4    2
     9     3    10   am
    10    10    11    1
    11   103   102   ar
    12   103   101   ar
    13   102   100   ar
    14   101    99   ar
    15    11    14    1
    16    11    12    1
    17    14    15    1
    18    84    82   ar
    19    84    85   ar
    20    82    80   ar
    21    85    83   ar
    22   100    99   ar
    23    99    98    1
    24    12    13    2
    25    12    19   am
    26    80    79    1
    27    80    81   ar
    28    79    76    1
    29    83    81   ar
    30    34    35    1
    31    15    16    1
    32    16    17    1
    33    19    20    1
    34    35    36    1
    35    35    38    1
    36    36    37    2
    37    98    95    1
    38    24    26    1
    39    24    23    1
    40    78    77    2
    41    58    57    2
    42    76    75    1
    43    76    77    1
    44    30    29    2
    45    75    68   am
    46    29    28    1
    47    20    23    1
    48    20    21    1
    49    17    18    1
    50    95    94    1
    51    95    96    1
    52    77    86   am
    53    23    25    1
    54    97    96    2
    55    94    88   am
    56    57    66   am
    57    57    56    1
    58    67    68    1
    59    67    66    1
    60    67    70    1
    61    68    69    2
    62    55    56    1
    63    39    40    1
    64    86    87    1
    65    88    89    2
    66    88    87    1
    67    21    22    2
    68    96   104   am
    69    28    27    1
    70    28    31    1
    71    87    90    1
    72    42    41    2
    73    56    59    1
    74    71    70    1
    75    71    72    1
    76    41    40    1
    77    40    43    1
    78    32    31    1
    79    31    33    1
    80   104   105    1
    81    74    72   ar
    82    59    60    1
    83    72    73   ar
    84    90    91    1
    85    91    92    1
    86    91    93    1
    87   105   108    1
    88   105   106    1
    89    43    44    1
    90   108   109    1
    91    60    62   ar
    92    60    61   ar
    93   128   127    1
    94   128   129    1
    95    62    64   ar
    96   111   110    2
    97   110   112   am
    98   110   109    1
    99   127   126    1
   100    44    45    1
   101   106   107    2
   102   106   113   am
   103    61    63   ar
   104    64    65   ar
   105    53    52    1
   106   113   114    1
   107   126   125    1
   108   145   144    1
   109    45    46    1
   110   125   122    1
   111    63    65   ar
   112   120   118   ar
   113    50    49    1
   114    50    51    2
   115   146   144    1
   116   143   144    1
   117   143   140    1
   118    52    49    1
   119    52    54    1
   120    49    48    1
   121    47    46    1
   122   114   117    1
   123   114   115    1
   124   118   117    1
   125   118   119   ar
   126   141   140    1
   127   141   142    2
   128   122   123    1
   129   122   121    1
   130   124   123    2
   131   116   115    2
   132   140   139    1
   133   158   157   ar
   134   151   148    1
   135   133   132    2
   136   157   159   ar
   137   157   156    1
   138   148   149    1
   139   148   147    1
   140   152   149   am
   141   152   153    1
   142   132   131    1
   143   149   150    2
   144   153   156    1
   145   153   154    1
   146   131   134    1
   147   131   130    1
   148   134   135    1
   149   135   136    1
   150   154   155    2
   151   136   138   am
   152   136   137    2
