@<TRIPOS>MOLECULE
tmp/4fkkA09.pdb
 149 141 0 0 0
SMALL
GASTEIGER

@<TRIPOS>ATOM
      1  N         36.8250   12.8700   51.0080 N.3   144  GLN144     -0.1245
      2  CA        35.8740   12.7970   52.0920 C.3   144  GLN144      0.1566
      3  C         36.1330   11.4630   52.7970 C.2   144  GLN144      0.2260
      4  O         35.7350   10.4070   52.2980 O.2   144  GLN144     -0.2867
      5  CB        34.4540   12.9030   51.5350 C.3   144  GLN144      0.0367
      6  CG        33.3240   12.5640   52.5020 C.3   144  GLN144      0.0905
      7  CD        33.1210   13.6220   53.5650 C.2   144  GLN144      0.2608
      8  OE1       33.6710   14.7270   53.4900 O.2   144  GLN144     -0.2717
      9  NE2       32.3220   13.2930   54.5680 N.am  144  GLN144     -0.0878
     10  N         35.2010   10.7220   56.0750 N.3   146  GLN146     -0.1231
     11  CA        34.1620   10.3640   57.0160 C.3   146  GLN146      0.1698
     12  C         33.1650    9.3800   56.4630 C.2   146  GLN146      0.2592
     13  O         32.5840    9.6340   55.4280 O.2   146  GLN146     -0.2718
     14  CB        33.4160   11.6060   57.3840 C.3   146  GLN146      0.0381
     15  CG        33.8440   12.0990   58.7330 C.3   146  GLN146      0.0905
     16  CD        32.7930   11.8540   59.7580 C.2   146  GLN146      0.2608
     17  OE1       32.2700   12.7900   60.3400 O.2   146  GLN146     -0.2717
     18  NE2       32.4600   10.6000   59.9660 N.am  146  GLN146     -0.0878
     19  N         32.9710    8.2470   57.1310 N.am  147  SER147     -0.1952
     20  CA        33.7580    7.8620   58.3050 C.3   147  SER147      0.1924
     21  C         34.7890    6.7560   58.0800 C.2   147  SER147      0.2314
     22  O         35.7860    6.6970   58.7980 O.2   147  SER147     -0.2863
     23  CB        32.8670    7.4760   59.4930 C.3   147  SER147      0.2116
     24  OG        31.4950    7.5370   59.1860 O.3   147  SER147     -0.2180
     25  N         27.6390   15.6730   50.9400 N.3   284  ALA284     -0.1231
     26  CA        27.8620   15.4780   52.3680 C.3   284  ALA284      0.1694
     27  C         27.4870   16.7280   53.2130 C.2   284  ALA284      0.2593
     28  O         27.3130   16.6190   54.4510 O.2   284  ALA284     -0.2718
     29  CB        29.3090   15.0560   52.6210 C.3   284  ALA284      0.0304
     30  N         27.3620   17.8950   52.5560 N.am  285  GLY285     -0.1942
     31  CA        27.0080   19.1510   53.2460 C.3   285  GLY285      0.2014
     32  C         28.1900   19.9710   53.7810 C.2   285  GLY285      0.2639
     33  O         28.4440   21.1100   53.3100 O.2   285  GLY285     -0.2714
     34  N         28.8950   19.4150   54.7800 N.am  286  ALA286     -0.1963
     35  CA        30.1400   20.0000   55.3010 C.3   286  ALA286      0.1728
     36  C         30.8840   18.9920   56.1210 C.2   286  ALA286      0.2616
     37  O         30.2610   18.1130   56.7160 O.2   286  ALA286     -0.2715
     38  CB        29.8780   21.2330   56.1310 C.3   286  ALA286      0.0334
     39  N         32.2110   19.1160   56.1780 N.am  287  MET287     -0.1963
     40  CA        33.0190   18.1070   56.8690 C.3   287  MET287      0.1736
     41  C         34.2080   18.7610   57.5900 C.2   287  MET287      0.2616
     42  O         35.0040   19.4820   56.9870 O.2   287  MET287     -0.2715
     43  CB        33.4500   16.9780   55.9000 C.3   287  MET287      0.0427
     44  CG        34.4390   16.0070   56.5040 C.3   287  MET287      0.0599
     45  SD        33.6500   15.2220   57.8930 S.3   287  MET287     -0.1393
     46  CE        35.0700   14.5910   58.7840 C.3   287  MET287      0.0692
     47  N         34.3180   18.4930   58.8860 N.am  288  GLU288     -0.1977
     48  CA        35.1720   19.2630   59.7520 C.3   288  GLU288      0.1602
     49  C         36.6920   18.9300   59.6900 C.2   288  GLU288      0.2287
     50  O         37.4020   19.0860   60.7240 O.2   288  GLU288     -0.2864
     51  CB        34.6740   19.0960   61.1760 C.3   288  GLU288      0.0415
     52  CG        34.9380   17.7220   61.7630 C.3   288  GLU288      0.1163
     53  CD        33.7720   16.7900   61.6170 C.2   288  GLU288      0.3649
     54  OE1       32.8370   17.0880   60.8120 O.co2 288  GLU288     -0.2457
     55  OE2       33.7970   15.7730   62.3540 O.co2 288  GLU288     -0.2457
     56  N         22.2110   30.1360   57.5950 N.3   314  ARG314     -0.1245
     57  CA        22.7620   28.8410   57.2630 C.3   314  ARG314      0.1563
     58  C         24.2940   28.9170   57.1820 C.2   314  ARG314      0.2260
     59  O         24.9910   28.0760   57.7570 O.2   314  ARG314     -0.2867
     60  CB        22.1290   28.2820   55.9740 C.3   314  ARG314      0.0307
     61  CG        22.9240   27.1470   55.3220 C.3   314  ARG314      0.0489
     62  CD        22.1170   26.4510   54.2410 C.3   314  ARG314      0.2205
     63  NE        22.8840   25.4600   53.4790 N.pl3 314  ARG314     -0.0865
     64  CZ        23.0240   24.1730   53.8140 C.cat 314  ARG314      0.5346
     65  NH1       22.4710   23.6860   54.9250 N.pl3 314  ARG314      0.1354
     66  NH2       23.7280   23.3620   53.0340 N.pl3 314  ARG314      0.1354
     67  N         26.5620   26.9580   59.9000 N.3   318  VAL318     -0.1245
     68  CA        27.3400   25.8250   59.3690 C.3   318  VAL318      0.1561
     69  C         28.8270   25.9950   59.6770 C.2   318  VAL318      0.2260
     70  O         29.4820   25.0350   60.1240 O.2   318  VAL318     -0.2867
     71  CB        27.1390   25.5470   57.8630 C.3   318  VAL318      0.0252
     72  CG1       28.1250   24.4970   57.4060 C.3   318  VAL318      0.0019
     73  CG2       25.7610   24.9840   57.5940 C.3   318  VAL318      0.0019
     74  N         29.3930   25.4180   63.2900 N.3   321  HIS321     -0.1226
     75  CA        29.3370   23.9830   63.5760 C.3   321  HIS321      0.1752
     76  C         30.6850   23.2750   63.3110 C.2   321  HIS321      0.2595
     77  O         31.2400   22.5520   64.1800 O.2   321  HIS321     -0.2718
     78  CB        28.2100   23.3320   62.7780 C.3   321  HIS321      0.0759
     79  CG        28.0740   21.8610   63.0270 C.ar  321  HIS321      0.0818
     80  ND1       27.0500   21.3270   63.7720 N.ar  321  HIS321     -0.2268
     81  CD2       28.8460   20.8110   62.6490 C.ar  321  HIS321      0.1154
     82  CE1       27.1810   20.0110   63.8220 C.ar  321  HIS321      0.1986
     83  NE2       28.2610   19.6730   63.1450 N.ar  321  HIS321     -0.2212
     84  N         31.2040   23.4790   62.1070 N.am  322  GLU322     -0.1979
     85  CA        32.4030   22.7830   61.7030 C.3   322  GLU322      0.1602
     86  C         33.5650   23.2940   62.5130 C.2   322  GLU322      0.2287
     87  O         34.4580   22.5140   62.8640 O.2   322  GLU322     -0.2864
     88  CB        32.6850   22.9530   60.2210 C.3   322  GLU322      0.0415
     89  CG        31.5970   22.4400   59.2760 C.3   322  GLU322      0.1163
     90  CD        30.9870   21.1020   59.6440 C.2   322  GLU322      0.3649
     91  OE1       29.7740   20.9320   59.4450 O.co2 322  GLU322     -0.2457
     92  OE2       31.6930   20.2110   60.1270 O.co2 322  GLU322     -0.2457
     93  N         34.1050   21.6780   65.9150 N.3   325  HIS325     -0.1241
     94  CA        34.7580   20.3800   65.9100 C.3   325  HIS325      0.1621
     95  C         36.2740   20.4880   66.0160 C.2   325  HIS325      0.2264
     96  O         36.9260   19.5360   66.4650 O.2   325  HIS325     -0.2867
     97  CB        34.4150   19.6090   64.6450 C.3   325  HIS325      0.0745
     98  CG        33.0640   18.9590   64.6670 C.ar  325  HIS325      0.0817
     99  ND1       32.7150   17.9880   65.5870 N.ar  325  HIS325     -0.2268
    100  CD2       31.9860   19.1150   63.8550 C.ar  325  HIS325      0.1154
    101  CE1       31.4770   17.5870   65.3470 C.ar  325  HIS325      0.1986
    102  NE2       31.0120   18.2540   64.3040 N.ar  325  HIS325     -0.2212
    103  N         28.7270   15.0240   67.5970 N.3   344  GLU344     -0.1245
    104  CA        27.8010   15.7860   66.7430 C.3   344  GLU344      0.1567
    105  C         26.7060   16.5330   67.5150 C.2   344  GLU344      0.2260
    106  O         26.1940   17.5810   67.0700 O.2   344  GLU344     -0.2867
    107  CB        27.2050   14.9070   65.6510 C.3   344  GLU344      0.0388
    108  CG        28.2600   14.3430   64.7240 C.3   344  GLU344      0.1160
    109  CD        28.8370   15.4040   63.7980 C.2   344  GLU344      0.3649
    110  OE1       29.8820   15.1430   63.1300 O.co2 344  GLU344     -0.2457
    111  OE2       28.2290   16.5070   63.7460 O.co2 344  GLU344     -0.2457
    112  N         26.3000   20.4940   67.3040 N.3   348  SER348     -0.1217
    113  CA        24.9430   21.0020   67.0460 C.3   348  SER348      0.1889
    114  C         24.4450   22.0160   68.0830 C.2   348  SER348      0.2288
    115  O         23.5850   22.8710   67.8060 O.2   348  SER348     -0.2866
    116  CB        23.9700   19.8550   66.9860 C.3   348  SER348      0.2089
    117  OG        24.2650   19.0940   65.8680 O.3   348  SER348     -0.2183
    118  N         27.3280   25.3420   67.8420 N.3   351  GLU351     -0.1245
    119  CA        27.1360   26.1180   66.6110 C.3   351  GLU351      0.1567
    120  C         26.3640   27.4270   66.9160 C.2   351  GLU351      0.2260
    121  O         26.8110   28.5200   66.5360 O.2   351  GLU351     -0.2867
    122  CB        26.4800   25.2820   65.4770 C.3   351  GLU351      0.0388
    123  CG        24.9530   25.1100   65.4830 C.3   351  GLU351      0.1160
    124  CD        24.4420   24.2830   64.3060 C.2   351  GLU351      0.3649
    125  OE1       23.5700   24.7610   63.5640 O.co2 351  GLU351     -0.2457
    126  OE2       24.8940   23.1480   64.0990 O.co2 351  GLU351     -0.2457
    127  N         24.6510    8.4730   62.3340 N.3   405  PHE405     -0.1241
    128  CA        24.5220    9.8350   61.8780 C.3   405  PHE405      0.1605
    129  C         23.0690   10.2270   61.6340 C.2   405  PHE405      0.2264
    130  O         22.6660   10.3720   60.4930 O.2   405  PHE405     -0.2867
    131  CB        25.3360    9.9800   60.5700 C.3   405  PHE405      0.0534
    132  CG        26.8170   10.0020   60.7960 C.ar  405  PHE405     -0.0203
    133  CD1       27.4990    8.8400   61.0330 C.ar  405  PHE405     -0.0042
    134  CD2       27.5160   11.2010   60.8520 C.ar  405  PHE405     -0.0042
    135  CE1       28.8580    8.8400   61.2760 C.ar  405  PHE405     -0.0003
    136  CE2       28.8850   11.2100   61.1010 C.ar  405  PHE405     -0.0003
    137  CZ        29.5500   10.0190   61.3090 C.ar  405  PHE405     -0.0000
    138  N         22.3140   14.0310   66.3810 N.3   410  TYR410     -0.1241
    139  CA        22.5320   15.4870   66.2170 C.3   410  TYR410      0.1605
    140  C         21.6280   16.3270   67.1160 C.2   410  TYR410      0.2264
    141  O         22.1090   17.0970   67.9820 O.2   410  TYR410     -0.2867
    142  CB        22.3340   15.9430   64.7560 C.3   410  TYR410      0.0534
    143  CG        23.4600   15.5500   63.8210 C.ar  410  TYR410     -0.0201
    144  CD1       23.6570   14.2070   63.4600 C.ar  410  TYR410     -0.0009
    145  CD2       24.3320   16.5100   63.2890 C.ar  410  TYR410     -0.0009
    146  CE1       24.6680   13.8400   62.6060 C.ar  410  TYR410      0.0417
    147  CE2       25.3520   16.1510   62.4180 C.ar  410  TYR410      0.0417
    148  CZ        25.5260   14.8110   62.0840 C.ar  410  TYR410      0.1957
    149  OH        26.5500   14.4060   61.2200 O.3   410  TYR410     -0.2866
@<TRIPOS>BOND
     1    25    26    1
     2     1     2    1
     3     5     2    1
     4     5     6    1
     5     2     3    1
     6     4     3    2
     7    26    29    1
     8    26    27    1
     9     6     7    1
    10    30    27   am
    11    30    31    1
    12    66    64    1
    13    27    28    2
    14    31    32    1
    15    33    32    2
    16    63    64    2
    17    63    62    1
    18     8     7    2
    19     7     9   am
    20    32    34   am
    21    64    65    1
    22    62    61    1
    23    34    35    1
    24    35    36    1
    25    35    38    1
    26    61    60    1
    27    13    12    2
    28    43    44    1
    29    43    40    1
    30    60    57    1
    31    10    11    1
    32    36    39   am
    33    36    37    2
    34    39    40    1
    35    12    11    1
    36    12    19   am
    37    44    45    1
    38    40    41    1
    39    42    41    2
    40    11    14    1
    41    19    20    1
    42    58    57    1
    43    58    59    2
    44    57    56    1
    45    14    15    1
    46    72    71    1
    47    41    47   am
    48    73    71    1
    49    71    68    1
    50    45    46    1
    51    21    20    1
    52    21    22    2
    53    20    23    1
    54    15    16    1
    55    47    48    1
    56    24    23    1
    57    89    90    1
    58    89    88    1
    59    68    69    1
    60    68    67    1
    61    91    90   ar
    62    90    92   ar
    63    69    70    2
    64    49    48    1
    65    49    50    2
    66    48    51    1
    67    16    18   am
    68    16    17    2
    69    88    85    1
    70   130   129    2
    71   131   132    1
    72   131   128    1
    73   132   134   ar
    74   132   133   ar
    75    54    53   ar
    76   134   136   ar
    77   133   135   ar
    78   136   137   ar
    79    51    52    1
    80   149   148    1
    81   135   137   ar
    82    53    52    1
    83    53    55   ar
    84   129   128    1
    85    85    84    1
    86    85    86    1
    87   128   127    1
    88   148   147   ar
    89   148   146   ar
    90    84    76   am
    91   147   145   ar
    92    86    87    2
    93   146   144   ar
    94    81    79   ar
    95    81    83   ar
    96    78    79    1
    97    78    75    1
    98    79    80   ar
    99   110   109   ar
   100    83    82   ar
   101   145   143   ar
   102    74    75    1
   103    76    75    1
   104    76    77    2
   105   144   143   ar
   106   125   124   ar
   107   111   109   ar
   108    80    82   ar
   109   109   108    1
   110   143   142    1
   111   100   102   ar
   112   100    98   ar
   113   126   124   ar
   114   102   101   ar
   115   124   123    1
   116    97    98    1
   117    97    94    1
   118    98    99   ar
   119   108   107    1
   120   142   139    1
   121   101    99   ar
   122   122   123    1
   123   122   119    1
   124   107   104    1
   125   117   116    1
   126    94    93    1
   127    94    95    1
   128    95    96    2
   129   139   138    1
   130   139   140    1
   131   121   120    2
   132   119   120    1
   133   119   118    1
   134   104   105    1
   135   104   103    1
   136   116   113    1
   137   113   112    1
   138   113   114    1
   139   106   105    2
   140   140   141    2
   141   115   114    2
