@<TRIPOS>MOLECULE
tmp/4fkkA08.pdb
 77 71 0 0 0
SMALL
GASTEIGER

@<TRIPOS>ATOM
      1  N         20.0390   37.0040   68.1200 N.3   363  ASN363     -0.1240
      2  CA        19.3540   36.1010   69.0400 C.3   363  ASN363      0.1653
      3  C         19.3120   34.6290   68.5730 C.2   363  ASN363      0.2266
      4  O         18.3270   33.9280   68.8090 O.2   363  ASN363     -0.2867
      5  CB        17.9130   36.5750   69.2290 C.3   363  ASN363      0.1155
      6  CG        17.7890   37.6900   70.2330 C.2   363  ASN363      0.2627
      7  OD1       18.1970   37.5450   71.3860 O.2   363  ASN363     -0.2716
      8  ND2       17.1770   38.7980   69.8130 N.am  363  ASN363     -0.0877
      9  N         18.0250   31.1070   70.3750 N.3   366  ASP366     -0.1239
     10  CA        16.5920   30.7610   70.3490 C.3   366  ASP366      0.1674
     11  C         16.2300   29.6520   69.3340 C.2   366  ASP366      0.2266
     12  O         15.3420   28.8350   69.5780 O.2   366  ASP366     -0.2867
     13  CB        15.7420   32.0210   70.0520 C.3   366  ASP366      0.1410
     14  CG        15.7900   33.0640   71.1740 C.2   366  ASP366      0.3668
     15  OD1       16.4970   32.8190   72.1820 O.co2 366  ASP366     -0.2456
     16  OD2       15.1180   34.1280   71.0400 O.co2 366  ASP366     -0.2456
     17  N         10.0240   34.6240   87.7530 N.3   530  MET530     -0.1245
     18  CA        10.8130   33.3990   87.8660 C.3   530  MET530      0.1570
     19  C         10.7200   32.7820   89.2460 C.2   530  MET530      0.2261
     20  O         10.9820   33.4660   90.2310 O.2   530  MET530     -0.2867
     21  CB        12.2830   33.7120   87.5810 C.3   530  MET530      0.0387
     22  CG        12.6270   33.8390   86.1050 C.3   530  MET530      0.0595
     23  SD        12.2410   32.3440   85.1600 S.3   530  MET530     -0.1393
     24  CE        13.1470   31.0710   86.0550 C.3   530  MET530      0.0692
     25  N         11.1660   27.0380   81.4290 N.3   559  VAL559     -0.1231
     26  CA        11.3870   28.3560   80.8560 C.3   559  VAL559      0.1692
     27  C         12.3300   28.2700   79.6680 C.2   559  VAL559      0.2592
     28  O         13.3880   27.6520   79.7470 O.2   559  VAL559     -0.2718
     29  CB        11.9530   29.3570   81.8700 C.3   559  VAL559      0.0266
     30  CG1       11.9180   30.7520   81.2690 C.3   559  VAL559      0.0020
     31  CG2       11.1460   29.3150   83.1540 C.3   559  VAL559      0.0020
     32  N         11.9240   28.8710   78.5600 N.am  560  ASN560     -0.1974
     33  CA        12.7400   28.8570   77.3840 C.3   560  ASN560      0.1688
     34  C         12.9880   27.4340   76.8530 C.2   560  ASN560      0.2292
     35  O         13.8710   27.2250   76.0290 O.2   560  ASN560     -0.2864
     36  CB        14.0490   29.5870   77.6800 C.3   560  ASN560      0.1181
     37  CG        13.9200   31.1000   77.5530 C.2   560  ASN560      0.2629
     38  OD1       13.0170   31.6070   76.8710 O.2   560  ASN560     -0.2716
     39  ND2       14.8380   31.8370   78.2070 N.am  560  ASN560     -0.0877
     40  N         14.4640   24.8390   78.0160 N.3   562  THR562     -0.1218
     41  CA        15.8190   24.3530   78.1980 C.3   562  THR562      0.1862
     42  C         15.7920   22.8510   78.5400 C.2   562  THR562      0.2287
     43  O         16.7380   22.1050   78.2490 O.2   562  THR562     -0.2866
     44  CB        16.5460   25.1390   79.3060 C.3   562  THR562      0.1770
     45  OG1       15.8430   24.9670   80.5340 O.3   562  THR562     -0.2211
     46  CG2       16.6140   26.6430   78.9970 C.3   562  THR562      0.0375
     47  N          7.7640   34.7310   78.3780 N.3   589  PRO589     -0.2102
     48  CA         8.9340   34.7730   77.4890 C.3   589  PRO589      0.1504
     49  C          8.6020   34.1900   76.1090 C.2   589  PRO589      0.2576
     50  O          7.9350   33.1410   76.0100 O.2   589  PRO589     -0.2718
     51  CB         9.9690   33.9180   78.2220 C.3   589  PRO589      0.0282
     52  CG         9.5130   33.9080   79.6450 C.3   589  PRO589      0.0208
     53  CD         8.0240   33.9400   79.5950 C.3   589  PRO589      0.0893
     54  N          9.0470   34.8880   75.0640 N.am  590  VAL590     -0.1966
     55  CA         8.6860   34.5630   73.6830 C.3   590  VAL590      0.1727
     56  C          8.8810   33.0800   73.2770 C.2   590  VAL590      0.2616
     57  O          8.1740   32.5840   72.4000 O.2   590  VAL590     -0.2715
     58  CB         9.3590   35.5320   72.6900 C.3   590  VAL590      0.0290
     59  CG1       10.8760   35.4390   72.7890 C.3   590  VAL590      0.0023
     60  CG2        8.8720   35.2810   71.2750 C.3   590  VAL590      0.0023
     61  N          9.8040   32.3730   73.9220 N.am  591  ILE591     -0.1977
     62  CA        10.0060   30.9460   73.6340 C.3   591  ILE591      0.1596
     63  C          8.8670   30.1110   74.2300 C.2   591  ILE591      0.2287
     64  O          8.3730   29.1520   73.6250 O.2   591  ILE591     -0.2864
     65  CB        11.4210   30.4680   74.0780 C.3   591  ILE591      0.0276
     66  CG1       12.4750   30.9770   73.0990 C.3   591  ILE591      0.0022
     67  CG2       11.5360   28.9510   74.1550 C.3   591  ILE591      0.0022
     68  CD1       13.8710   30.9090   73.6660 C.3   591  ILE591      0.0001
     69  N          6.0670   38.4260   67.1490 N.3   626  GLU626     -0.1245
     70  CA         7.3280   37.6910   67.1890 C.3   626  GLU626      0.1567
     71  C          7.3650   36.3810   66.3980 C.2   626  GLU626      0.2260
     72  O          6.3730   35.6590   66.3140 O.2   626  GLU626     -0.2867
     73  CB         7.8260   37.5480   68.6290 C.3   626  GLU626      0.0388
     74  CG         8.0770   38.9090   69.2780 C.3   626  GLU626      0.1160
     75  CD         9.0010   38.8290   70.4780 C.2   626  GLU626      0.3649
     76  OE1       10.0930   38.2480   70.3530 O.co2 626  GLU626     -0.2457
     77  OE2        8.6400   39.3500   71.5530 O.co2 626  GLU626     -0.2457
@<TRIPOS>BOND
     1    72    71    2
     2    71    70    1
     3    69    70    1
     4    70    73    1
     5     1     2    1
     6     3     4    2
     7     3     2    1
     8    73    74    1
     9     2     5    1
    10     5     6    1
    11    74    75    1
    12    11    12    2
    13    11    10    1
    14     8     6   am
    15    13    10    1
    16    13    14    1
    17     6     7    2
    18    10     9    1
    19    76    75   ar
    20    75    77   ar
    21    16    14   ar
    22    14    15   ar
    23    60    58    1
    24    57    56    2
    25    58    59    1
    26    58    55    1
    27    66    68    1
    28    66    65    1
    29    56    55    1
    30    56    61   am
    31    64    63    2
    32    62    61    1
    33    62    65    1
    34    62    63    1
    35    55    54    1
    36    65    67    1
    37    54    49   am
    38    50    49    2
    39    35    34    2
    40    49    48    1
    41    34    33    1
    42    38    37    2
    43    33    36    1
    44    33    32    1
    45    48    51    1
    46    48    47    1
    47    37    36    1
    48    37    39   am
    49    40    41    1
    50    41    42    1
    51    41    44    1
    52    51    52    1
    53    43    42    2
    54    47    53    1
    55    32    27   am
    56    46    44    1
    57    44    45    1
    58    53    52    1
    59    27    28    2
    60    27    26    1
    61    26    25    1
    62    26    29    1
    63    30    29    1
    64    29    31    1
    65    23    24    1
    66    23    22    1
    67    22    21    1
    68    21    18    1
    69    17    18    1
    70    18    19    1
    71    19    20    2
