@<TRIPOS>MOLECULE
tmp/4fkoA00.pdb
 184 175 0 0 0
SMALL
GASTEIGER

@<TRIPOS>ATOM
      1  N          0.6460  -11.1860   36.9240 N.3     8  GLU8       -0.1245
      2  CA         0.3200  -12.3570   36.1040 C.3     8  GLU8        0.1567
      3  C          0.8010  -12.1690   34.6680 C.2     8  GLU8        0.2260
      4  O          0.9850  -11.0350   34.2360 O.2     8  GLU8       -0.2867
      5  CB        -1.2010  -12.6330   36.1070 C.3     8  GLU8        0.0388
      6  CG        -2.0470  -11.4220   35.7390 C.3     8  GLU8        0.1160
      7  CD        -3.5420  -11.5910   35.9030 C.2     8  GLU8        0.3649
      8  OE1       -3.9810  -12.0150   36.9970 O.co2   8  GLU8       -0.2457
      9  OE2       -4.2780  -11.2520   34.9490 O.co2   8  GLU8       -0.2457
     10  N          0.3120  -11.9560   30.7520 N.3    10  ILE10      -0.1231
     11  CA        -0.8260  -11.5310   29.9430 C.3    10  ILE10       0.1692
     12  C         -0.5710  -11.7640   28.4390 C.2    10  ILE10       0.2593
     13  O         -1.5030  -11.6600   27.6490 O.2    10  ILE10      -0.2718
     14  CB        -1.2640  -10.0600   30.2350 C.3    10  ILE10       0.0266
     15  CG1       -0.1440   -9.0400   29.9400 C.3    10  ILE10       0.0019
     16  CG2       -1.8400   -9.9070   31.6510 C.3    10  ILE10       0.0020
     17  CD1       -0.5440   -7.5270   29.9790 C.3    10  ILE10       0.0001
     18  N          0.6630  -12.0590   28.0550 N.am   11  GLY11      -0.1942
     19  CA         0.9580  -12.2780   26.6480 C.3    11  GLY11       0.2014
     20  C          2.3480  -12.7730   26.3600 C.2    11  GLY11       0.2639
     21  O          3.2200  -12.7500   27.2300 O.2    11  GLY11      -0.2714
     22  N          2.5300  -13.2640   25.1280 N.am   12  GLU12      -0.1963
     23  CA         3.7850  -13.7760   24.5950 C.3    12  GLU12       0.1733
     24  C          3.8650  -13.3530   23.1420 C.2    12  GLU12       0.2616
     25  O          3.1180  -13.8720   22.3090 O.2    12  GLU12      -0.2715
     26  CB         3.8930  -15.3150   24.7350 C.3    12  GLU12       0.0429
     27  CG         3.8790  -15.8350   26.1620 C.3    12  GLU12       0.1163
     28  CD         5.0290  -16.7380   26.5600 C.2    12  GLU12       0.3649
     29  OE1        6.1900  -16.2680   26.5490 O.co2  12  GLU12      -0.2457
     30  OE2        4.7590  -17.8930   26.9600 O.co2  12  GLU12      -0.2457
     31  N          4.7180  -12.3720   22.8630 N.am   13  GLY13      -0.1955
     32  CA         4.9390  -11.8610   21.5160 C.3    13  GLY13       0.1869
     33  C          5.9390  -12.7110   20.7670 C.2    13  GLY13       0.2309
     34  O          6.2000  -13.8500   21.1660 O.2    13  GLY13      -0.2863
     35  N          4.9410  -10.8040   28.0690 N.3    18  VAL18      -0.1245
     36  CA         4.3540   -9.6030   28.6570 C.3    18  VAL18       0.1561
     37  C          3.6140   -9.9640   29.9500 C.2    18  VAL18       0.2260
     38  O          2.8660  -10.9380   29.9970 O.2    18  VAL18      -0.2867
     39  CB         3.4270   -8.8660   27.6450 C.3    18  VAL18       0.0252
     40  CG1        3.0080   -7.5040   28.1860 C.3    18  VAL18       0.0019
     41  CG2        4.1120   -8.6980   26.2820 C.3    18  VAL18       0.0019
     42  N          1.4220   -8.4010   33.5010 N.3    20  LYS20      -0.1245
     43  CA         0.7950   -7.3190   34.2360 C.3    20  LYS20       0.1561
     44  C          1.6820   -7.1690   35.4920 C.2    20  LYS20       0.2260
     45  O          2.0140   -8.1760   36.1430 O.2    20  LYS20      -0.2867
     46  CB        -0.6530   -7.6770   34.5830 C.3    20  LYS20       0.0271
     47  CG        -1.3690   -6.6260   35.4460 C.3    20  LYS20       0.0035
     48  CD        -2.8060   -7.0100   35.7080 C.3    20  LYS20       0.0206
     49  CE        -3.5550   -5.8890   36.3780 C.3    20  LYS20       0.1093
     50  NZ        -4.9740   -6.2540   36.6620 N.3    20  LYS20      -0.1314
     51  N          2.0040   -2.8290   31.9030 N.3    31  ALA31      -0.1245
     52  CA         2.2990   -4.0140   31.1270 C.3    31  ALA31       0.1562
     53  C          3.8130   -4.0130   30.9240 C.2    31  ALA31       0.2260
     54  O          4.3630   -3.0620   30.3440 O.2    31  ALA31      -0.2867
     55  CB         1.5540   -3.9920   29.8020 C.3    31  ALA31       0.0290
     56  N          7.0640   -5.8000   29.2280 N.3    33  LYS33      -0.1245
     57  CA         7.5400   -6.7290   28.2040 C.3    33  LYS33       0.1561
     58  C          8.9990   -7.0230   28.4910 C.2    33  LYS33       0.2260
     59  O          9.8170   -6.1030   28.6140 O.2    33  LYS33      -0.2867
     60  CB         7.3350   -6.1790   26.7860 C.3    33  LYS33       0.0271
     61  CG         7.7280   -7.1490   25.6800 C.3    33  LYS33       0.0035
     62  CD         7.5810   -6.5070   24.2920 C.3    33  LYS33       0.0206
     63  CE         8.0210   -7.4460   23.1960 C.3    33  LYS33       0.1093
     64  NZ         8.1500   -6.7520   21.8840 N.3    33  LYS33      -0.1314
     65  N         -0.7400    2.8120   22.5930 N.3    57  VAL57      -0.1245
     66  CA        -0.4210    2.4450   23.9950 C.3    57  VAL57       0.1561
     67  C          0.9020    3.1660   24.3680 C.2    57  VAL57       0.2260
     68  O          1.8980    3.0380   23.6460 O.2    57  VAL57      -0.2867
     69  CB        -0.3210    0.8980   24.1710 C.3    57  VAL57       0.0252
     70  CG1        0.1870    0.5260   25.5770 C.3    57  VAL57       0.0019
     71  CG2       -1.6820    0.2600   23.9520 C.3    57  VAL57       0.0019
     72  N          4.8750   -0.4610   29.5270 N.3    73  PHE73      -0.1227
     73  CA         3.7730    0.1850   28.8410 C.3    73  PHE73       0.1736
     74  C          2.6700    0.5240   29.8040 C.2    73  PHE73       0.2595
     75  O          2.5010   -0.1460   30.8200 O.2    73  PHE73      -0.2718
     76  CB         3.1750   -0.7940   27.8230 C.3    73  PHE73       0.0547
     77  CG         4.0660   -1.1400   26.6590 C.ar   73  PHE73      -0.0202
     78  CD1        4.0230   -0.3940   25.4840 C.ar   73  PHE73      -0.0042
     79  CD2        4.8990   -2.2430   26.7100 C.ar   73  PHE73      -0.0042
     80  CE1        4.8050   -0.7540   24.3730 C.ar   73  PHE73      -0.0003
     81  CE2        5.7110   -2.5820   25.6170 C.ar   73  PHE73      -0.0003
     82  CZ         5.6740   -1.8260   24.4650 C.ar   73  PHE73      -0.0000
     83  N          1.8790    1.5190   29.4600 N.am   74  GLU74      -0.1965
     84  CA         0.6470    1.7390   30.2190 C.3    74  GLU74       0.1733
     85  C         -0.2070    0.4770   30.0870 C.2    74  GLU74       0.2616
     86  O         -0.1550   -0.2110   29.0500 O.2    74  GLU74      -0.2715
     87  CB        -0.1250    2.9700   29.7300 C.3    74  GLU74       0.0429
     88  CG        -0.6560    2.8540   28.3380 C.3    74  GLU74       0.1163
     89  CD        -1.6780    3.8920   27.9430 C.2    74  GLU74       0.3649
     90  OE1       -1.6230    4.3250   26.7760 O.co2  74  GLU74      -0.2457
     91  OE2       -2.4900    4.3140   28.7980 O.co2  74  GLU74      -0.2457
     92  N         -1.0020    0.1820   31.1230 N.am   75  PHE75      -0.1960
     93  CA        -1.8470   -1.0090   31.1120 C.3    75  PHE75       0.1771
     94  C         -3.2610   -0.7220   30.6150 C.2    75  PHE75       0.2619
     95  O         -3.9020    0.2130   31.1000 O.2    75  PHE75      -0.2715
     96  CB        -1.9310   -1.6130   32.5320 C.3    75  PHE75       0.0574
     97  CG        -2.7270   -2.9000   32.6270 C.ar   75  PHE75      -0.0200
     98  CD1       -2.2070   -4.0990   32.1400 C.ar   75  PHE75      -0.0042
     99  CD2       -4.0070   -2.9100   33.1750 C.ar   75  PHE75      -0.0042
    100  CE1       -2.9410   -5.2800   32.2230 C.ar   75  PHE75      -0.0003
    101  CE2       -4.7460   -4.0900   33.2380 C.ar   75  PHE75      -0.0003
    102  CZ        -4.2050   -5.2680   32.7790 C.ar   75  PHE75      -0.0000
    103  N         -3.7370   -1.5250   29.6610 N.am   76  LEU76      -0.1963
    104  CA        -5.1210   -1.4450   29.1860 C.3    76  LEU76       0.1728
    105  C         -5.8470   -2.6850   29.6570 C.2    76  LEU76       0.2616
    106  O         -5.2170   -3.7040   29.9020 O.2    76  LEU76      -0.2715
    107  CB        -5.2070   -1.2360   27.6710 C.3    76  LEU76       0.0311
    108  CG        -5.2000    0.2590   27.3090 C.3    76  LEU76       0.0022
    109  CD1       -3.7820    0.8370   27.2720 C.3    76  LEU76       0.0001
    110  CD2       -6.0300    0.5650   26.0920 C.3    76  LEU76       0.0001
    111  N         -7.1840   -2.6170   29.8060 N.am   77  HIS77      -0.1959
    112  CA        -7.8060   -3.7190   30.5020 C.3    77  HIS77       0.1787
    113  C         -8.1040   -4.9550   29.7370 C.2    77  HIS77       0.2620
    114  O         -8.2360   -6.0110   30.3650 O.2    77  HIS77      -0.2715
    115  CB        -9.0160   -3.2670   31.2770 C.3    77  HIS77       0.0785
    116  CG        -8.5910   -2.9660   32.6800 C.ar   77  HIS77       0.0821
    117  ND1       -8.7690   -3.8890   33.7050 N.ar   77  HIS77      -0.2267
    118  CD2       -7.8440   -1.9380   33.1490 C.ar   77  HIS77       0.1154
    119  CE1       -8.2180   -3.3520   34.7660 C.ar   77  HIS77       0.1986
    120  NE2       -7.6340   -2.1850   34.4820 N.ar   77  HIS77      -0.2212
    121  N         -8.1550   -4.8860   28.3970 N.am   78  GLN78      -0.1963
    122  CA        -8.4260   -6.1060   27.6360 C.3    78  GLN78       0.1733
    123  C         -7.7830   -5.9980   26.2710 C.2    78  GLN78       0.2616
    124  O         -7.5650   -4.8730   25.8110 O.2    78  GLN78      -0.2715
    125  CB        -9.9640   -6.2450   27.4720 C.3    78  GLN78       0.0408
    126  CG       -10.4260   -7.6110   26.9960 C.3    78  GLN78       0.0908
    127  CD       -11.8530   -7.8720   27.4030 C.2    78  GLN78       0.2608
    128  OE1      -12.1700   -8.1280   28.5820 O.2    78  GLN78      -0.2717
    129  NE2      -12.7370   -7.8430   26.4570 N.am   78  GLN78      -0.0878
    130  N         -7.5040   -7.1420   25.5910 N.am   79  ASP79      -0.1971
    131  CA        -7.0840   -7.0540   24.1910 C.3    79  ASP79       0.1709
    132  C         -8.2990   -7.3060   23.2680 C.2    79  ASP79       0.2293
    133  O         -9.3630   -7.7870   23.7050 O.2    79  ASP79      -0.2864
    134  CB        -5.9160   -7.9940   23.8710 C.3    79  ASP79       0.1436
    135  CG        -6.2000   -9.4720   24.0180 C.2    79  ASP79       0.3671
    136  OD1       -7.2970   -9.8260   24.4960 O.co2  79  ASP79      -0.2456
    137  OD2       -5.3240  -10.2610   23.6930 O.co2  79  ASP79      -0.2456
    138  N         -9.5320  -11.1240   23.2100 N.3    82  LYS82      -0.1245
    139  CA       -10.4690  -11.5650   24.2370 C.3    82  LYS82       0.1561
    140  C        -11.8630  -11.0180   23.9500 C.2    82  LYS82       0.2260
    141  O        -12.8420  -11.7410   24.1350 O.2    82  LYS82      -0.2867
    142  CB       -10.0020  -11.1480   25.6520 C.3    82  LYS82       0.0271
    143  CG       -10.9450  -11.6290   26.7710 C.3    82  LYS82       0.0035
    144  CD       -10.4560  -11.2660   28.1570 C.3    82  LYS82       0.0206
    145  CE       -11.2970  -11.9000   29.2430 C.3    82  LYS82       0.1093
    146  NZ       -10.7950  -11.5570   30.6040 N.3    82  LYS82      -0.1314
    147  N         -4.1010   -9.4890   19.3350 N.3   124  GLN124     -0.1231
    148  CA        -3.3980   -9.5350   20.6350 C.3   124  GLN124      0.1698
    149  C         -2.5960   -8.2520   20.9200 C.2   124  GLN124      0.2592
    150  O         -2.2170   -8.0360   22.0850 O.2   124  GLN124     -0.2718
    151  CB        -2.4900  -10.7550   20.7070 C.3   124  GLN124      0.0381
    152  CG        -3.2490  -12.0630   20.7760 C.3   124  GLN124      0.0905
    153  CD        -3.6040  -12.6800   19.4300 C.2   124  GLN124      0.2608
    154  OE1       -3.4710  -12.0930   18.3240 O.2   124  GLN124     -0.2717
    155  NE2       -4.0790  -13.9080   19.5030 N.am  124  GLN124     -0.0878
    156  N         -2.3620   -7.3810   19.9090 N.am  125  ASN125     -0.1974
    157  CA        -1.6750   -6.1310   20.2610 C.3   125  ASN125      0.1688
    158  C         -2.5190   -4.9140   19.9460 C.2   125  ASN125      0.2292
    159  O         -2.0060   -3.7910   19.8310 O.2   125  ASN125     -0.2864
    160  CB        -0.2630   -6.0230   19.6950 C.3   125  ASN125      0.1181
    161  CG        -0.1910   -6.2090   18.2320 C.2   125  ASN125      0.2629
    162  OD1       -1.0800   -5.7430   17.5000 O.2   125  ASN125     -0.2716
    163  ND2        0.9100   -6.8470   17.7640 N.am  125  ASN125     -0.0877
    164  N         -5.4540   -2.9650   21.9530 N.3   127  LEU127     -0.1245
    165  CA        -5.8920   -2.9750   23.3470 C.3   127  LEU127      0.1561
    166  C         -7.0560   -2.0540   23.5560 C.2   127  LEU127      0.2260
    167  O         -7.0850   -0.9720   22.9790 O.2   127  LEU127     -0.2867
    168  CB        -4.7120   -2.5470   24.2480 C.3   127  LEU127      0.0270
    169  CG        -3.6250   -3.5830   24.5260 C.3   127  LEU127      0.0019
    170  CD1       -4.1800   -4.9130   25.0680 C.3   127  LEU127      0.0001
    171  CD2       -2.6840   -3.7390   23.3710 C.3   127  LEU127      0.0001
    172  N         -0.4540   -1.3340   20.1000 N.3   137  ALA137     -0.1231
    173  CA         0.6530   -1.5190   21.0170 C.3   137  ALA137      0.1694
    174  C          1.8290   -2.2030   20.3930 C.2   137  ALA137      0.2592
    175  O          1.6720   -3.0530   19.5300 O.2   137  ALA137     -0.2718
    176  CB         0.2100   -2.3300   22.2150 C.3   137  ALA137      0.0304
    177  N          3.0070   -1.8470   20.9160 N.am  138  ASP138     -0.1974
    178  CA         4.3020   -2.4590   20.6880 C.3   138  ASP138      0.1709
    179  C          4.7160   -2.4590   19.2310 C.2   138  ASP138      0.2293
    180  O          4.7390   -3.4910   18.5760 O.2   138  ASP138     -0.2864
    181  CB         4.2660   -3.8820   21.2740 C.3   138  ASP138      0.1436
    182  CG         5.6090   -4.5470   21.4320 C.2   138  ASP138      0.3671
    183  OD1        6.6470   -3.8260   21.3880 O.co2 138  ASP138     -0.2456
    184  OD2        5.6350   -5.7860   21.5430 O.co2 138  ASP138     -0.2456
@<TRIPOS>BOND
     1   162   161    2
     2   163   161   am
     3   161   160    1
     4   154   153    2
     5   180   179    2
     6   179   178    1
     7   147   148    1
     8   153   155   am
     9   153   152    1
    10   175   174    2
    11   160   157    1
    12   159   158    2
    13   156   157    1
    14   156   149   am
    15   158   157    1
    16   172   173    1
    17   174   177   am
    18   174   173    1
    19   148   151    1
    20   148   149    1
    21   178   177    1
    22   178   181    1
    23   151   152    1
    24    33    34    2
    25    33    32    1
    26   149   150    2
    27   173   176    1
    28   181   182    1
    29   183   182   ar
    30   182   184   ar
    31    32    31    1
    32    64    63    1
    33   164   165    1
    34    25    24    2
    35    65    66    1
    36    31    24   am
    37   167   166    2
    38    24    23    1
    39    63    62    1
    40   138   139    1
    41   132   133    2
    42   132   131    1
    43   165   166    1
    44   165   168    1
    45   171   169    1
    46    68    67    2
    47   137   135   ar
    48   134   135    1
    49   134   131    1
    50   140   141    2
    51   140   139    1
    52    71    69    1
    53    66    69    1
    54    66    67    1
    55   135   136   ar
    56    69    70    1
    57   131   130    1
    58   139   142    1
    59   168   169    1
    60    62    61    1
    61    80    82   ar
    62    80    78   ar
    63    82    81   ar
    64   169   170    1
    65    23    26    1
    66    23    22    1
    67    26    27    1
    68    22    20   am
    69    78    77   ar
    70   130   123   am
    71    81    79   ar
    72   142   143    1
    73    61    60    1
    74   124   123    2
    75   110   108    1
    76    27    28    1
    77   123   122    1
    78    41    39    1
    79    20    19    1
    80    20    21    2
    81   129   127   am
    82    29    28   ar
    83    28    30   ar
    84    19    18    1
    85    77    79   ar
    86    77    76    1
    87   143   144    1
    88    90    89   ar
    89    60    57    1
    90   126   127    1
    91   126   125    1
    92   109   108    1
    93   108   107    1
    94   127   128    2
    95   125   122    1
    96   122   121    1
    97    39    40    1
    98    39    36    1
    99    13    12    2
   100   107   104    1
   101    76    73    1
   102    89    88    1
   103    89    91   ar
   104    18    12   am
   105    35    36    1
   106   144   145    1
   107    57    58    1
   108    57    56    1
   109    88    87    1
   110   121   113   am
   111    12    11    1
   112    58    59    2
   113    36    37    1
   114    73    72    1
   115    73    74    1
   116    86    85    2
   117   104   105    1
   118   104   103    1
   119   145   146    1
   120    83    74   am
   121    83    84    1
   122   105   111   am
   123   105   106    2
   124   103    94   am
   125    87    84    1
   126   113   114    2
   127   113   112    1
   128    55    52    1
   129    74    75    2
   130   111   112    1
   131    15    17    1
   132    15    14    1
   133    11    14    1
   134    11    10    1
   135    37    38    2
   136    85    84    1
   137    85    92   am
   138    14    16    1
   139    54    53    2
   140   112   115    1
   141    94    95    2
   142    94    93    1
   143    53    52    1
   144    93    92    1
   145    93    96    1
   146    52    51    1
   147   115   116    1
   148    98   100   ar
   149    98    97   ar
   150   100   102   ar
   151    96    97    1
   152    97    99   ar
   153   116   118   ar
   154   116   117   ar
   155   102   101   ar
   156   118   120   ar
   157    99   101   ar
   158    42    43    1
   159   117   119   ar
   160    43    46    1
   161    43    44    1
   162     4     3    2
   163   120   119   ar
   164    46    47    1
   165     3     2    1
   166     9     7   ar
   167    47    48    1
   168    44    45    2
   169    48    49    1
   170     6     7    1
   171     6     5    1
   172     7     8   ar
   173     2     5    1
   174     2     1    1
   175    49    50    1
