@<TRIPOS>MOLECULE
tmp/4fkpA00.pdb
 167 160 0 0 0
SMALL
GASTEIGER

@<TRIPOS>ATOM
      1  N          0.2190   10.8910  -37.9220 N.3     8  GLU8       -0.1231
      2  CA        -0.4420   11.8450  -37.0580 C.3     8  GLU8        0.1699
      3  C          0.3490   12.0150  -35.7910 C.2     8  GLU8        0.2592
      4  O          0.8130   11.0320  -35.1870 O.2     8  GLU8       -0.2718
      5  CB        -1.8580   11.2940  -36.7260 C.3     8  GLU8        0.0402
      6  CG        -2.8270   12.2600  -36.0760 C.3     8  GLU8        0.1161
      7  CD        -4.1040   11.5960  -35.5960 C.2     8  GLU8        0.3649
      8  OE1       -4.4970   10.5550  -36.1730 O.co2   8  GLU8       -0.2457
      9  OE2       -4.7020   12.1060  -34.6240 O.co2   8  GLU8       -0.2457
     10  N          0.4940   13.2690  -35.3620 N.am    9  LYS9       -0.1966
     11  CA         1.1510   13.5230  -34.1070 C.3     9  LYS9        0.1728
     12  C          0.0810   13.3270  -33.0400 C.2     9  LYS9        0.2616
     13  O         -0.9340   14.0520  -33.0430 O.2     9  LYS9       -0.2715
     14  CB         1.7120   14.9570  -34.0470 C.3     9  LYS9        0.0311
     15  CG         2.4850   15.2550  -32.7750 C.3     9  LYS9        0.0038
     16  CD         2.8870   16.7410  -32.6630 C.3     9  LYS9        0.0206
     17  CE         4.0730   17.1330  -33.5210 C.3     9  LYS9        0.1093
     18  NZ         4.3610   18.5870  -33.4270 N.3     9  LYS9       -0.1314
     19  N          0.2700   12.3400  -32.1460 N.am   10  ILE10      -0.1977
     20  CA        -0.7030   12.1480  -31.0810 C.3    10  ILE10       0.1596
     21  C         -0.5030   13.2590  -30.0490 C.2    10  ILE10       0.2287
     22  O         -1.4590   13.9660  -29.7030 O.2    10  ILE10      -0.2864
     23  CB        -0.7190   10.7140  -30.5040 C.3    10  ILE10       0.0276
     24  CG1       -0.9480    9.6510  -31.6110 C.3    10  ILE10       0.0022
     25  CG2       -1.7300   10.5870  -29.3650 C.3    10  ILE10       0.0022
     26  CD1       -2.1900    9.8210  -32.5090 C.3    10  ILE10       0.0001
     27  N          4.8100   11.2200  -29.2500 N.3    18  VAL18      -0.1245
     28  CA         4.2160    9.9790  -29.7180 C.3    18  VAL18       0.1561
     29  C          3.5200   10.2750  -31.0320 C.2    18  VAL18       0.2260
     30  O          2.7290   11.2150  -31.1320 O.2    18  VAL18      -0.2867
     31  CB         3.2540    9.3340  -28.6810 C.3    18  VAL18       0.0252
     32  CG1        2.6760    8.0230  -29.2220 C.3    18  VAL18       0.0019
     33  CG2        3.9760    9.0660  -27.3690 C.3    18  VAL18       0.0019
     34  N          2.1280    3.0340  -32.7600 N.3    31  ALA31      -0.1245
     35  CA         2.4140    4.2790  -32.0550 C.3    31  ALA31       0.1562
     36  C          3.9180    4.2910  -31.9460 C.2    31  ALA31       0.2260
     37  O          4.5080    3.2880  -31.5270 O.2    31  ALA31      -0.2867
     38  CB         1.8040    4.2880  -30.6750 C.3    31  ALA31       0.0290
     39  N          7.2890    6.2690  -30.4170 N.3    33  LYS33      -0.1245
     40  CA         7.7460    7.2550  -29.4380 C.3    33  LYS33       0.1561
     41  C          9.2390    7.4590  -29.6670 C.2    33  LYS33       0.2260
     42  O         10.0030    6.4910  -29.6630 O.2    33  LYS33      -0.2867
     43  CB         7.4830    6.7130  -28.0170 C.3    33  LYS33       0.0271
     44  CG         7.7090    7.6980  -26.8970 C.3    33  LYS33       0.0035
     45  CD         7.3440    7.0960  -25.5650 C.3    33  LYS33       0.0206
     46  CE         7.5650    8.0950  -24.4640 C.3    33  LYS33       0.1093
     47  NZ         6.9320    7.6560  -23.1960 N.3    33  LYS33      -0.1314
     48  N         -0.5060   -2.2260  -23.1820 N.3    56  VAL56      -0.1245
     49  CA        -0.2230   -1.8600  -24.5680 C.3    56  VAL56       0.1561
     50  C          1.0960   -2.5340  -24.9340 C.2    56  VAL56       0.2260
     51  O          2.1170   -2.3390  -24.2590 O.2    56  VAL56      -0.2867
     52  CB        -0.2150   -0.3180  -24.7720 C.3    56  VAL56       0.0252
     53  CG1        0.0560    0.0500  -26.2300 C.3    56  VAL56       0.0019
     54  CG2       -1.5370    0.2880  -24.3420 C.3    56  VAL56       0.0019
     55  N          5.0210    0.7750  -30.4260 N.3    72  PHE72      -0.1227
     56  CA         3.9640    0.1510  -29.6570 C.3    72  PHE72       0.1736
     57  C          2.7550   -0.1600  -30.4640 C.2    72  PHE72       0.2595
     58  O          2.4780    0.4760  -31.4840 O.2    72  PHE72      -0.2718
     59  CB         3.5010    1.1130  -28.5440 C.3    72  PHE72       0.0547
     60  CG         4.4680    1.3880  -27.4290 C.ar   72  PHE72      -0.0202
     61  CD1        4.4970    0.5790  -26.3000 C.ar   72  PHE72      -0.0042
     62  CD2        5.3100    2.4870  -27.4770 C.ar   72  PHE72      -0.0042
     63  CE1        5.3540    0.8690  -25.2400 C.ar   72  PHE72      -0.0003
     64  CE2        6.1560    2.7830  -26.4090 C.ar   72  PHE72      -0.0003
     65  CZ         6.1760    1.9640  -25.2990 C.ar   72  PHE72      -0.0000
     66  N          1.9230   -1.0600  -29.9150 N.am   73  GLU73      -0.1965
     67  CA         0.5760   -1.2910  -30.4070 C.3    73  GLU73       0.1733
     68  C         -0.1670    0.0690  -30.3900 C.2    73  GLU73       0.2616
     69  O          0.0580    0.8900  -29.4920 O.2    73  GLU73      -0.2715
     70  CB        -0.1040   -2.2860  -29.4640 C.3    73  GLU73       0.0429
     71  CG        -1.5940   -2.4630  -29.6270 C.3    73  GLU73       0.1163
     72  CD        -2.2440   -3.2210  -28.4910 C.2    73  GLU73       0.3649
     73  OE1       -1.5510   -3.5480  -27.5010 O.co2  73  GLU73      -0.2457
     74  OE2       -3.4740   -3.4290  -28.5680 O.co2  73  GLU73      -0.2457
     75  N         -1.0250    0.3100  -31.4080 N.am   74  PHE74      -0.1960
     76  CA        -1.8010    1.5440  -31.4630 C.3    74  PHE74       0.1771
     77  C         -3.2600    1.3090  -31.0160 C.2    74  PHE74       0.2619
     78  O         -3.9080    0.3410  -31.4670 O.2    74  PHE74      -0.2715
     79  CB        -1.8190    2.0850  -32.9010 C.3    74  PHE74       0.0574
     80  CG        -2.6210    3.3430  -33.0900 C.ar   74  PHE74      -0.0200
     81  CD1       -2.0930    4.5860  -32.7420 C.ar   74  PHE74      -0.0042
     82  CD2       -3.9140    3.2970  -33.6220 C.ar   74  PHE74      -0.0042
     83  CE1       -2.8550    5.7510  -32.8920 C.ar   74  PHE74      -0.0003
     84  CE2       -4.6710    4.4550  -33.7460 C.ar   74  PHE74      -0.0003
     85  CZ        -4.1300    5.6740  -33.3970 C.ar   74  PHE74      -0.0000
     86  N         -3.8020    2.2430  -30.2150 N.am   75  LEU75      -0.1963
     87  CA        -5.2040    2.2880  -29.8560 C.3    75  LEU75       0.1728
     88  C         -5.6950    3.6880  -30.1980 C.2    75  LEU75       0.2616
     89  O         -4.9190    4.6480  -30.1230 O.2    75  LEU75      -0.2715
     90  CB        -5.5220    1.9490  -28.3850 C.3    75  LEU75       0.0311
     91  CG        -5.4130    0.4580  -28.0160 C.3    75  LEU75       0.0022
     92  CD1       -3.9830    0.1030  -27.6590 C.3    75  LEU75       0.0001
     93  CD2       -6.3110    0.1400  -26.8130 C.3    75  LEU75       0.0001
     94  N         -6.9660    3.8030  -30.5440 N.am   76  HIS76      -0.1959
     95  CA        -7.5040    5.0480  -31.0750 C.3    76  HIS76       0.1787
     96  C         -7.8550    6.1780  -30.1700 C.2    76  HIS76       0.2620
     97  O         -8.0980    7.2830  -30.6730 O.2    76  HIS76      -0.2715
     98  CB        -8.6740    4.7470  -32.0050 C.3    76  HIS76       0.0785
     99  CG        -8.2860    4.1040  -33.3010 C.ar   76  HIS76       0.0821
    100  ND1       -8.0170    2.7330  -33.3930 N.ar   76  HIS76      -0.2267
    101  CD2       -8.1600    4.6620  -34.5270 C.ar   76  HIS76       0.1154
    102  CE1       -7.7340    2.5130  -34.6670 C.ar   76  HIS76       0.1986
    103  NE2       -7.8300    3.6370  -35.3940 N.ar   76  HIS76      -0.2212
    104  N         -8.0090    5.9180  -28.8660 N.am   77  GLN77      -0.1963
    105  CA        -8.4290    6.9920  -27.9740 C.3    77  GLN77       0.1733
    106  C         -7.8470    6.7500  -26.6010 C.2    77  GLN77       0.2616
    107  O         -7.6270    5.5930  -26.2190 O.2    77  GLN77      -0.2715
    108  CB        -9.9730    7.0300  -27.8920 C.3    77  GLN77       0.0408
    109  CG       -10.5100    8.3090  -27.2380 C.3    77  GLN77       0.0908
    110  CD       -11.9740    8.5170  -27.5570 C.2    77  GLN77       0.2608
    111  OE1      -12.8460    8.5170  -26.6840 O.2    77  GLN77      -0.2717
    112  NE2      -12.2700    8.7710  -28.8230 N.am   77  GLN77      -0.0878
    113  N         -7.6130    7.8390  -25.8580 N.am   78  ASP78      -0.1971
    114  CA        -7.2080    7.6720  -24.4660 C.3    78  ASP78       0.1709
    115  C         -8.3800    7.9730  -23.5210 C.2    78  ASP78       0.2293
    116  O         -9.4300    8.5060  -23.9180 O.2    78  ASP78      -0.2864
    117  CB        -5.9430    8.4610  -24.0980 C.3    78  ASP78       0.1436
    118  CG        -6.0450    9.9790  -24.1730 C.2    78  ASP78       0.3671
    119  OD1       -7.1720   10.5080  -24.1620 O.co2  78  ASP78      -0.2456
    120  OD2       -5.0020   10.6340  -24.2290 O.co2  78  ASP78      -0.2456
    121  N         -9.6120   11.7830  -23.3050 N.3    81  LYS81      -0.1245
    122  CA       -10.5620   12.2270  -24.3300 C.3    81  LYS81       0.1561
    123  C        -11.9480   11.6220  -24.0870 C.2    81  LYS81       0.2260
    124  O        -12.9430   12.3490  -24.1500 O.2    81  LYS81      -0.2867
    125  CB       -10.0150   11.8820  -25.7290 C.3    81  LYS81       0.0271
    126  CG       -10.9690   12.2930  -26.8610 C.3    81  LYS81       0.0035
    127  CD       -10.2460   12.3320  -28.1770 C.3    81  LYS81       0.0206
    128  CE       -11.1220   12.4690  -29.3900 C.3    81  LYS81       0.1093
    129  NZ       -10.3020   12.4100  -30.6450 N.3    81  LYS81      -0.1314
    130  N         -4.1200    9.8890  -19.5470 N.3   123  GLN123     -0.1231
    131  CA        -3.3490    9.9800  -20.7930 C.3   123  GLN123      0.1698
    132  C         -2.6380    8.6410  -21.1220 C.2   123  GLN123      0.2592
    133  O         -2.3000    8.3730  -22.2980 O.2   123  GLN123     -0.2718
    134  CB        -2.3290   11.1340  -20.6750 C.3   123  GLN123      0.0381
    135  CG        -2.9590   12.5400  -20.5920 C.3   123  GLN123      0.0905
    136  CD        -3.5740   12.9650  -19.2600 C.2   123  GLN123      0.2608
    137  OE1       -3.5090   12.2890  -18.2170 O.2   123  GLN123     -0.2717
    138  NE2       -4.2040   14.1310  -19.2680 N.am  123  GLN123     -0.0878
    139  N         -2.3440    7.8050  -20.1270 N.am  124  ASN124     -0.1974
    140  CA        -1.7130    6.5540  -20.5390 C.3   124  ASN124      0.1688
    141  C         -2.6120    5.3410  -20.4290 C.2   124  ASN124      0.2292
    142  O         -2.1350    4.2080  -20.4300 O.2   124  ASN124     -0.2864
    143  CB        -0.3010    6.3550  -20.0150 C.3   124  ASN124      0.1181
    144  CG        -0.1340    6.5640  -18.5370 C.2   124  ASN124      0.2629
    145  OD1       -0.8790    6.0220  -17.7130 O.2   124  ASN124     -0.2716
    146  ND2        0.8820    7.3380  -18.1790 N.am  124  ASN124     -0.0877
    147  N         -5.5210    3.5840  -22.5260 N.3   126  LEU126     -0.1245
    148  CA        -6.0290    3.6170  -23.8950 C.3   126  LEU126      0.1561
    149  C         -7.1620    2.6740  -24.0800 C.2   126  LEU126      0.2260
    150  O         -7.1780    1.5980  -23.4830 O.2   126  LEU126     -0.2867
    151  CB        -4.9010    3.2710  -24.8900 C.3   126  LEU126      0.0270
    152  CG        -3.5990    4.0690  -24.7280 C.3   126  LEU126      0.0019
    153  CD1       -2.5840    3.6340  -25.8160 C.3   126  LEU126      0.0001
    154  CD2       -3.8580    5.5960  -24.8370 C.3   126  LEU126      0.0001
    155  N         -0.6090    2.0050  -20.8540 N.3   136  ALA136     -0.1231
    156  CA         0.4370    2.3760  -21.7970 C.3   136  ALA136      0.1694
    157  C          1.6360    2.9540  -21.0620 C.2   136  ALA136      0.2592
    158  O          1.4750    3.5930  -20.0160 O.2   136  ALA136     -0.2718
    159  CB        -0.0780    3.4110  -22.8000 C.3   136  ALA136      0.0304
    160  N          2.8350    2.7350  -21.6310 N.am  137  ASP137     -0.1974
    161  CA         4.1260    3.2410  -21.1070 C.3   137  ASP137      0.1709
    162  C          4.5120    2.5520  -19.7810 C.2   137  ASP137      0.2293
    163  O          5.1460    3.1300  -18.9140 O.2   137  ASP137     -0.2864
    164  CB         4.1060    4.7770  -20.9980 C.3   137  ASP137      0.1436
    165  CG         4.5120    5.5160  -22.2520 C.2   137  ASP137      0.3671
    166  OD1        4.8390    4.8510  -23.2530 O.co2 137  ASP137     -0.2456
    167  OD2        4.5130    6.7600  -22.2300 O.co2 137  ASP137     -0.2456
@<TRIPOS>BOND
     1     1     2    1
     2     2     5    1
     3     2     3    1
     4     5     6    1
     5     8     7   ar
     6     6     7    1
     7     3    10   am
     8     3     4    2
     9     7     9   ar
    10   103   102   ar
    11   103   101   ar
    12    10    11    1
    13   102   100   ar
    14   101    99   ar
    15    11    14    1
    16    11    12    1
    17    14    15    1
    18    84    82   ar
    19    84    85   ar
    20    82    80   ar
    21    17    18    1
    22    17    16    1
    23    85    83   ar
    24   100    99   ar
    25    99    98    1
    26    80    79    1
    27    80    81   ar
    28    13    12    2
    29    12    19   am
    30    79    76    1
    31    83    81   ar
    32    15    16    1
    33    34    35    1
    34    26    24    1
    35    19    20    1
    36    35    36    1
    37    35    38    1
    38    98    95    1
    39    36    37    2
    40    24    23    1
    41    58    57    2
    42    78    77    2
    43    76    75    1
    44    76    77    1
    45    75    68   am
    46    30    29    2
    47    20    23    1
    48    20    21    1
    49    95    94    1
    50    95    96    1
    51    29    28    1
    52    77    86   am
    53    97    96    2
    54   129   128    1
    55    94    88   am
    56    23    25    1
    57    57    66   am
    58    57    56    1
    59    55    56    1
    60    39    40    1
    61    67    68    1
    62    67    66    1
    63    67    70    1
    64    68    69    2
    65    86    87    1
    66    88    89    2
    67    88    87    1
    68    96   104   am
    69    21    22    2
    70    87    90    1
    71    28    27    1
    72    28    31    1
    73    41    42    2
    74    41    40    1
    75    56    59    1
    76    71    70    1
    77    71    72    1
    78    40    43    1
    79   128   127    1
    80    32    31    1
    81   104   105    1
    82   112   110   am
    83    31    33    1
    84    74    72   ar
    85    59    60    1
    86    72    73   ar
    87    90    91    1
    88   127   126    1
    89    43    44    1
    90    91    92    1
    91    91    93    1
    92   105   108    1
    93   105   106    1
    94   108   109    1
    95   110   109    1
    96   110   111    2
    97    62    60   ar
    98    62    64   ar
    99    60    61   ar
   100    44    45    1
   101   126   125    1
   102   106   107    2
   103   106   113   am
   104    64    65   ar
   105    61    63   ar
   106    53    52    1
   107   113   114    1
   108   153   152    1
   109   125   122    1
   110    45    46    1
   111    65    63   ar
   112    50    49    1
   113    50    51    2
   114   151   152    1
   115   151   148    1
   116   154   152    1
   117    52    49    1
   118    52    54    1
   119    49    48    1
   120   114   117    1
   121   114   115    1
   122    46    47    1
   123   122   123    1
   124   122   121    1
   125   120   118   ar
   126   118   119   ar
   127   118   117    1
   128   124   123    2
   129   149   148    1
   130   149   150    2
   131   116   115    2
   132   148   147    1
   133   166   165   ar
   134   159   156    1
   135   133   132    2
   136   165   167   ar
   137   165   164    1
   138   156   157    1
   139   156   155    1
   140   160   161    1
   141   160   157   am
   142   132   131    1
   143   132   139   am
   144   161   164    1
   145   161   162    1
   146   157   158    2
   147   131   134    1
   148   131   130    1
   149   134   135    1
   150   135   136    1
   151   140   141    1
   152   140   139    1
   153   140   143    1
   154   142   141    2
   155   143   144    1
   156   162   163    2
   157   138   136   am
   158   136   137    2
   159   144   146   am
   160   144   145    2
