@<TRIPOS>MOLECULE
tmp/4fkqA00.pdb
 153 145 0 0 0
SMALL
GASTEIGER

@<TRIPOS>ATOM
      1  N         12.7930   49.5230    6.3370 N.3    10  ILE10      -0.1245
      2  CA        13.8170   48.6030    6.8340 C.3    10  ILE10       0.1561
      3  C         13.7730   47.3470    5.9570 C.2    10  ILE10       0.2260
      4  O         14.8210   46.8070    5.5980 O.2    10  ILE10      -0.2867
      5  CB        13.5380   48.2730    8.3370 C.3    10  ILE10       0.0252
      6  CG1       14.1190   49.3320    9.2760 C.3    10  ILE10       0.0019
      7  CG2       13.9780   46.8520    8.7300 C.3    10  ILE10       0.0019
      8  CD1       13.6120   49.1980   10.7410 C.3    10  ILE10       0.0001
      9  N          8.8770   42.0800    5.7160 N.3    13  GLY13      -0.1225
     10  CA         8.8250   40.8490    6.4980 C.3    13  GLY13       0.1811
     11  C          7.7030   39.9300    6.0530 C.2    13  GLY13       0.2280
     12  O          6.9530   40.2620    5.1260 O.2    13  GLY13      -0.2866
     13  N          8.3660   46.6180    7.4580 N.3    18  VAL18      -0.1245
     14  CA         8.9910   47.1860    8.6510 C.3    18  VAL18       0.1561
     15  C          9.6130   48.5250    8.2960 C.2    18  VAL18       0.2260
     16  O         10.3500   48.6350    7.3020 O.2    18  VAL18      -0.2867
     17  CB        10.0120   46.2210    9.3080 C.3    18  VAL18       0.0252
     18  CG1       10.4960   46.7750   10.6480 C.3    18  VAL18       0.0019
     19  CG2        9.4110   44.8260    9.5020 C.3    18  VAL18       0.0019
     20  N         11.0800   50.3860   15.5100 N.3    31  ALA31      -0.1245
     21  CA        10.7650   49.6820   14.2800 C.3    31  ALA31       0.1562
     22  C          9.2520   49.5280   14.3110 C.2    31  ALA31       0.2260
     23  O          8.6810   49.0620   15.3150 O.2    31  ALA31      -0.2867
     24  CB        11.4440   48.3120   14.2420 C.3    31  ALA31       0.0290
     25  N          6.0100   47.8840   12.3520 N.3    33  LYS33      -0.1245
     26  CA         5.5830   46.8690   11.3950 C.3    33  LYS33       0.1561
     27  C          4.0820   47.0500   11.1660 C.2    33  LYS33       0.2260
     28  O          3.3100   47.0440   12.1250 O.2    33  LYS33      -0.2867
     29  CB         5.9030   45.4660   11.9310 C.3    33  LYS33       0.0271
     30  CG         5.7050   44.3350   10.9250 C.3    33  LYS33       0.0035
     31  CD         5.8610   42.9700   11.5930 C.3    33  LYS33       0.0206
     32  CE         7.2830   42.4640   11.6780 C.3    33  LYS33       0.1093
     33  NZ         7.7460   41.9060   10.3820 N.3    33  LYS33      -0.1314
     34  N         13.9170   40.6560   20.6220 N.3    58  VAL58      -0.1245
     35  CA        13.5900   42.0360   20.2190 C.3    58  VAL58       0.1561
     36  C         12.2730   42.3970   20.8980 C.2    58  VAL58       0.2260
     37  O         11.2500   41.7670   20.6260 O.2    58  VAL58      -0.2867
     38  CB        13.5280   42.1850   18.6810 C.3    58  VAL58       0.0252
     39  CG1       13.1030   43.6030   18.2850 C.3    58  VAL58       0.0019
     40  CG2       14.8850   41.8640   18.0810 C.3    58  VAL58       0.0019
     41  N          8.2040   47.9450   17.8120 N.3    74  PHE74      -0.1227
     42  CA         9.3120   47.1690   18.3820 C.3    74  PHE74       0.1736
     43  C         10.5390   48.0270   18.6760 C.2    74  PHE74       0.2595
     44  O         10.7580   49.0740   18.0590 O.2    74  PHE74      -0.2718
     45  CB         9.7940   46.1140   17.3580 C.3    74  PHE74       0.0547
     46  CG         8.8390   44.9880   17.0510 C.ar   74  PHE74      -0.0202
     47  CD1        8.7790   43.8620   17.8690 C.ar   74  PHE74      -0.0042
     48  CD2        8.0930   44.9940   15.8790 C.ar   74  PHE74      -0.0042
     49  CE1        7.9500   42.7770   17.5420 C.ar   74  PHE74      -0.0003
     50  CE2        7.2670   43.9070   15.5510 C.ar   74  PHE74      -0.0003
     51  CZ         7.2010   42.8080   16.3820 C.ar   74  PHE74      -0.0000
     52  N         11.4010   47.4860   19.5350 N.am   75  GLU75      -0.1965
     53  CA        12.7420   47.9830   19.8220 C.3    75  GLU75       0.1733
     54  C         13.4890   47.9380   18.4870 C.2    75  GLU75       0.2616
     55  O         13.2850   47.0170   17.6920 O.2    75  GLU75      -0.2715
     56  CB        13.3950   47.0290   20.8300 C.3    75  GLU75       0.0429
     57  CG        14.8720   47.2300   21.0970 C.3    75  GLU75       0.1163
     58  CD        15.5620   46.0320   21.7280 C.2    75  GLU75       0.3649
     59  OE1       14.8880   45.0230   22.0450 O.co2  75  GLU75      -0.2457
     60  OE2       16.7930   46.1190   21.9180 O.co2  75  GLU75      -0.2457
     61  N         14.2900   48.9690   18.2150 N.am   76  PHE76      -0.1960
     62  CA        15.0640   49.0530   16.9760 C.3    76  PHE76       0.1771
     63  C         16.5400   48.6360   17.2110 C.2    76  PHE76       0.2619
     64  O         17.1300   49.0270   18.2170 O.2    76  PHE76      -0.2715
     65  CB        15.0020   50.4970   16.4130 C.3    76  PHE76       0.0574
     66  CG        15.8780   50.7440   15.1940 C.ar   76  PHE76      -0.0200
     67  CD1       15.4590   50.3530   13.9250 C.ar   76  PHE76      -0.0042
     68  CD2       17.1260   51.3300   15.3230 C.ar   76  PHE76      -0.0042
     69  CE1       16.2780   50.5410   12.8060 C.ar   76  PHE76      -0.0003
     70  CE2       17.9530   51.5120   14.2030 C.ar   76  PHE76      -0.0003
     71  CZ        17.5170   51.1280   12.9490 C.ar   76  PHE76      -0.0000
     72  N         17.1210   47.8590   16.2640 N.am   77  LEU77      -0.1963
     73  CA        18.5420   47.5030   16.2130 C.3    77  LEU77       0.1728
     74  C         19.0460   47.8990   14.8460 C.2    77  LEU77       0.2616
     75  O         18.2720   47.9160   13.8960 O.2    77  LEU77      -0.2715
     76  CB        18.8480   46.0270   16.5390 C.3    77  LEU77       0.0311
     77  CG        18.7640   45.6600   18.0320 C.3    77  LEU77       0.0022
     78  CD1       17.3470   45.3420   18.4380 C.3    77  LEU77       0.0001
     79  CD2       19.6800   44.4720   18.3450 C.3    77  LEU77       0.0001
     80  N         20.3290   48.2610   14.7520 N.am   78  HIS78      -0.1959
     81  CA        20.9150   48.8470   13.5430 C.3    78  HIS78       0.1787
     82  C         21.2740   47.9590   12.3690 C.2    78  HIS78       0.2620
     83  O         21.4520   48.4750   11.2580 O.2    78  HIS78      -0.2715
     84  CB        22.0860   49.7590   13.9260 C.3    78  HIS78       0.0785
     85  CG        21.6520   51.0760   14.5140 C.ar   78  HIS78       0.0821
     86  ND1       21.2420   51.1820   15.8360 N.ar   78  HIS78      -0.2267
     87  CD2       21.5230   52.2840   13.9140 C.ar   78  HIS78       0.1154
     88  CE1       20.9420   52.4610   16.0170 C.ar   78  HIS78       0.1986
     89  NE2       21.0750   53.1590   14.8830 N.ar   78  HIS78      -0.2212
     90  N         21.4160   46.6390   12.5860 N.am   79  GLN79      -0.1963
     91  CA        21.7930   45.7730   11.4760 C.3    79  GLN79       0.1733
     92  C         21.2240   44.3830   11.6970 C.2    79  GLN79       0.2616
     93  O         21.0530   43.9660   12.8410 O.2    79  GLN79      -0.2715
     94  CB        23.3390   45.6880   11.4000 C.3    79  GLN79       0.0408
     95  CG        23.8910   45.1580   10.0620 C.3    79  GLN79       0.0908
     96  CD        25.3040   45.6000    9.8260 C.2    79  GLN79       0.2608
     97  OE1       25.5850   46.7640    9.4970 O.2    79  GLN79      -0.2717
     98  NE2       26.2280   44.6810    9.9400 N.am   79  GLN79      -0.0878
     99  N         20.9540   43.6620   10.5980 N.am   80  ASP80      -0.1971
    100  CA        20.5310   42.2770   10.7020 C.3    80  ASP80       0.1709
    101  C         21.7390   41.3560   10.4000 C.2    80  ASP80       0.2293
    102  O         22.7760   41.8140    9.9150 O.2    80  ASP80      -0.2864
    103  CB        19.3000   41.9760    9.8360 C.3    80  ASP80       0.1436
    104  CG        19.4800   42.0810    8.3240 C.2    80  ASP80       0.3671
    105  OD1       20.6000   42.3040    7.8740 O.co2  80  ASP80      -0.2456
    106  OD2       18.4970   41.9680    7.6150 O.co2  80  ASP80      -0.2456
    107  N         22.9620   41.2530    6.5150 N.3    83  LYS83      -0.1245
    108  CA        23.8760   42.3140    6.0720 C.3    83  LYS83       0.1561
    109  C         25.2760   42.0750    6.6830 C.2    83  LYS83       0.2260
    110  O         26.2890   42.2120    5.9880 O.2    83  LYS83      -0.2867
    111  CB        23.3150   43.7200    6.4200 C.3    83  LYS83       0.0271
    112  CG        24.2250   44.8810    5.9650 C.3    83  LYS83       0.0035
    113  CD        23.4180   46.1930    5.9970 C.3    83  LYS83       0.0206
    114  CE        24.1660   47.4290    5.6140 C.3    83  LYS83       0.1093
    115  NZ        23.3830   48.6350    6.0310 N.3    83  LYS83      -0.1314
    116  N         17.5620   37.4360    8.3190 N.3   125  GLN125     -0.1231
    117  CA        16.8620   38.7320    8.2740 C.3   125  GLN125      0.1698
    118  C         16.1110   39.0670    9.5530 C.2   125  GLN125      0.2592
    119  O         15.8440   40.2460    9.7860 O.2   125  GLN125     -0.2718
    120  CB        15.9610   38.8380    7.0340 C.3   125  GLN125      0.0381
    121  CG        16.7410   38.7660    5.7080 C.3   125  GLN125      0.0905
    122  CD        17.0410   37.3660    5.1790 C.2   125  GLN125      0.2608
    123  OE1       16.8180   36.3150    5.8330 O.2   125  GLN125     -0.2717
    124  NE2       17.6270   37.3300    3.9850 N.am  125  GLN125     -0.0878
    125  N         15.7900   38.0760   10.4110 N.am  126  ASN126     -0.1974
    126  CA        15.1250   38.4200   11.6690 C.3   126  ASN126      0.1688
    127  C         15.9870   38.2380   12.9200 C.2   126  ASN126      0.2292
    128  O         15.4720   38.1930   14.0460 O.2   126  ASN126     -0.2864
    129  CB        13.6950   37.9000   11.7930 C.3   126  ASN126      0.1181
    130  CG        13.5840   36.4170   11.6890 C.2   126  ASN126      0.2629
    131  OD1       14.4860   35.6780   12.1020 O.2   126  ASN126     -0.2716
    132  ND2       12.4860   35.9670   11.0920 N.am  126  ASN126     -0.0877
    133  N         18.8950   40.2650   14.7920 N.3   128  LEU128     -0.1245
    134  CA        19.3890   41.6400   14.7840 C.3   128  LEU128      0.1561
    135  C         20.5620   41.8320   15.7300 C.2   128  LEU128      0.2260
    136  O         20.5810   41.2650   16.8250 O.2   128  LEU128     -0.2867
    137  CB        18.2360   42.5910   15.1580 C.3   128  LEU128      0.0270
    138  CG        16.9580   42.4760   14.3330 C.3   128  LEU128      0.0019
    139  CD1       15.9210   43.4630   14.8500 C.3   128  LEU128      0.0001
    140  CD2       17.2170   42.7460   12.8190 C.3   128  LEU128      0.0001
    141  N         13.9410   38.4840   16.4170 N.3   138  ALA138     -0.1231
    142  CA        12.7410   39.2850   16.1560 C.3   138  ALA138      0.1694
    143  C         11.6310   38.4090   15.5810 C.2   138  ALA138      0.2592
    144  O         11.9010   37.4850   14.8150 O.2   138  ALA138     -0.2718
    145  CB        13.0520   40.4140   15.1790 C.3   138  ALA138      0.0304
    146  N         10.3810   38.7450   15.9260 N.am  139  ASP139     -0.1974
    147  CA         9.1540   38.0850   15.4310 C.3   139  ASP139      0.1709
    148  C          8.7760   36.7590   16.0650 C.2   139  ASP139      0.2293
    149  O          7.9980   36.0030   15.4930 O.2   139  ASP139     -0.2864
    150  CB         9.0890   38.0690   13.8760 C.3   139  ASP139      0.1436
    151  CG         9.1220   39.4720   13.2550 C.2   139  ASP139      0.3671
    152  OD1        8.8230   40.4590   13.9740 O.co2 139  ASP139     -0.2456
    153  OD2        9.3820   39.5770   12.0560 O.co2 139  ASP139     -0.2456
@<TRIPOS>BOND
     1   124   122   am
     2    12    11    2
     3   122   121    1
     4   122   123    2
     5     4     3    2
     6   114   113    1
     7   114   115    1
     8   121   120    1
     9     9    10    1
    10     3     2    1
    11   112   113    1
    12   112   111    1
    13   110   109    2
    14    11    10    1
    15   108   111    1
    16   108   107    1
    17   108   109    1
    18     1     2    1
    19     2     5    1
    20   120   117    1
    21    16    15    2
    22    13    14    1
    23   106   104   ar
    24   105   104   ar
    25   117   116    1
    26   117   118    1
    27    15    14    1
    28   104   103    1
    29     5     7    1
    30     5     6    1
    31    14    17    1
    32     6     8    1
    33    17    19    1
    34    17    18    1
    35    97    96    2
    36   118   119    2
    37   118   125   am
    38    96    98   am
    39    96    95    1
    40   103   100    1
    41   102   101    2
    42    95    94    1
    43    33    32    1
    44   101   100    1
    45   125   126    1
    46    99   100    1
    47    99    92   am
    48    30    31    1
    49    30    29    1
    50   132   130   am
    51    27    26    1
    52    27    28    2
    53    83    82    2
    54    26    29    1
    55    26    25    1
    56    94    91    1
    57    91    92    1
    58    91    90    1
    59    31    32    1
    60   126   129    1
    61   126   127    1
    62   130   129    1
    63   130   131    2
    64    92    93    2
    65   153   151   ar
    66    82    90   am
    67    82    81    1
    68    69    71   ar
    69    69    67   ar
    70   140   138    1
    71   127   128    2
    72    71    70   ar
    73   151   150    1
    74   151   152   ar
    75    81    84    1
    76    81    80    1
    77   150   147    1
    78    75    74    2
    79    87    85   ar
    80    87    89   ar
    81    67    66   ar
    82    84    85    1
    83    70    68   ar
    84    24    21    1
    85    21    22    1
    86    21    20    1
    87    22    23    2
    88   138   139    1
    89   138   137    1
    90    85    86   ar
    91    80    74   am
    92   134   133    1
    93   134   137    1
    94   134   135    1
    95   144   143    2
    96    74    73    1
    97    89    88   ar
    98   145   142    1
    99    66    68   ar
   100    66    65    1
   101   147   146    1
   102   147   148    1
   103   149   148    2
   104    50    48   ar
   105    50    51   ar
   106   143   146   am
   107   143   142    1
   108   135   136    2
   109    86    88   ar
   110    48    46   ar
   111   142   141    1
   112    73    72    1
   113    73    76    1
   114    72    63   am
   115    51    49   ar
   116    65    62    1
   117    76    77    1
   118    62    63    1
   119    62    61    1
   120    46    45    1
   121    46    47   ar
   122    63    64    2
   123    45    42    1
   124    49    47   ar
   125    55    54    2
   126    41    42    1
   127    77    79    1
   128    77    78    1
   129    44    43    2
   130    40    38    1
   131    61    54   am
   132    39    38    1
   133    42    43    1
   134    54    53    1
   135    43    52   am
   136    38    35    1
   137    52    53    1
   138    53    56    1
   139    35    34    1
   140    35    36    1
   141    37    36    2
   142    56    57    1
   143    57    58    1
   144    58    60   ar
   145    58    59   ar
