@<TRIPOS>MOLECULE
tmp/4fkrA00.pdb
 166 157 0 0 0
SMALL
GASTEIGER

@<TRIPOS>ATOM
      1  N        -14.1760  -19.6820   -7.0690 N.3     8  GLU8       -0.1245
      2  CA       -13.9180  -18.8630   -5.8830 C.3     8  GLU8        0.1567
      3  C        -14.3960  -17.4260   -6.0780 C.2     8  GLU8        0.2260
      4  O        -14.4880  -16.9450   -7.2150 O.2     8  GLU8       -0.2867
      5  CB       -12.4040  -18.8540   -5.5490 C.3     8  GLU8        0.0388
      6  CG       -11.5090  -18.4380   -6.7150 C.3     8  GLU8        0.1160
      7  CD       -10.0160  -18.6200   -6.5440 C.2     8  GLU8        0.3649
      8  OE1       -9.5930  -19.7100   -6.0950 O.co2   8  GLU8       -0.2457
      9  OE2       -9.2630  -17.7100   -6.9590 O.co2   8  GLU8       -0.2457
     10  N        -13.8580  -13.5350   -6.2210 N.3    10  ILE10      -0.1231
     11  CA       -12.7070  -12.7400   -6.6720 C.3    10  ILE10       0.1692
     12  C        -12.9400  -11.2280   -6.4900 C.2    10  ILE10       0.2592
     13  O        -12.0320  -10.4300   -6.7390 O.2    10  ILE10      -0.2718
     14  CB       -12.2840  -13.0770   -8.1390 C.3    10  ILE10       0.0266
     15  CG1      -13.4370  -12.8480   -9.1540 C.3    10  ILE10       0.0019
     16  CG2      -11.7000  -14.5040   -8.2350 C.3    10  ILE10       0.0020
     17  CD1      -13.0980  -13.1110  -10.6430 C.3    10  ILE10       0.0001
     18  N        -14.1350  -10.8560   -6.0500 N.am   11  GLY11      -0.1957
     19  CA       -14.4900   -9.4640   -5.8280 C.3    11  GLY11       0.1869
     20  C        -15.8440   -9.2750   -5.1860 C.2    11  GLY11       0.2309
     21  O        -16.7350  -10.1210   -5.3080 O.2    11  GLY11      -0.2863
     22  N        -17.9810   -6.2130   -5.4990 N.3    13  GLY13      -0.1225
     23  CA       -18.2960   -4.9370   -6.1300 C.3    13  GLY13       0.1811
     24  C        -19.4640   -4.1820   -5.5260 C.2    13  GLY13       0.2280
     25  O        -20.0040   -4.5650   -4.4810 O.2    13  GLY13      -0.2866
     26  N        -18.5530  -10.9800   -7.2550 N.3    18  VAL18      -0.1245
     27  CA       -17.9240  -11.5230   -8.4600 C.3    18  VAL18       0.1561
     28  C        -17.1860  -12.8070   -8.1660 C.2    18  VAL18       0.2260
     29  O        -16.3800  -12.8520   -7.2770 O.2    18  VAL18      -0.2867
     30  CB       -16.9600  -10.5090   -9.1330 C.3    18  VAL18       0.0252
     31  CG1      -16.4490  -11.0290  -10.3750 C.3    18  VAL18       0.0019
     32  CG2      -17.6320   -9.2040   -9.4220 C.3    18  VAL18       0.0019
     33  N        -15.5540  -14.5450  -15.2930 N.3    31  ALA31      -0.1245
     34  CA       -15.8760  -13.8030  -14.0900 C.3    31  ALA31       0.1562
     35  C        -17.3700  -13.6640  -14.0990 C.2    31  ALA31       0.2260
     36  O        -17.9220  -13.0740  -15.0380 O.2    31  ALA31      -0.2867
     37  CB       -15.1940  -12.4350  -14.0910 C.3    31  ALA31       0.0290
     38  N        -20.7240  -12.2320  -12.2950 N.3    33  LYS33      -0.1245
     39  CA       -21.2810  -11.2440  -11.3790 C.3    33  LYS33       0.1561
     40  C        -22.7970  -11.4440  -11.1670 C.2    33  LYS33       0.2260
     41  O        -23.5290  -11.3750  -12.0780 O.2    33  LYS33      -0.2867
     42  CB       -20.9860   -9.8260  -11.9010 C.3    33  LYS33       0.0271
     43  CG       -21.2120   -8.7150  -10.9590 C.3    33  LYS33       0.0035
     44  CD       -20.8370   -7.3840  -11.5080 C.3    33  LYS33       0.0206
     45  CE       -19.3560   -7.0620  -11.4000 C.3    33  LYS33       0.1093
     46  NZ       -18.9540   -5.6360  -11.4210 N.3    33  LYS33      -0.1314
     47  N        -12.8550   -4.8310  -20.4660 N.3    57  VAL57      -0.1245
     48  CA       -13.2100   -6.1870  -20.1150 C.3    57  VAL57       0.1561
     49  C        -14.4920   -6.6120  -20.8170 C.2    57  VAL57       0.2260
     50  O        -15.5030   -6.0220  -20.6230 O.2    57  VAL57      -0.2867
     51  CB       -13.3220   -6.3630  -18.6140 C.3    57  VAL57       0.0252
     52  CG1      -13.6320   -7.7030  -18.2260 C.3    57  VAL57       0.0019
     53  CG2      -12.0250   -5.9570  -17.9880 C.3    57  VAL57       0.0019
     54  N        -18.4980  -12.0720  -17.5500 N.3    73  PHE73      -0.1227
     55  CA       -17.3830  -11.2760  -18.0670 C.3    73  PHE73       0.1736
     56  C        -16.1780  -12.1130  -18.4000 C.2    73  PHE73       0.2595
     57  O        -15.9960  -13.2010  -17.8510 O.2    73  PHE73      -0.2718
     58  CB       -16.9260  -10.2430  -17.0340 C.3    73  PHE73       0.0547
     59  CG       -17.8500   -9.0910  -16.8000 C.ar   73  PHE73      -0.0202
     60  CD1      -17.8480   -7.9920  -17.6570 C.ar   73  PHE73      -0.0042
     61  CD2      -18.6720   -9.0600  -15.6820 C.ar   73  PHE73      -0.0042
     62  CE1      -18.6930   -6.9050  -17.4220 C.ar   73  PHE73      -0.0003
     63  CE2      -19.5070   -7.9620  -15.4400 C.ar   73  PHE73      -0.0003
     64  CZ       -19.5220   -6.9010  -16.3180 C.ar   73  PHE73      -0.0000
     65  N        -15.3090  -11.5430  -19.2360 N.am   74  GLU74      -0.1965
     66  CA       -13.9780  -12.0570  -19.5380 C.3    74  GLU74       0.1733
     67  C        -13.2130  -12.1160  -18.2330 C.2    74  GLU74       0.2616
     68  O        -13.3970  -11.2310  -17.3940 O.2    74  GLU74      -0.2715
     69  CB       -13.3010  -11.0950  -20.5310 C.3    74  GLU74       0.0429
     70  CG       -11.7920  -11.2100  -20.6750 C.3    74  GLU74       0.1163
     71  CD       -11.1540  -10.1130  -21.5080 C.2    74  GLU74       0.3649
     72  OE1      -11.8300   -9.1010  -21.8020 O.co2  74  GLU74      -0.2457
     73  OE2       -9.9730  -10.2750  -21.8820 O.co2  74  GLU74      -0.2457
     74  N        -12.3700  -13.1300  -18.0400 N.am   75  PHE75      -0.1960
     75  CA       -11.5930  -13.2400  -16.8060 C.3    75  PHE75       0.1771
     76  C        -10.1090  -12.8290  -17.0180 C.2    75  PHE75       0.2619
     77  O         -9.4970  -13.2580  -17.9850 O.2    75  PHE75      -0.2715
     78  CB       -11.6880  -14.6840  -16.2750 C.3    75  PHE75       0.0574
     79  CG       -10.8300  -14.9690  -15.0670 C.ar   75  PHE75      -0.0200
     80  CD1      -11.2780  -14.6560  -13.7900 C.ar   75  PHE75      -0.0042
     81  CD2       -9.5620  -15.5210  -15.2080 C.ar   75  PHE75      -0.0042
     82  CE1      -10.4740  -14.8930  -12.6750 C.ar   75  PHE75      -0.0003
     83  CE2       -8.7520  -15.7450  -14.0900 C.ar   75  PHE75      -0.0003
     84  CZ        -9.2200  -15.4420  -12.8300 C.ar   75  PHE75      -0.0000
     85  N         -9.5330  -12.0390  -16.0630 N.am   76  LEU76      -0.1963
     86  CA        -8.1280  -11.6490  -15.9970 C.3    76  LEU76       0.1728
     87  C         -7.6220  -12.0510  -14.6210 C.2    76  LEU76       0.2616
     88  O         -8.4110  -12.0960  -13.6830 O.2    76  LEU76      -0.2715
     89  CB        -7.8920  -10.1580  -16.3000 C.3    76  LEU76       0.0311
     90  CG        -7.9990   -9.7950  -17.8030 C.3    76  LEU76       0.0022
     91  CD1       -9.4340   -9.4570  -18.1860 C.3    76  LEU76       0.0001
     92  CD2       -7.1420   -8.5720  -18.1230 C.3    76  LEU76       0.0001
     93  N         -6.3330  -12.3900  -14.4990 N.am   77  HIS77      -0.1959
     94  CA        -5.8140  -13.0060  -13.2680 C.3    77  HIS77       0.1787
     95  C         -5.4000  -12.0830  -12.1540 C.2    77  HIS77       0.2620
     96  O         -5.1520  -12.5780  -11.0480 O.2    77  HIS77      -0.2715
     97  CB        -4.6330  -13.9110  -13.6160 C.3    77  HIS77       0.0785
     98  CG        -5.0680  -15.1960  -14.2530 C.ar   77  HIS77       0.0821
     99  ND1       -5.3990  -15.2640  -15.6000 N.ar   77  HIS77      -0.2267
    100  CD2       -5.2320  -16.4190  -13.6990 C.ar   77  HIS77       0.1154
    101  CE1       -5.7550  -16.5160  -15.8180 C.ar   77  HIS77       0.1986
    102  NE2       -5.6380  -17.2560  -14.7140 N.ar   77  HIS77      -0.2212
    103  N         -5.3080  -10.7740  -12.3940 N.am   78  GLN78      -0.1963
    104  CA        -4.8930   -9.8440  -11.3200 C.3    78  GLN78       0.1733
    105  C         -5.4530   -8.4440  -11.5590 C.2    78  GLN78       0.2616
    106  O         -5.7170   -8.0720  -12.7080 O.2    78  GLN78      -0.2715
    107  CB        -3.3470   -9.7970  -11.2470 C.3    78  GLN78       0.0408
    108  CG        -2.7690   -9.1870   -9.9520 C.3    78  GLN78       0.0908
    109  CD        -1.3630   -9.6460   -9.7020 C.2    78  GLN78       0.2608
    110  OE1       -1.1010  -10.8130   -9.3530 O.2    78  GLN78      -0.2717
    111  NE2       -0.4260   -8.7440   -9.8950 N.am   78  GLN78      -0.0878
    112  N         -5.6250   -7.6550  -10.4880 N.am   79  ASP79      -0.1971
    113  CA        -6.0290   -6.2670  -10.6860 C.3    79  ASP79       0.1709
    114  C         -4.8350   -5.3220  -10.3540 C.2    79  ASP79       0.2293
    115  O         -3.8080   -5.7570   -9.8080 O.2    79  ASP79      -0.2864
    116  CB        -7.3090   -5.9200   -9.9010 C.3    79  ASP79       0.1436
    117  CG        -7.1880   -5.9070   -8.3800 C.2    79  ASP79       0.3671
    118  OD1       -6.0710   -5.6780   -7.8730 O.co2  79  ASP79      -0.2456
    119  OD2       -8.2220   -6.0600   -7.7060 O.co2  79  ASP79      -0.2456
    120  N         -3.6750   -5.0630   -6.5010 N.3    82  LYS82      -0.1245
    121  CA        -2.7540   -6.1320   -6.0550 C.3    82  LYS82       0.1561
    122  C         -1.3560   -5.9560   -6.6740 C.2    82  LYS82       0.2260
    123  O         -0.3460   -6.2240   -6.0160 O.2    82  LYS82      -0.2867
    124  CB        -3.3090   -7.5340   -6.4070 C.3    82  LYS82       0.0271
    125  CG        -2.5420   -8.6710   -5.6900 C.3    82  LYS82       0.0035
    126  CD        -2.7690  -10.0080   -6.3490 C.3    82  LYS82       0.0206
    127  CE        -2.5030  -11.1850   -5.4450 C.3    82  LYS82       0.1093
    128  NZ        -2.9480  -12.4520   -6.0840 N.3    82  LYS82      -0.1314
    129  N         -9.1410   -1.4400   -8.3020 N.3   124  GLN124     -0.1231
    130  CA        -9.7990   -2.7540   -8.2390 C.3   124  GLN124      0.1698
    131  C        -10.6270   -3.0810   -9.4810 C.2   124  GLN124      0.2592
    132  O        -10.9730   -4.2450   -9.6500 O.2   124  GLN124     -0.2718
    133  CB       -10.6460   -2.9270   -6.9730 C.3   124  GLN124      0.0381
    134  CG        -9.8250   -3.5100   -5.8340 C.3   124  GLN124      0.0905
    135  CD       -10.5430   -3.6930   -4.5120 C.2   124  GLN124      0.2608
    136  OE1      -11.6080   -3.1180   -4.2420 O.2   124  GLN124     -0.2717
    137  NE2       -9.9360   -4.4810   -3.6370 N.am  124  GLN124     -0.0878
    138  N        -10.9190   -2.1250  -10.3800 N.am  125  ASN125     -0.1974
    139  CA       -11.6200   -2.5400  -11.5970 C.3   125  ASN125      0.1688
    140  C        -10.7190   -2.3510  -12.8310 C.2   125  ASN125      0.2292
    141  O        -11.2050   -2.3450  -13.9670 O.2   125  ASN125     -0.2864
    142  CB       -13.0130   -1.9070  -11.7650 C.3   125  ASN125      0.1181
    143  CG       -13.0930   -0.4140  -11.6500 C.2   125  ASN125      0.2629
    144  OD1      -12.1950    0.3230  -12.0540 O.2   125  ASN125     -0.2716
    145  ND2      -14.2120    0.0590  -11.1270 N.am  125  ASN125     -0.0877
    146  N         -7.8540   -4.3220  -14.6350 N.3   127  LEU127     -0.1245
    147  CA        -7.3860   -5.6920  -14.6790 C.3   127  LEU127      0.1561
    148  C         -6.2200   -5.9070  -15.6350 C.2   127  LEU127      0.2260
    149  O         -6.2040   -5.3630  -16.6890 O.2   127  LEU127     -0.2867
    150  CB        -8.5480   -6.6190  -15.0670 C.3   127  LEU127      0.0270
    151  CG        -9.8290   -6.5790  -14.2490 C.3   127  LEU127      0.0019
    152  CD1      -10.8670   -7.5530  -14.6560 C.3   127  LEU127      0.0001
    153  CD2       -9.5000   -6.7120  -12.8210 C.3   127  LEU127      0.0001
    154  N        -12.8950   -2.5110  -16.2770 N.3   137  ALA137     -0.1231
    155  CA       -14.0520   -3.3550  -15.9730 C.3   137  ALA137      0.1694
    156  C        -15.1840   -2.5090  -15.4310 C.2   137  ALA137      0.2592
    157  O        -14.9430   -1.6240  -14.5990 O.2   137  ALA137     -0.2718
    158  CB       -13.6790   -4.4230  -14.9550 C.3   137  ALA137      0.0304
    159  N        -16.4070   -2.7740  -15.9160 N.am  138  ASP138     -0.1974
    160  CA       -17.6920   -2.1670  -15.4940 C.3   138  ASP138      0.1709
    161  C        -18.0150   -0.8100  -16.1050 C.2   138  ASP138      0.2293
    162  O        -18.6970    0.0040  -15.4640 O.2   138  ASP138     -0.2864
    163  CB       -17.8270   -2.0770  -13.9550 C.3   138  ASP138      0.1436
    164  CG       -17.8070   -3.4330  -13.2710 C.2   138  ASP138      0.3671
    165  OD1      -17.3980   -3.4960  -12.0990 O.co2 138  ASP138     -0.2456
    166  OD2      -18.1780   -4.4350  -13.9210 O.co2 138  ASP138     -0.2456
@<TRIPOS>BOND
     1    73    71   ar
     2    72    71   ar
     3    71    70    1
     4    49    50    2
     5    49    48    1
     6    70    69    1
     7    69    66    1
     8    47    48    1
     9    48    51    1
    10    66    65    1
    11    66    67    1
    12    65    56   am
    13    51    52    1
    14    51    53    1
    15    56    55    1
    16    56    57    2
    17    67    74   am
    18    67    68    2
    19    91    90    1
    20    92    90    1
    21    55    54    1
    22    55    58    1
    23    74    75    1
    24    77    76    2
    25    90    89    1
    26    60    62   ar
    27    60    59   ar
    28    62    64   ar
    29    58    59    1
    30    76    75    1
    31    76    85   am
    32    75    78    1
    33    59    61   ar
    34   149   148    2
    35    64    63   ar
    36    89    86    1
    37   154   155    1
    38    78    79    1
    39   161   160    1
    40   161   162    2
    41    85    86    1
    42    86    87    1
    43   155   156    1
    44   155   158    1
    45   159   160    1
    46   159   156   am
    47   101    99   ar
    48   101   102   ar
    49    61    63   ar
    50   148   147    1
    51    99    98   ar
    52   160   163    1
    53   156   157    2
    54    33    34    1
    55    81    79   ar
    56    81    83   ar
    57   150   147    1
    58   150   151    1
    59    79    80   ar
    60    36    35    2
    61   102   100   ar
    62   147   146    1
    63   152   151    1
    64    87    93   am
    65    87    88    2
    66    93    94    1
    67    98   100   ar
    68    98    97    1
    69   151   153    1
    70    35    34    1
    71    37    34    1
    72    83    84   ar
    73   141   140    2
    74   163   164    1
    75   166   164   ar
    76    80    82   ar
    77    97    94    1
    78   164   165   ar
    79    94    95    1
    80   140   139    1
    81    84    82   ar
    82   106   105    2
    83   103    95   am
    84   103   104    1
    85    38    39    1
    86    95    96    2
    87    41    40    2
    88   144   143    2
    89    42    39    1
    90    42    43    1
    91   142   143    1
    92   142   139    1
    93   143   145   am
    94   139   138    1
    95   105   104    1
    96   105   112   am
    97    44    45    1
    98    44    43    1
    99    46    45    1
   100    39    40    1
   101   104   107    1
   102   107   108    1
   103   113   112    1
   104   113   114    1
   105   113   116    1
   106    17    15    1
   107   138   131   am
   108    31    30    1
   109   114   115    2
   110   108   109    1
   111   116   117    1
   112   111   109   am
   113   109   110    2
   114   132   131    2
   115   131   130    1
   116    32    30    1
   117    15    14    1
   118    30    27    1
   119    27    28    1
   120    27    26    1
   121   117   118   ar
   122   117   119   ar
   123   129   130    1
   124   130   133    1
   125    16    14    1
   126    28    29    2
   127    14    11    1
   128     4     3    2
   129     1     2    1
   130   133   134    1
   131     9     7   ar
   132    13    12    2
   133     6     7    1
   134     6     5    1
   135   122   121    1
   136   122   123    2
   137    11    12    1
   138    11    10    1
   139     7     8   ar
   140   120   121    1
   141    12    18   am
   142   124   121    1
   143   124   125    1
   144   126   125    1
   145   126   127    1
   146    23    24    1
   147    23    22    1
   148   128   127    1
   149     3     2    1
   150    18    19    1
   151     2     5    1
   152   134   135    1
   153    19    20    1
   154    24    25    2
   155    21    20    2
   156   135   136    2
   157   135   137   am
