@<TRIPOS>MOLECULE
tmp/4fksA00.pdb
 175 167 0 0 0
SMALL
GASTEIGER

@<TRIPOS>ATOM
      1  N         -0.5580  -11.2700  -37.8730 N.3     8  GLU8       -0.1231
      2  CA        -0.0790  -12.3470  -37.0130 C.3     8  GLU8        0.1699
      3  C         -0.7060  -12.2560  -35.6250 C.2     8  GLU8        0.2592
      4  O         -0.9670  -11.1530  -35.1480 O.2     8  GLU8       -0.2718
      5  CB         1.4590  -12.1960  -36.9140 C.3     8  GLU8        0.0402
      6  CG         2.2020  -13.2600  -36.1240 C.3     8  GLU8        0.1161
      7  CD         3.6740  -12.9400  -35.9280 C.2     8  GLU8        0.3649
      8  OE1        4.0110  -11.7460  -35.7500 O.co2   8  GLU8       -0.2457
      9  OE2        4.4870  -13.8930  -35.9100 O.co2   8  GLU8       -0.2457
     10  N         -0.8980  -13.4060  -34.9560 N.am    9  LYS9       -0.1966
     11  CA        -1.4070  -13.4490  -33.5800 C.3     9  LYS9        0.1728
     12  C         -0.2370  -13.0900  -32.6680 C.2     9  LYS9        0.2616
     13  O          0.8160  -13.7270  -32.7670 O.2     9  LYS9       -0.2715
     14  CB        -1.9980  -14.8380  -33.2360 C.3     9  LYS9        0.0311
     15  CG        -2.4860  -14.9730  -31.8120 C.3     9  LYS9        0.0038
     16  CD        -2.9710  -16.3560  -31.5060 C.3     9  LYS9        0.0206
     17  CE        -3.5680  -16.6350  -30.1800 C.3     9  LYS9        0.1093
     18  NZ        -3.9030  -18.0950  -29.9840 N.3     9  LYS9       -0.1314
     19  N         -0.3890  -12.0650  -31.8040 N.am   10  ILE10      -0.1963
     20  CA         0.7000  -11.6220  -30.9190 C.3    10  ILE10       0.1727
     21  C          0.3970  -11.8310  -29.4170 C.2    10  ILE10       0.2616
     22  O          1.2470  -11.4940  -28.5800 O.2    10  ILE10      -0.2715
     23  CB         1.1290  -10.1650  -31.1940 C.3    10  ILE10       0.0290
     24  CG1       -0.0210   -9.1560  -31.0110 C.3    10  ILE10       0.0022
     25  CG2        1.7350  -10.0640  -32.5960 C.3    10  ILE10       0.0023
     26  CD1        0.3720   -7.7460  -31.2880 C.3    10  ILE10       0.0001
     27  N         -0.7370  -12.4450  -29.0910 N.am   11  GLY11      -0.1955
     28  CA        -1.0690  -12.7020  -27.6980 C.3    11  GLY11       0.1869
     29  C         -2.4540  -13.2680  -27.4910 C.2    11  GLY11       0.2309
     30  O         -3.3950  -12.8520  -28.1660 O.2    11  GLY11      -0.2863
     31  N         -4.3890  -13.0110  -24.6350 N.3    13  GLY13      -0.1225
     32  CA        -4.5430  -12.2890  -23.3800 C.3    13  GLY13       0.1811
     33  C         -5.7050  -12.6720  -22.4900 C.2    13  GLY13       0.2280
     34  O         -6.4960  -13.5690  -22.8000 O.2    13  GLY13      -0.2866
     35  N         -5.0190  -10.9140  -29.2220 N.3    18  VAL18      -0.1245
     36  CA        -4.4180   -9.7150  -29.8170 C.3    18  VAL18       0.1561
     37  C         -3.6870  -10.0920  -31.1000 C.2    18  VAL18       0.2260
     38  O         -2.9050  -11.0390  -31.1190 O.2    18  VAL18      -0.2867
     39  CB        -3.4670   -8.9790  -28.8410 C.3    18  VAL18       0.0252
     40  CG1       -3.0010   -7.6540  -29.4340 C.3    18  VAL18       0.0019
     41  CG2       -4.1510   -8.7220  -27.5100 C.3    18  VAL18       0.0019
     42  N         -2.1000   -3.0310  -33.0410 N.3    31  ALA31      -0.1245
     43  CA        -2.4500   -4.2360  -32.3030 C.3    31  ALA31       0.1562
     44  C         -3.9430   -4.2280  -32.1700 C.2    31  ALA31       0.2260
     45  O         -4.5050   -3.2860  -31.6190 O.2    31  ALA31      -0.2867
     46  CB        -1.7710   -4.2830  -30.9460 C.3    31  ALA31       0.0290
     47  N         -7.2580   -5.9800  -30.6910 N.3    33  LYS33      -0.1245
     48  CA        -7.7080   -6.8860  -29.6460 C.3    33  LYS33       0.1561
     49  C         -9.1900   -7.1080  -29.7980 C.2    33  LYS33       0.2260
     50  O         -9.9480   -6.1540  -29.7230 O.2    33  LYS33      -0.2867
     51  CB        -7.3800   -6.3010  -28.2630 C.3    33  LYS33       0.0271
     52  CG        -7.8630   -7.1590  -27.1060 C.3    33  LYS33       0.0035
     53  CD        -7.4330   -6.5950  -25.7610 C.3    33  LYS33       0.0206
     54  CE        -6.5200   -7.4900  -24.9590 C.3    33  LYS33       0.1093
     55  NZ        -5.6030   -6.7050  -24.0940 N.3    33  LYS33      -0.1314
     56  N          0.4670    2.1640  -23.3600 N.3    55  VAL55      -0.1245
     57  CA         0.2330    1.8060  -24.7650 C.3    55  VAL55       0.1561
     58  C         -1.0230    2.5280  -25.2280 C.2    55  VAL55       0.2260
     59  O         -2.0830    2.4880  -24.5690 O.2    55  VAL55      -0.2867
     60  CB         0.1370    0.2800  -24.9150 C.3    55  VAL55       0.0252
     61  CG1       -0.1510   -0.1130  -26.3620 C.3    55  VAL55       0.0019
     62  CG2        1.4440   -0.3650  -24.4980 C.3    55  VAL55       0.0019
     63  N         -4.9930   -0.7200  -30.7490 N.3    71  PHE71      -0.1227
     64  CA        -3.9000   -0.1670  -29.9890 C.3    71  PHE71       0.1736
     65  C         -2.6800    0.0980  -30.8110 C.2    71  PHE71       0.2595
     66  O         -2.4650   -0.4860  -31.8570 O.2    71  PHE71      -0.2718
     67  CB        -3.4950   -1.1730  -28.9050 C.3    71  PHE71       0.0547
     68  CG        -4.4550   -1.3170  -27.7620 C.ar   71  PHE71      -0.0202
     69  CD1       -4.4400   -0.4170  -26.7140 C.ar   71  PHE71      -0.0042
     70  CD2       -5.2790   -2.4250  -27.6640 C.ar   71  PHE71      -0.0042
     71  CE1       -5.2580   -0.5930  -25.6150 C.ar   71  PHE71      -0.0003
     72  CE2       -6.1390   -2.5750  -26.5780 C.ar   71  PHE71      -0.0003
     73  CZ        -6.1090   -1.6630  -25.5540 C.ar   71  PHE71      -0.0000
     74  N         -1.8400    0.9470  -30.2790 N.am   72  GLU72      -0.1965
     75  CA        -0.4930    1.0990  -30.7650 C.3    72  GLU72       0.1733
     76  C          0.1920   -0.2880  -30.7180 C.2    72  GLU72       0.2616
     77  O         -0.0470   -1.0760  -29.8070 O.2    72  GLU72      -0.2715
     78  CB         0.2270    2.0850  -29.8120 C.3    72  GLU72       0.0429
     79  CG         1.7300    2.1070  -29.8270 C.3    72  GLU72       0.1163
     80  CD         2.3550    3.0170  -28.7860 C.2    72  GLU72       0.3649
     81  OE1        1.7250    3.3200  -27.7380 O.co2  72  GLU72      -0.2457
     82  OE2        3.5620    3.2940  -28.9610 O.co2  72  GLU72      -0.2457
     83  N          1.0620   -0.5460  -31.6750 N.am   73  PHE73      -0.1960
     84  CA         1.8320   -1.7640  -31.7230 C.3    73  PHE73       0.1771
     85  C          3.2810   -1.5310  -31.3020 C.2    73  PHE73       0.2619
     86  O          3.9180   -0.5710  -31.7770 O.2    73  PHE73      -0.2715
     87  CB         1.8190   -2.2990  -33.1420 C.3    73  PHE73       0.0574
     88  CG         2.6400   -3.5280  -33.3520 C.ar   73  PHE73      -0.0200
     89  CD1        2.1640   -4.7770  -32.9780 C.ar   73  PHE73      -0.0042
     90  CD2        3.9260   -3.4460  -33.8690 C.ar   73  PHE73      -0.0042
     91  CE1        2.9760   -5.9030  -33.0750 C.ar   73  PHE73      -0.0003
     92  CE2        4.7140   -4.5720  -33.9860 C.ar   73  PHE73      -0.0003
     93  CZ         4.2270   -5.7990  -33.6370 C.ar   73  PHE73      -0.0000
     94  N          3.8020   -2.4320  -30.4800 N.am   74  LEU74      -0.1963
     95  CA         5.1990   -2.4640  -30.0980 C.3    74  LEU74       0.1728
     96  C          5.7120   -3.8460  -30.4320 C.2    74  LEU74       0.2616
     97  O          4.9830   -4.8190  -30.3130 O.2    74  LEU74      -0.2715
     98  CB         5.4450   -2.1210  -28.6440 C.3    74  LEU74       0.0311
     99  CG         5.2820   -0.6530  -28.2700 C.3    74  LEU74       0.0022
    100  CD1        3.8310   -0.3540  -27.8600 C.3    74  LEU74       0.0001
    101  CD2        6.2060   -0.2570  -27.1230 C.3    74  LEU74       0.0001
    102  N          6.9720   -3.9500  -30.7630 N.am   75  HIS75      -0.1959
    103  CA         7.5150   -5.1910  -31.3140 C.3    75  HIS75       0.1787
    104  C          7.9210   -6.2740  -30.3320 C.2    75  HIS75       0.2620
    105  O          8.2000   -7.3680  -30.7990 O.2    75  HIS75      -0.2715
    106  CB         8.6970   -4.8890  -32.2170 C.3    75  HIS75       0.0785
    107  CG         8.3060   -4.2490  -33.5170 C.ar   75  HIS75       0.0821
    108  ND1        8.0410   -2.8810  -33.6120 N.ar   75  HIS75      -0.2267
    109  CD2        8.1960   -4.7930  -34.7580 C.ar   75  HIS75       0.1154
    110  CE1        7.7430   -2.6470  -34.8750 C.ar   75  HIS75       0.1986
    111  NE2        7.8290   -3.7600  -35.6170 N.ar   75  HIS75      -0.2212
    112  N          8.0150   -6.0000  -29.0320 N.am   76  GLN76      -0.1963
    113  CA         8.4330   -7.0370  -28.1100 C.3    76  GLN76       0.1733
    114  C          7.8450   -6.7780  -26.7490 C.2    76  GLN76       0.2616
    115  O          7.5650   -5.6340  -26.4330 O.2    76  GLN76      -0.2715
    116  CB         9.9600   -7.0250  -28.0250 C.3    76  GLN76       0.0408
    117  CG        10.5360   -8.2080  -27.2620 C.3    76  GLN76       0.0908
    118  CD        11.9970   -8.4330  -27.5470 C.2    76  GLN76       0.2608
    119  OE1       12.8290   -8.4150  -26.6590 O.2    76  GLN76      -0.2717
    120  NE2       12.3460   -8.7100  -28.7830 N.am   76  GLN76      -0.0878
    121  N          7.6760   -7.8180  -25.9410 N.am   77  ASP77      -0.1971
    122  CA         7.2510   -7.6490  -24.5500 C.3    77  ASP77       0.1709
    123  C          8.4160   -7.9690  -23.6200 C.2    77  ASP77       0.2293
    124  O          9.4730   -8.4710  -24.0400 O.2    77  ASP77      -0.2864
    125  CB         5.9770   -8.4180  -24.1760 C.3    77  ASP77       0.1436
    126  CG         6.0270   -9.9240  -24.1970 C.2    77  ASP77       0.3671
    127  OD1        7.1270  -10.4740  -24.2230 O.co2  77  ASP77      -0.2456
    128  OD2        4.9470  -10.5550  -24.1930 O.co2  77  ASP77      -0.2456
    129  N          9.5760  -11.7030  -23.2590 N.3    80  LYS80      -0.1245
    130  CA        10.5490  -12.1510  -24.2500 C.3    80  LYS80       0.1561
    131  C         11.9460  -11.5670  -24.0050 C.2    80  LYS80       0.2260
    132  O         12.9340  -12.2880  -24.1230 O.2    80  LYS80      -0.2867
    133  CB        10.0840  -11.8100  -25.6870 C.3    80  LYS80       0.0271
    134  CG        11.1380  -12.0890  -26.7730 C.3    80  LYS80       0.0035
    135  CD        10.4940  -12.2010  -28.1610 C.3    80  LYS80       0.0206
    136  CE        11.4650  -12.4440  -29.2780 C.3    80  LYS80       0.1093
    137  NZ        10.7560  -12.6200  -30.5750 N.3    80  LYS80      -0.1314
    138  N          4.1900   -9.9810  -19.5770 N.3   122  GLN122     -0.1231
    139  CA         3.4760  -10.1480  -20.8430 C.3   122  GLN122      0.1698
    140  C          2.6810   -8.8640  -21.2150 C.2   122  GLN122      0.2592
    141  O          2.3140   -8.6830  -22.3780 O.2   122  GLN122     -0.2718
    142  CB         2.5510  -11.3810  -20.7600 C.3   122  GLN122      0.0381
    143  CG         3.2510  -12.6560  -20.2560 C.3   122  GLN122      0.0905
    144  CD         3.0310  -12.9530  -18.7830 C.2   122  GLN122      0.2608
    145  OE1        3.6940  -12.3830  -17.8900 O.2   122  GLN122     -0.2717
    146  NE2        2.1190  -13.8800  -18.4840 N.am  122  GLN122     -0.0878
    147  N          2.3900   -7.9640  -20.2720 N.am  123  ASN123     -0.1974
    148  CA         1.6610   -6.7770  -20.7160 C.3   123  ASN123      0.1688
    149  C          2.5380   -5.5130  -20.5100 C.2   123  ASN123      0.2292
    150  O          2.0340   -4.3980  -20.4530 O.2   123  ASN123     -0.2864
    151  CB         0.2560   -6.6910  -20.1680 C.3   123  ASN123      0.1181
    152  CG         0.1210   -6.7490  -18.6970 C.2   123  ASN123      0.2629
    153  OD1        0.9940   -6.2720  -17.9930 O.2   123  ASN123     -0.2716
    154  ND2       -0.9910   -7.3660  -18.2020 N.am  123  ASN123     -0.0877
    155  N          5.3990   -3.6180  -22.7090 N.3   125  LEU125     -0.1245
    156  CA         5.8900   -3.6280  -24.0720 C.3   125  LEU125      0.1561
    157  C          7.0450   -2.6950  -24.2530 C.2   125  LEU125      0.2260
    158  O          7.0850   -1.6430  -23.6350 O.2   125  LEU125     -0.2867
    159  CB         4.7340   -3.2410  -24.9920 C.3   125  LEU125      0.0270
    160  CG         3.4280   -4.0160  -24.8500 C.3   125  LEU125      0.0019
    161  CD1        2.4420   -3.5350  -25.8870 C.3   125  LEU125      0.0001
    162  CD2        3.6410   -5.5080  -25.0090 C.3   125  LEU125      0.0001
    163  N          0.3940   -2.0550  -20.9580 N.3   135  ALA135     -0.1231
    164  CA        -0.7750   -2.3840  -21.7760 C.3   135  ALA135      0.1694
    165  C         -1.8910   -2.9480  -20.9120 C.2   135  ALA135      0.2592
    166  O         -1.6120   -3.5600  -19.9000 O.2   135  ALA135     -0.2718
    167  CB        -0.4110   -3.3900  -22.8390 C.3   135  ALA135      0.0304
    168  N         -3.1530   -2.7200  -21.3110 N.am  136  ASP136     -0.1974
    169  CA        -4.3830   -3.1980  -20.6340 C.3   136  ASP136      0.1709
    170  C         -4.7340   -2.3870  -19.3680 C.2   136  ASP136      0.2293
    171  O         -5.5450   -2.8320  -18.5520 O.2   136  ASP136     -0.2864
    172  CB        -4.3370   -4.7070  -20.2910 C.3   136  ASP136      0.1436
    173  CG        -4.2810   -5.5850  -21.5090 C.2   136  ASP136      0.3671
    174  OD1       -4.6340   -6.7850  -21.3950 O.co2 136  ASP136     -0.2456
    175  OD2       -4.0290   -5.0530  -22.6080 O.co2 136  ASP136     -0.2456
@<TRIPOS>BOND
     1     1     2    1
     2     2     5    1
     3     2     3    1
     4     5     6    1
     5     6     7    1
     6     7     9   ar
     7     7     8   ar
     8     3     4    2
     9     3    10   am
    10   111   110   ar
    11   111   109   ar
    12    10    11    1
    13   110   108   ar
    14   109   107   ar
    15    92    90   ar
    16    92    93   ar
    17    90    88   ar
    18    93    91   ar
    19   108   107   ar
    20    11    14    1
    21    11    12    1
    22   107   106    1
    23    88    87    1
    24    88    89   ar
    25    14    15    1
    26    87    84    1
    27    91    89   ar
    28    42    43    1
    29    13    12    2
    30    12    19   am
    31    25    23    1
    32    43    44    1
    33    43    46    1
    34   106   103    1
    35    44    45    2
    36    66    65    2
    37    15    16    1
    38    19    20    1
    39    86    85    2
    40    84    83    1
    41    84    85    1
    42    83    76   am
    43    16    17    1
    44   103   102    1
    45   103   104    1
    46    85    94   am
    47    26    24    1
    48    23    24    1
    49    23    20    1
    50    38    37    2
    51    37    36    1
    52    20    21    1
    53    65    74   am
    54    65    64    1
    55   105   104    2
    56    75    76    1
    57    75    74    1
    58    75    78    1
    59   102    96   am
    60    63    64    1
    61    76    77    2
    62    47    48    1
    63   137   136    1
    64    94    95    1
    65    96    97    2
    66    96    95    1
    67   104   112   am
    68    17    18    1
    69    95    98    1
    70    64    67    1
    71    79    78    1
    72    79    80    1
    73    36    35    1
    74    36    39    1
    75    49    50    2
    76    49    48    1
    77    48    51    1
    78    40    39    1
    79    21    27   am
    80    21    22    2
    81   136   135    1
    82    27    28    1
    83   112   113    1
    84    82    80   ar
    85    67    68    1
    86    39    41    1
    87    80    81   ar
    88   120   118   am
    89    98    99    1
    90    99   100    1
    91    99   101    1
    92    51    52    1
    93    30    29    2
    94   135   134    1
    95   113   116    1
    96   113   114    1
    97   116   117    1
    98    68    70   ar
    99    68    69   ar
   100    28    29    1
   101    70    72   ar
   102   118   117    1
   103   118   119    2
   104    52    53    1
   105   134   133    1
   106   114   115    2
   107   114   121   am
   108    69    71   ar
   109    72    73   ar
   110    61    60    1
   111   121   122    1
   112   161   160    1
   113    53    54    1
   114   133   130    1
   115    71    73   ar
   116    58    57    1
   117    58    59    2
   118   162   160    1
   119   159   160    1
   120   159   156    1
   121    54    55    1
   122    60    57    1
   123    60    62    1
   124    57    56    1
   125    31    32    1
   126   122   125    1
   127   122   123    1
   128   157   156    1
   129   157   158    2
   130   130   131    1
   131   130   129    1
   132   127   126   ar
   133   126   128   ar
   134   126   125    1
   135   132   131    2
   136   156   155    1
   137   124   123    2
   138    32    33    1
   139   167   164    1
   140    34    33    2
   141   175   173   ar
   142   141   140    2
   143   164   163    1
   144   164   165    1
   145   173   174   ar
   146   173   172    1
   147   168   165   am
   148   168   169    1
   149   140   139    1
   150   140   147   am
   151   165   166    2
   152   139   142    1
   153   139   138    1
   154   142   143    1
   155   148   149    1
   156   148   147    1
   157   148   151    1
   158   169   172    1
   159   169   170    1
   160   149   150    2
   161   143   144    1
   162   151   152    1
   163   170   171    2
   164   144   146   am
   165   144   145    2
   166   152   154   am
   167   152   153    2
