@<TRIPOS>MOLECULE
tmp/4fktA00.pdb
 167 160 0 0 0
SMALL
GASTEIGER

@<TRIPOS>ATOM
      1  N         -0.5510  -11.1910   -1.8710 N.3     8  GLU8       -0.1231
      2  CA        -0.1900  -12.3650   -1.0780 C.3     8  GLU8        0.1699
      3  C         -0.7030  -12.2840    0.3530 C.2     8  GLU8        0.2592
      4  O         -0.9040  -11.1890    0.8860 O.2     8  GLU8       -0.2718
      5  CB         1.3310  -12.5880   -1.0760 C.3     8  GLU8        0.0402
      6  CG         2.1370  -11.4090   -0.5600 C.3     8  GLU8        0.1161
      7  CD         3.6300  -11.6550   -0.5090 C.2     8  GLU8        0.3649
      8  OE1        4.2280  -11.4670    0.5740 O.co2   8  GLU8       -0.2457
      9  OE2        4.2030  -12.0320   -1.5540 O.co2   8  GLU8       -0.2457
     10  N         -0.8590  -13.4510    0.9920 N.am    9  LYS9       -0.1966
     11  CA        -1.3150  -13.5480    2.3730 C.3     9  LYS9        0.1728
     12  C         -0.1440  -13.2230    3.2950 C.2     9  LYS9        0.2616
     13  O          0.8750  -13.9320    3.2620 O.2     9  LYS9       -0.2715
     14  CB        -1.8500  -14.9690    2.6470 C.3     9  LYS9        0.0311
     15  CG        -2.3890  -15.2000    4.0480 C.3     9  LYS9        0.0038
     16  CD        -3.0780  -16.5640    4.1240 C.3     9  LYS9        0.0206
     17  CE        -3.2700  -17.0580    5.5360 C.3     9  LYS9        0.1093
     18  NZ        -4.1140  -18.2830    5.5810 N.3     9  LYS9       -0.1314
     19  N         -0.2880  -12.1750    4.1270 N.am   10  ILE10      -0.1977
     20  CA         0.7610  -11.7400    5.0610 C.3    10  ILE10       0.1596
     21  C          0.4700  -12.0510    6.5240 C.2    10  ILE10       0.2287
     22  O          1.2550  -11.6500    7.4000 O.2    10  ILE10      -0.2864
     23  CB         1.1710  -10.2640    4.8700 C.3    10  ILE10       0.0276
     24  CG1        0.0020   -9.2970    5.0690 C.3    10  ILE10       0.0022
     25  CG2        1.8180  -10.0660    3.4990 C.3    10  ILE10       0.0022
     26  CD1        0.3910   -7.8800    4.9090 C.3    10  ILE10       0.0001
     27  N         -4.9910  -11.2490    6.8030 N.3    18  VAL18      -0.1245
     28  CA        -4.3600  -10.0290    6.3040 C.3    18  VAL18       0.1561
     29  C         -3.6620  -10.3420    4.9770 C.2    18  VAL18       0.2260
     30  O         -2.9060  -11.3070    4.8860 O.2    18  VAL18      -0.2867
     31  CB        -3.3690   -9.3940    7.3130 C.3    18  VAL18       0.0252
     32  CG1       -2.8790   -8.0420    6.8020 C.3    18  VAL18       0.0019
     33  CG2       -4.0220   -9.2110    8.6780 C.3    18  VAL18       0.0019
     34  N         -2.0840   -3.1230    3.2380 N.3    31  ALA31      -0.1245
     35  CA        -2.4190   -4.3670    3.9370 C.3    31  ALA31       0.1562
     36  C         -3.9250   -4.3610    4.1210 C.2    31  ALA31       0.2260
     37  O         -4.4940   -3.3850    4.6130 O.2    31  ALA31      -0.2867
     38  CB        -1.7420   -4.4410    5.2660 C.3    31  ALA31       0.0290
     39  N         -7.2520   -6.2550    5.6200 N.3    33  LYS33      -0.1245
     40  CA        -7.6990   -7.2000    6.6390 C.3    33  LYS33       0.1561
     41  C         -9.1800   -7.4020    6.4310 C.2    33  LYS33       0.2260
     42  O         -9.9390   -6.4350    6.4270 O.2    33  LYS33      -0.2867
     43  CB        -7.4370   -6.6220    8.0420 C.3    33  LYS33       0.0271
     44  CG        -7.6850   -7.6070    9.1430 C.3    33  LYS33       0.0035
     45  CD        -7.2040   -7.0930   10.4830 C.3    33  LYS33       0.0206
     46  CE        -7.4570   -8.0710   11.5970 C.3    33  LYS33       0.1093
     47  NZ        -6.8970   -9.4270   11.3200 N.3    33  LYS33      -0.1314
     48  N          0.6050    2.1570   12.8090 N.3    55  VAL55      -0.1245
     49  CA         0.3340    1.7850   11.4230 C.3    55  VAL55       0.1561
     50  C         -0.9580    2.4640   11.0220 C.2    55  VAL55       0.2260
     51  O         -1.9800    2.2980   11.6900 O.2    55  VAL55      -0.2867
     52  CB         0.2750    0.2460   11.2670 C.3    55  VAL55       0.0252
     53  CG1       -0.0410   -0.1490    9.8230 C.3    55  VAL55       0.0019
     54  CG2        1.5950   -0.3830   11.6610 C.3    55  VAL55       0.0019
     55  N         -4.9480   -0.8370    5.6050 N.3    71  PHE71      -0.1227
     56  CA        -3.8630   -0.2680    6.3810 C.3    71  PHE71       0.1736
     57  C         -2.6550    0.0480    5.5410 C.2    71  PHE71       0.2598
     58  O         -2.4060   -0.5630    4.5080 O.2    71  PHE71      -0.2717
     59  CB        -3.4140   -1.2830    7.4410 C.3    71  PHE71       0.0547
     60  CG        -4.3590   -1.4330    8.5910 C.ar   71  PHE71      -0.0202
     61  CD1       -4.2860   -0.5740    9.6800 C.ar   71  PHE71      -0.0042
     62  CD2       -5.2140   -2.5090    8.6660 C.ar   71  PHE71      -0.0042
     63  CE1       -5.0860   -0.7660   10.7970 C.ar   71  PHE71      -0.0003
     64  CE2       -6.0420   -2.6860    9.7800 C.ar   71  PHE71      -0.0003
     65  CZ        -5.9820   -1.7970   10.8290 C.ar   71  PHE71      -0.0000
     66  N         -1.8400    0.9520    6.0380 N.am   72  GLU72      -0.1920
     67  CA        -0.4980    1.1600    5.5330 C.3    72  GLU72       0.1949
     68  C          0.2440   -0.2090    5.5880 C.2    72  GLU72       0.2659
     69  O          0.0430   -0.9820    6.5260 O.2    72  GLU72      -0.2711
     70  CB         0.2050    2.1840    6.4510 C.2    72  GLU72       0.0111
     71  CG         1.7130    2.1350    6.4900 C.2    72  GLU72       0.0838
     72  CD         2.3720    3.0580    7.4950 C.2    72  GLU72       0.3877
     73  OE1        1.7390    3.4090    8.5180 O.co2  72  GLU72      -0.2406
     74  OE2        3.5920    3.2760    7.3390 O.co2  72  GLU72      -0.2406
     75  N          1.0840   -0.4670    4.5930 N.am   73  PHE73      -0.1957
     76  CA         1.8650   -1.6940    4.5010 C.3    73  PHE73       0.1771
     77  C          3.3110   -1.4800    4.9470 C.2    73  PHE73       0.2619
     78  O          3.9520   -0.5250    4.4880 O.2    73  PHE73      -0.2715
     79  CB         1.8750   -2.1830    3.0590 C.3    73  PHE73       0.0574
     80  CG         2.6720   -3.4270    2.8200 C.ar   73  PHE73      -0.0200
     81  CD1        2.1860   -4.6690    3.1970 C.ar   73  PHE73      -0.0042
     82  CD2        3.9570   -3.3580    2.3100 C.ar   73  PHE73      -0.0042
     83  CE1        2.9790   -5.8040    3.0770 C.ar   73  PHE73      -0.0003
     84  CE2        4.7350   -4.4940    2.2040 C.ar   73  PHE73      -0.0003
     85  CZ         4.2150   -5.7130    2.5030 C.ar   73  PHE73      -0.0000
     86  N          3.8540   -2.4250    5.7300 N.am   74  LEU74      -0.1963
     87  CA         5.2550   -2.4740    6.1320 C.3    74  LEU74       0.1728
     88  C          5.7190   -3.8750    5.8160 C.2    74  LEU74       0.2616
     89  O          4.9530   -4.8040    5.9300 O.2    74  LEU74      -0.2715
     90  CB         5.5390   -2.1140    7.5720 C.3    74  LEU74       0.0311
     91  CG         5.4220   -0.6350    7.9160 C.3    74  LEU74       0.0022
     92  CD1        3.9950   -0.3120    8.3260 C.3    74  LEU74       0.0001
     93  CD2        6.3570   -0.2510    9.0660 C.3    74  LEU74       0.0001
     94  N          6.9830   -4.0180    5.4800 N.am   75  HIS75      -0.1959
     95  CA         7.5040   -5.2650    4.9240 C.3    75  HIS75       0.1787
     96  C          7.9030   -6.3520    5.8880 C.2    75  HIS75       0.2620
     97  O          8.1400   -7.4700    5.4360 O.2    75  HIS75      -0.2715
     98  CB         8.6860   -4.9630    3.9800 C.3    75  HIS75       0.0785
     99  CG         8.3360   -4.2640    2.6910 C.ar   75  HIS75       0.0821
    100  ND1        8.1140   -2.8850    2.6270 N.ar   75  HIS75      -0.2267
    101  CD2        8.2150   -4.7760    1.4460 C.ar   75  HIS75       0.1154
    102  CE1        7.8750   -2.6120    1.3610 C.ar   75  HIS75       0.1986
    103  NE2        7.9410   -3.7090    0.6010 N.ar   75  HIS75      -0.2212
    104  N          8.0610   -6.0580    7.1710 N.am   76  GLN76      -0.1963
    105  CA         8.4990   -7.0790    8.1000 C.3    76  GLN76       0.1733
    106  C          7.9230   -6.8340    9.4720 C.2    76  GLN76       0.2616
    107  O          7.7010   -5.6870    9.8140 O.2    76  GLN76      -0.2715
    108  CB        10.0300   -7.0270    8.1630 C.3    76  GLN76       0.0408
    109  CG        10.6220   -8.1900    8.9280 C.3    76  GLN76       0.0908
    110  CD        12.0610   -8.4280    8.6010 C.2    76  GLN76       0.2608
    111  OE1       12.8720   -8.5520    9.4900 O.2    76  GLN76      -0.2717
    112  NE2       12.4160   -8.6030    7.3240 N.am   76  GLN76      -0.0878
    113  N          7.6950   -7.8930   10.2610 N.am   77  ASP77      -0.1971
    114  CA         7.2810   -7.7440   11.6450 C.3    77  ASP77       0.1709
    115  C          8.4740   -8.0500   12.5770 C.2    77  ASP77       0.2293
    116  O          9.5180   -8.5630   12.1390 O.2    77  ASP77      -0.2864
    117  CB         6.0230   -8.5470   12.0070 C.3    77  ASP77       0.1436
    118  CG         6.1680  -10.0570   11.9680 C.2    77  ASP77       0.3671
    119  OD1        7.2850  -10.5470   12.1530 O.co2  77  ASP77      -0.2456
    120  OD2        5.1460  -10.7490   11.7990 O.co2  77  ASP77      -0.2456
    121  N          9.6700  -11.7920   12.8700 N.3    80  LYS80      -0.1245
    122  CA        10.6000  -12.2250   11.8260 C.3    80  LYS80       0.1561
    123  C         12.0100  -11.6780   12.0600 C.2    80  LYS80       0.2260
    124  O         12.9990  -12.3920   11.8620 O.2    80  LYS80      -0.2867
    125  CB        10.0830  -11.7980   10.4330 C.3    80  LYS80       0.0271
    126  CG        11.0650  -12.1170    9.2810 C.3    80  LYS80       0.0035
    127  CD        10.3990  -12.0340    7.9150 C.3    80  LYS80       0.0206
    128  CE        11.2760  -12.4580    6.7780 C.3    80  LYS80       0.1093
    129  NZ        10.5300  -12.4050    5.4780 N.3    80  LYS80      -0.1314
    130  N          4.3090   -9.9700   16.5640 N.3   122  GLN122     -0.1231
    131  CA         3.5820  -10.0650   15.2930 C.3   122  GLN122      0.1698
    132  C          2.8270   -8.7510   14.9530 C.2   122  GLN122      0.2592
    133  O          2.5170   -8.4970   13.7700 O.2   122  GLN122     -0.2718
    134  CB         2.6160  -11.2650   15.3370 C.3   122  GLN122      0.0381
    135  CG         3.2930  -12.5930   15.7340 C.3   122  GLN122      0.0905
    136  CD         3.1020  -12.9490   17.2000 C.2   122  GLN122      0.2608
    137  OE1        3.8010  -12.4250   18.1140 O.2   122  GLN122     -0.2717
    138  NE2        2.1160  -13.8130   17.4680 N.am  122  GLN122     -0.0878
    139  N          2.5130   -7.9020   15.9620 N.am  123  ASN123     -0.1974
    140  CA         1.8470   -6.6590   15.5590 C.3   123  ASN123      0.1688
    141  C          2.7050   -5.4460   15.7950 C.2   123  ASN123      0.2292
    142  O          2.2260   -4.3170   15.9010 O.2   123  ASN123     -0.2864
    143  CB         0.4160   -6.5560   16.0320 C.3   123  ASN123      0.1181
    144  CG         0.2540   -6.7010   17.5030 C.2   123  ASN123      0.2629
    145  OD1        1.0900   -6.2300   18.2610 O.2   123  ASN123     -0.2716
    146  ND2       -0.8570   -7.2920   17.9370 N.am  123  ASN123     -0.0877
    147  N          5.5630   -3.6630   13.5090 N.3   125  LEU125     -0.1245
    148  CA         6.0780   -3.6750   12.1350 C.3   125  LEU125      0.1561
    149  C          7.2150   -2.7140   11.9690 C.2   125  LEU125      0.2260
    150  O          7.2330   -1.6510   12.5790 O.2   125  LEU125     -0.2867
    151  CB         4.9700   -3.3590   11.1390 C.3   125  LEU125      0.0270
    152  CG         3.6670   -4.1510   11.2920 C.3   125  LEU125      0.0019
    153  CD1        2.6860   -3.7370   10.1990 C.3   125  LEU125      0.0001
    154  CD2        3.9100   -5.6510   11.2310 C.3   125  LEU125      0.0001
    155  N          0.6950   -2.0690   15.2180 N.3   135  ALA135     -0.1231
    156  CA        -0.3580   -2.4780   14.3050 C.3   135  ALA135      0.1694
    157  C         -1.5490   -3.0520   15.0580 C.2   135  ALA135      0.2592
    158  O         -1.3770   -3.6560   16.1080 O.2   135  ALA135     -0.2718
    159  CB         0.1590   -3.5380   13.3490 C.3   135  ALA135      0.0304
    160  N         -2.7400   -2.9030   14.4630 N.am  136  ASP136     -0.1974
    161  CA        -4.0300   -3.4080   14.9780 C.3   136  ASP136      0.1709
    162  C         -4.4410   -2.6530   16.2850 C.2   136  ASP136      0.2293
    163  O         -5.1140   -3.1730   17.1520 O.2   136  ASP136     -0.2864
    164  CB        -4.0050   -4.9450   15.1000 C.3   136  ASP136      0.1436
    165  CG        -4.3300   -5.6820   13.8180 C.2   136  ASP136      0.3671
    166  OD1       -4.5590   -5.0180   12.7970 O.co2 136  ASP136     -0.2456
    167  OD2       -4.3810   -6.9330   13.8460 O.co2 136  ASP136     -0.2456
@<TRIPOS>BOND
     1     1     2    1
     2     9     7   ar
     3     2     5    1
     4     2     3    1
     5     5     6    1
     6     6     7    1
     7     7     8   ar
     8     3     4    2
     9     3    10   am
    10   103   102   ar
    11   103   101   ar
    12    10    11    1
    13   102   100   ar
    14   101    99   ar
    15    84    82   ar
    16    84    85   ar
    17    82    80   ar
    18    11    14    1
    19    11    12    1
    20    85    83   ar
    21   100    99   ar
    22    14    15    1
    23    99    98    1
    24    80    79    1
    25    80    81   ar
    26    79    76    1
    27    83    81   ar
    28    34    35    1
    29    13    12    2
    30    12    19   am
    31    25    23    1
    32    35    36    1
    33    35    38    1
    34    98    95    1
    35    15    16    1
    36    36    37    2
    37    16    17    1
    38    19    20    1
    39    78    77    2
    40    76    75    1
    41    76    77    1
    42    58    57    2
    43    75    68   am
    44    23    20    1
    45    23    24    1
    46    30    29    2
    47    26    24    1
    48    95    94    1
    49    95    96    1
    50    77    86   am
    51    29    28    1
    52    20    21    1
    53    97    96    2
    54   129   128    1
    55    94    88   am
    56    67    68    1
    57    67    66    1
    58    67    70    1
    59    17    18    1
    60    57    66   am
    61    57    56    1
    62    68    69    2
    63    55    56    1
    64    39    40    1
    65    86    87    1
    66    88    89    2
    67    88    87    1
    68    96   104   am
    69    87    90    1
    70    28    27    1
    71    28    31    1
    72    56    59    1
    73    42    41    2
    74    41    40    1
    75    70    71    2
    76    71    72    1
    77    21    22    2
    78    40    43    1
    79   128   127    1
    80    32    31    1
    81   104   105    1
    82    31    33    1
    83   112   110   am
    84    74    72   ar
    85    59    60    1
    86    72    73   ar
    87    90    91    1
    88   127   126    1
    89    91    92    1
    90    91    93    1
    91    43    44    1
    92   105   108    1
    93   105   106    1
    94   108   109    1
    95    60    62   ar
    96    60    61   ar
    97   110   109    1
    98   110   111    2
    99    62    64   ar
   100    44    45    1
   101   126   125    1
   102   106   107    2
   103   106   113   am
   104    61    63   ar
   105    64    65   ar
   106    53    52    1
   107   153   152    1
   108   113   114    1
   109   125   122    1
   110    45    46    1
   111    63    65   ar
   112    50    49    1
   113    50    51    2
   114   151   152    1
   115   151   148    1
   116   154   152    1
   117    52    49    1
   118    52    54    1
   119    47    46    1
   120    49    48    1
   121   114   117    1
   122   114   115    1
   123   120   118   ar
   124   122   123    1
   125   122   121    1
   126   124   123    2
   127   118   117    1
   128   118   119   ar
   129   149   148    1
   130   149   150    2
   131   148   147    1
   132   116   115    2
   133   166   165   ar
   134   159   156    1
   135   133   132    2
   136   165   167   ar
   137   165   164    1
   138   156   157    1
   139   156   155    1
   140   160   161    1
   141   160   157   am
   142   132   131    1
   143   132   139   am
   144   161   164    1
   145   161   162    1
   146   157   158    2
   147   131   134    1
   148   131   130    1
   149   134   135    1
   150   140   141    1
   151   140   139    1
   152   140   143    1
   153   135   136    1
   154   141   142    2
   155   143   144    1
   156   162   163    2
   157   136   138   am
   158   136   137    2
   159   144   146   am
   160   144   145    2
