@<TRIPOS>MOLECULE
tmp/4fkvA00.pdb
 175 167 0 0 0
SMALL
GASTEIGER

@<TRIPOS>ATOM
      1  N        -14.0360  -14.0000   -6.0110 N.3    10  ILE10      -0.1231
      2  CA       -12.9020  -13.1450   -6.3660 C.3    10  ILE10       0.1696
      3  C        -13.1220  -11.6640   -5.9730 C.2    10  ILE10       0.2632
      4  O        -12.2220  -10.8330   -6.1780 O.2    10  ILE10      -0.2714
      5  CB       -12.4640  -13.3260   -7.8500 C.3    10  ILE10       0.0266
      6  CG1      -13.6020  -13.1120   -8.8540 C.3    10  ILE10       0.0019
      7  CG2      -11.8330  -14.7170   -8.0370 C.3    10  ILE10       0.0020
      8  CD1      -13.2200  -13.3630  -10.3770 C.3    10  ILE10       0.0001
      9  N        -14.2660  -11.3580   -5.3610 N.am   11  GLY11      -0.1718
     10  CA       -14.5710   -9.9980   -4.9200 C.2    11  GLY11       0.1480
     11  C        -16.0350   -9.6940   -4.6680 C.2    11  GLY11       0.2820
     12  O        -16.9150  -10.5030   -4.9890 O.2    11  GLY11      -0.2669
     13  N        -16.2990   -8.5030   -4.0870 N.am   12  GLU12      -0.1929
     14  CA       -17.6540   -8.0360   -3.8020 C.3    12  GLU12       0.1736
     15  C        -17.7430   -6.5200   -4.0060 C.2    12  GLU12       0.2617
     16  O        -16.9940   -5.7630   -3.3830 O.2    12  GLU12      -0.2715
     17  CB       -18.0950   -8.4290   -2.3760 C.3    12  GLU12       0.0429
     18  CG       -19.4840   -7.9970   -2.0180 C.3    12  GLU12       0.1163
     19  CD       -19.9970   -8.4610   -0.6900 C.2    12  GLU12       0.3649
     20  OE1      -19.2660   -9.0730    0.0600 O.co2  12  GLU12      -0.2457
     21  OE2      -21.1020   -8.1090   -0.2490 O.co2  12  GLU12      -0.2457
     22  N        -18.6300   -6.1090   -4.9090 N.am   13  GLY13      -0.1955
     23  CA       -18.8770   -4.7080   -5.2270 C.3    13  GLY13       0.1869
     24  C        -20.2100   -4.2230   -4.6970 C.2    13  GLY13       0.2309
     25  O        -20.8440   -4.8980   -3.8780 O.2    13  GLY13      -0.2863
     26  N        -18.6770  -11.4520   -7.1200 N.3    18  VAL18      -0.1245
     27  CA       -18.0230  -11.9530   -8.3390 C.3    18  VAL18       0.1561
     28  C        -17.2940  -13.2470   -8.0250 C.2    18  VAL18       0.2260
     29  O        -16.4840  -13.2950   -7.1000 O.2    18  VAL18      -0.2867
     30  CB       -17.0620  -10.9020   -8.9820 C.3    18  VAL18       0.0252
     31  CG1      -16.5990  -11.3670  -10.3610 C.3    18  VAL18       0.0019
     32  CG2      -17.7310   -9.5260   -9.0990 C.3    18  VAL18       0.0019
     33  N        -15.5980  -14.8680  -15.1660 N.3    31  ALA31      -0.1245
     34  CA       -15.9530  -14.1680  -13.9470 C.3    31  ALA31       0.1562
     35  C        -17.4600  -14.0740  -13.9810 C.2    31  ALA31       0.2260
     36  O        -18.0220  -13.5170  -14.9370 O.2    31  ALA31      -0.2867
     37  CB       -15.3200  -12.7790  -13.8990 C.3    31  ALA31       0.0290
     38  N        -20.8130  -12.6620  -12.1880 N.3    33  LYS33      -0.1245
     39  CA       -21.2730  -11.6540  -11.2520 C.3    33  LYS33       0.1561
     40  C        -22.7620  -11.8200  -11.0110 C.2    33  LYS33       0.2260
     41  O        -23.5370  -11.7810  -11.9590 O.2    33  LYS33      -0.2867
     42  CB       -20.9330  -10.2310  -11.7640 C.3    33  LYS33       0.0271
     43  CG       -21.3380   -9.1290  -10.7980 C.3    33  LYS33       0.0035
     44  CD       -20.8420   -7.7880  -11.2660 C.3    33  LYS33       0.0206
     45  CE       -20.8050   -6.7760  -10.1520 C.3    33  LYS33       0.1093
     46  NZ       -20.0270   -5.5740  -10.5540 N.3    33  LYS33      -0.1314
     47  N        -12.9800   -5.0930  -20.2760 N.3    59  VAL59      -0.1245
     48  CA       -13.2670   -6.4960  -19.9130 C.3    59  VAL59       0.1561
     49  C        -14.5560   -6.9300  -20.6400 C.2    59  VAL59       0.2260
     50  O        -15.6100   -6.2960  -20.4900 O.2    59  VAL59      -0.2867
     51  CB       -13.3600   -6.7000  -18.3740 C.3    59  VAL59       0.0252
     52  CG1      -13.6950   -8.1480  -18.0290 C.3    59  VAL59       0.0019
     53  CG2      -12.0630   -6.2950  -17.6960 C.3    59  VAL59       0.0019
     54  N        -18.4990  -12.4820  -17.5000 N.3    75  PHE75      -0.1227
     55  CA       -17.4090  -11.6520  -18.0190 C.3    75  PHE75       0.1736
     56  C        -16.1860  -12.4480  -18.3580 C.2    75  PHE75       0.2595
     57  O        -15.9390  -13.4990  -17.7670 O.2    75  PHE75      -0.2718
     58  CB       -16.9860  -10.6230  -16.9530 C.3    75  PHE75       0.0547
     59  CG       -17.9450   -9.4870  -16.7270 C.ar   75  PHE75      -0.0202
     60  CD1      -18.0140   -8.4250  -17.6230 C.ar   75  PHE75      -0.0042
     61  CD2      -18.7540   -9.4550  -15.5990 C.ar   75  PHE75      -0.0042
     62  CE1      -18.8670   -7.3440  -17.3830 C.ar   75  PHE75      -0.0003
     63  CE2      -19.6060   -8.3760  -15.3610 C.ar   75  PHE75      -0.0003
     64  CZ       -19.6580   -7.3280  -16.2530 C.ar   75  PHE75      -0.0000
     65  N        -15.3450  -11.8710  -19.2160 N.am   76  GLU76      -0.1965
     66  CA       -13.9950  -12.3680  -19.4350 C.3    76  GLU76       0.1733
     67  C        -13.2580  -12.3950  -18.0710 C.2    76  GLU76       0.2616
     68  O        -13.4940  -11.5180  -17.2120 O.2    76  GLU76      -0.2715
     69  CB       -13.3010  -11.4240  -20.4430 C.3    76  GLU76       0.0429
     70  CG       -11.7870  -11.4520  -20.4630 C.3    76  GLU76       0.1163
     71  CD       -11.1870  -10.3800  -21.3490 C.2    76  GLU76       0.3649
     72  OE1      -11.8880   -9.3970  -21.6840 O.co2  76  GLU76      -0.2457
     73  OE2       -9.9950  -10.5200  -21.6920 O.co2  76  GLU76      -0.2457
     74  N        -12.3880  -13.4070  -17.8600 N.am   77  PHE77      -0.1960
     75  CA       -11.6200  -13.5170  -16.6190 C.3    77  PHE77       0.1771
     76  C        -10.1540  -13.0800  -16.8450 C.2    77  PHE77       0.2619
     77  O         -9.5390  -13.5010  -17.8270 O.2    77  PHE77      -0.2715
     78  CB       -11.6660  -14.9640  -16.0710 C.3    77  PHE77       0.0574
     79  CG       -10.7860  -15.1870  -14.8700 C.ar   77  PHE77      -0.0200
     80  CD1      -11.2260  -14.8550  -13.5970 C.ar   77  PHE77      -0.0042
     81  CD2       -9.4960  -15.7060  -15.0140 C.ar   77  PHE77      -0.0042
     82  CE1      -10.4040  -15.0470  -12.4820 C.ar   77  PHE77      -0.0003
     83  CE2       -8.6620  -15.8600  -13.9050 C.ar   77  PHE77      -0.0003
     84  CZ        -9.1150  -15.5290  -12.6460 C.ar   77  PHE77      -0.0000
     85  N         -9.6200  -12.2650  -15.9220 N.am   78  LEU78      -0.1963
     86  CA        -8.2280  -11.8380  -15.8510 C.3    78  LEU78       0.1728
     87  C         -7.7000  -12.2230  -14.4870 C.2    78  LEU78       0.2616
     88  O         -8.4560  -12.2350  -13.5210 O.2    78  LEU78      -0.2715
     89  CB        -7.9800  -10.3650  -16.1680 C.3    78  LEU78       0.0311
     90  CG        -8.1000  -10.0150  -17.6620 C.3    78  LEU78       0.0022
     91  CD1       -9.5450   -9.6430  -18.0190 C.3    78  LEU78       0.0001
     92  CD2       -7.1780   -8.8500  -18.0310 C.3    78  LEU78       0.0001
     93  N         -6.4040  -12.5530  -14.4050 N.am   79  HIS79      -0.1959
     94  CA        -5.8450  -13.1580  -13.1940 C.3    79  HIS79       0.1787
     95  C         -5.4820  -12.2290  -12.0430 C.2    79  HIS79       0.2620
     96  O         -5.3090  -12.7260  -10.9310 O.2    79  HIS79      -0.2715
     97  CB        -4.6280  -14.0080  -13.5750 C.3    79  HIS79       0.0785
     98  CG        -5.0180  -15.3050  -14.2030 C.ar   79  HIS79       0.0821
     99  ND1       -5.3230  -15.4020  -15.5600 N.ar   79  HIS79      -0.2267
    100  CD2       -5.1990  -16.5120  -13.6210 C.ar   79  HIS79       0.1154
    101  CE1       -5.6590  -16.6630  -15.7600 C.ar   79  HIS79       0.1986
    102  NE2       -5.5750  -17.3810  -14.6310 N.ar   79  HIS79      -0.2212
    103  N         -5.3440  -10.9090  -12.2710 N.am   80  GLN80      -0.1963
    104  CA        -4.9630  -10.0250  -11.1700 C.3    80  GLN80       0.1733
    105  C         -5.5480   -8.6420  -11.3830 C.2    80  GLN80       0.2616
    106  O         -5.8020   -8.2660  -12.5270 O.2    80  GLN80      -0.2715
    107  CB        -3.4180   -9.9490  -11.0860 C.3    80  GLN80       0.0408
    108  CG        -2.8790   -9.2980   -9.8000 C.3    80  GLN80       0.0908
    109  CD        -1.4420   -9.6830   -9.5590 C.2    80  GLN80       0.2608
    110  OE1       -0.5490   -8.8370   -9.5800 O.2    80  GLN80      -0.2717
    111  NE2       -1.1910  -10.9630   -9.2450 N.am   80  GLN80      -0.0878
    112  N         -5.7750   -7.8930  -10.2850 N.am   81  ASP81      -0.1971
    113  CA        -6.2410   -6.5060  -10.4080 C.3    81  ASP81       0.1709
    114  C         -5.0550   -5.5600  -10.1490 C.2    81  ASP81       0.2293
    115  O         -4.0060   -5.9920   -9.6510 O.2    81  ASP81      -0.2864
    116  CB        -7.4630   -6.1800   -9.5290 C.3    81  ASP81       0.1436
    117  CG        -7.3080   -6.2460   -8.0180 C.2    81  ASP81       0.3671
    118  OD1       -6.1700   -6.2960   -7.5390 O.co2  81  ASP81      -0.2456
    119  OD2       -8.3300   -6.2880   -7.3260 O.co2  81  ASP81      -0.2456
    120  N         -3.8340   -5.3450   -6.3010 N.3    84  LYS84      -0.1245
    121  CA        -2.9030   -6.3820   -5.8320 C.3    84  LYS84       0.1561
    122  C         -1.5120   -6.1730   -6.4400 C.2    84  LYS84       0.2260
    123  O         -0.5130   -6.3000   -5.7340 O.2    84  LYS84      -0.2867
    124  CB        -3.4420   -7.7800   -6.1630 C.3    84  LYS84       0.0271
    125  CG        -2.5330   -8.9180   -5.6880 C.3    84  LYS84       0.0035
    126  CD        -3.2510  -10.2450   -5.8970 C.3    84  LYS84       0.0206
    127  CE        -2.5410  -11.4190   -5.2890 C.3    84  LYS84       0.1093
    128  NZ        -3.3090  -12.6830   -5.5110 N.3    84  LYS84      -0.1314
    129  N        -11.2650    2.6910  -10.2430 N.3   124  LYS124     -0.1245
    130  CA       -10.4530    2.4640   -9.0650 C.3   124  LYS124      0.1561
    131  C         -9.5540    1.2640   -9.3440 C.2   124  LYS124      0.2260
    132  O         -9.8830    0.4560  -10.2340 O.2   124  LYS124     -0.2867
    133  CB       -11.3220    2.2590   -7.8140 C.3   124  LYS124      0.0271
    134  CG       -12.2490    1.0730   -7.8470 C.3   124  LYS124      0.0035
    135  CD       -13.3860    1.3270   -6.8650 C.3   124  LYS124      0.0206
    136  CE       -14.3740    0.2010   -6.8180 C.3   124  LYS124      0.1093
    137  NZ       -15.5700    0.6070   -6.0390 N.3   124  LYS124     -0.1314
    138  N         -9.1540   -1.5400   -8.1010 N.3   126  GLN126     -0.1231
    139  CA        -9.9030   -2.7820   -7.9510 C.3   126  GLN126      0.1698
    140  C        -10.7110   -3.1520   -9.2300 C.2   126  GLN126      0.2592
    141  O        -11.0880   -4.3170   -9.4000 O.2   126  GLN126     -0.2718
    142  CB       -10.8070   -2.6860   -6.7080 C.3   126  GLN126      0.0381
    143  CG       -10.0270   -2.4550   -5.3810 C.3   126  GLN126      0.0905
    144  CD        -9.7190   -1.0240   -4.9180 C.2   126  GLN126      0.2608
    145  OE1       -9.6370   -0.0350   -5.6730 O.2   126  GLN126     -0.2717
    146  NE2       -9.4360   -0.8990   -3.6300 N.am  126  GLN126     -0.0878
    147  N        -11.0210   -2.2010  -10.1220 N.am  127  ASN127     -0.1974
    148  CA       -11.7350   -2.6500  -11.3170 C.3   127  ASN127      0.1688
    149  C        -10.8370   -2.4820  -12.5660 C.2   127  ASN127      0.2292
    150  O        -11.3350   -2.4820  -13.6910 O.2   127  ASN127     -0.2864
    151  CB       -13.1270   -2.0030  -11.4700 C.3   127  ASN127      0.1181
    152  CG       -13.1710   -0.5110  -11.3210 C.2   127  ASN127      0.2629
    153  OD1      -12.3220    0.2120  -11.8340 O.2   127  ASN127     -0.2716
    154  ND2      -14.2180   -0.0280  -10.6730 N.am  127  ASN127     -0.0877
    155  N         -7.9730   -4.5250  -14.4880 N.3   129  LEU129     -0.1245
    156  CA        -7.4830   -5.9110  -14.4870 C.3   129  LEU129      0.1561
    157  C         -6.3340   -6.1060  -15.4240 C.2   129  LEU129      0.2260
    158  O         -6.2970   -5.5000  -16.4910 O.2   129  LEU129     -0.2867
    159  CB        -8.6270   -6.8810  -14.8550 C.3   129  LEU129      0.0270
    160  CG        -9.9170   -6.7320  -14.0190 C.3   129  LEU129      0.0019
    161  CD1      -10.9420   -7.7310  -14.5030 C.3   129  LEU129      0.0001
    162  CD2       -9.6270   -6.8990  -12.5020 C.3   129  LEU129      0.0001
    163  N        -12.9650   -2.7750  -15.9850 N.3   139  ALA139     -0.1231
    164  CA       -14.0790   -3.6470  -15.5600 C.3   139  ALA139      0.1694
    165  C        -15.1690   -2.8520  -14.8340 C.2   139  ALA139      0.2592
    166  O        -14.9150   -1.7480  -14.3510 O.2   139  ALA139     -0.2718
    167  CB       -13.5730   -4.7340  -14.6220 C.3   139  ALA139      0.0304
    168  N        -16.3480   -3.4850  -14.6560 N.am  140  ASP140     -0.1974
    169  CA       -17.4840   -2.9550  -13.8780 C.3   140  ASP140      0.1709
    170  C        -17.9020   -1.5840  -14.4320 C.2   140  ASP140      0.2293
    171  O        -18.0320   -0.6190  -13.6820 O.2   140  ASP140     -0.2864
    172  CB       -17.0960   -2.8770  -12.3800 C.3   140  ASP140      0.1436
    173  CG       -18.2400   -2.6300  -11.4020 C.2   140  ASP140      0.3671
    174  OD1      -19.4020   -2.8950  -11.7660 O.co2 140  ASP140     -0.2456
    175  OD2      -17.9630   -2.1870  -10.2690 O.co2 140  ASP140     -0.2456
@<TRIPOS>BOND
     1    73    71   ar
     2    72    71   ar
     3    71    70    1
     4    49    50    2
     5    49    48    1
     6    70    69    1
     7    69    66    1
     8    47    48    1
     9    48    51    1
    10    66    65    1
    11    66    67    1
    12    65    56   am
    13    51    52    1
    14    51    53    1
    15    56    55    1
    16    56    57    2
    17    67    74   am
    18    67    68    2
    19    92    90    1
    20    91    90    1
    21    55    54    1
    22    55    58    1
    23    74    75    1
    24    77    76    2
    25    90    89    1
    26    60    62   ar
    27    60    59   ar
    28    62    64   ar
    29    58    59    1
    30    76    75    1
    31    76    85   am
    32    59    61   ar
    33    75    78    1
    34   158   157    2
    35    64    63   ar
    36    89    86    1
    37    78    79    1
    38   163   164    1
    39    85    86    1
    40    86    87    1
    41   101    99   ar
    42   101   102   ar
    43    61    63   ar
    44    99    98   ar
    45   164   165    1
    46   164   167    1
    47   157   156    1
    48    33    34    1
    49    81    79   ar
    50    81    83   ar
    51    36    35    2
    52    79    80   ar
    53   159   156    1
    54   159   160    1
    55   165   168   am
    56   165   166    2
    57   168   169    1
    58   102   100   ar
    59   161   160    1
    60   155   156    1
    61    87    93   am
    62    87    88    2
    63   170   169    1
    64   170   171    2
    65    93    94    1
    66    98   100   ar
    67    98    97    1
    68   160   162    1
    69    35    34    1
    70    34    37    1
    71    83    84   ar
    72   169   172    1
    73   150   149    2
    74    80    82   ar
    75    97    94    1
    76    94    95    1
    77    84    82   ar
    78   149   148    1
    79   106   105    2
    80   172   173    1
    81   103    95   am
    82   103   104    1
    83    38    39    1
    84    95    96    2
    85    41    40    2
    86   153   152    2
    87   174   173   ar
    88    42    39    1
    89    42    43    1
    90   151   152    1
    91   151   148    1
    92   173   175   ar
    93   105   104    1
    94   105   112   am
    95   152   154   am
    96   148   147    1
    97    44    43    1
    98    44    45    1
    99    39    40    1
   100   104   107    1
   101   107   108    1
   102    46    45    1
   103   113   112    1
   104   113   114    1
   105   113   116    1
   106     8     6    1
   107    31    30    1
   108   129   130    1
   109   132   131    2
   110   114   115    2
   111   147   140   am
   112   108   109    1
   113   110   109    2
   114   109   111   am
   115   116   117    1
   116   141   140    2
   117   131   130    1
   118   140   139    1
   119    32    30    1
   120   130   133    1
   121    30    27    1
   122     6     5    1
   123    27    28    1
   124    27    26    1
   125   138   139    1
   126     7     5    1
   127    28    29    2
   128   117   118   ar
   129   117   119   ar
   130   139   142    1
   131     5     2    1
   132   134   133    1
   133   134   135    1
   134   135   136    1
   135   136   137    1
   136   142   143    1
   137   122   121    1
   138   122   123    2
   139     2     1    1
   140     2     3    1
   141   120   121    1
   142     4     3    2
   143   124   121    1
   144   124   125    1
   145     3     9    1
   146   126   125    1
   147   126   127    1
   148   145   144    2
   149   128   127    1
   150   143   144    1
   151     9    10    2
   152    23    22    1
   153    23    24    1
   154    12    11    2
   155    10    11    1
   156   144   146   am
   157    22    15   am
   158    24    25    2
   159    11    13   am
   160    13    14    1
   161    15    14    1
   162    15    16    2
   163    14    17    1
   164    17    18    1
   165    18    19    1
   166    19    21   ar
   167    19    20   ar
