@<TRIPOS>MOLECULE
tmp/4fkwA00.pdb
 175 167 0 0 0
SMALL
GASTEIGER

@<TRIPOS>ATOM
      1  N        -14.1470  -13.5330   -6.1730 N.3    10  ILE10      -0.1231
      2  CA       -13.0000  -12.6830   -6.4850 C.3    10  ILE10       0.1696
      3  C        -13.2780  -11.2140   -6.1040 C.2    10  ILE10       0.2632
      4  O        -12.3580  -10.3940   -6.0990 O.2    10  ILE10      -0.2714
      5  CB       -12.5020  -12.8690   -7.9440 C.3    10  ILE10       0.0266
      6  CG1      -13.6120  -12.6680   -8.9900 C.3    10  ILE10       0.0019
      7  CG2      -11.8590  -14.2540   -8.0900 C.3    10  ILE10       0.0020
      8  CD1      -13.2220  -12.9970  -10.5090 C.3    10  ILE10       0.0001
      9  N        -14.5170  -10.9040   -5.7580 N.am   11  GLY11      -0.1718
     10  CA       -14.8630   -9.5470   -5.3640 C.2    11  GLY11       0.1480
     11  C        -16.3250   -9.2820   -5.1050 C.2    11  GLY11       0.2820
     12  O        -17.1990  -10.0580   -5.4900 O.2    11  GLY11      -0.2669
     13  N        -16.5770   -8.1590   -4.4420 N.am   12  GLU12      -0.1929
     14  CA       -17.9020   -7.6450   -4.1480 C.3    12  GLU12       0.1736
     15  C        -17.9130   -6.1710   -4.5400 C.2    12  GLU12       0.2617
     16  O        -17.0460   -5.4160   -4.1070 O.2    12  GLU12      -0.2715
     17  CB       -18.2680   -7.8550   -2.6710 C.3    12  GLU12       0.0429
     18  CG       -19.7670   -7.9660   -2.4420 C.3    12  GLU12       0.1163
     19  CD       -20.2030   -8.4600   -1.0750 C.2    12  GLU12       0.3649
     20  OE1      -19.3390   -8.9110   -0.2870 O.co2  12  GLU12      -0.2457
     21  OE2      -21.4240   -8.4160   -0.8010 O.co2  12  GLU12      -0.2457
     22  N        -18.8390   -5.8000   -5.4160 N.am   13  GLY13      -0.1955
     23  CA       -18.9630   -4.4300   -5.8930 C.3    13  GLY13       0.1869
     24  C        -20.2850   -3.7980   -5.5320 C.2    13  GLY13       0.2309
     25  O        -21.0610   -4.3610   -4.7470 O.2    13  GLY13      -0.2863
     26  N        -18.8940  -11.0290   -7.5120 N.3    18  VAL18      -0.1245
     27  CA       -18.1770  -11.5940   -8.6620 C.3    18  VAL18       0.1561
     28  C        -17.4240  -12.8710   -8.2790 C.2    18  VAL18       0.2260
     29  O        -16.6270  -12.8770   -7.3370 O.2    18  VAL18      -0.2867
     30  CB       -17.1970  -10.5810   -9.3150 C.3    18  VAL18       0.0252
     31  CG1      -16.6910  -11.1130  -10.6580 C.3    18  VAL18       0.0019
     32  CG2      -17.8550   -9.2100   -9.4980 C.3    18  VAL18       0.0019
     33  N        -15.6190  -14.6860  -15.3570 N.3    31  ALA31      -0.1245
     34  CA       -15.9870  -13.9450  -14.1500 C.3    31  ALA31       0.1562
     35  C        -17.4910  -13.8550  -14.1810 C.2    31  ALA31       0.2260
     36  O        -18.0450  -13.3190  -15.1440 O.2    31  ALA31      -0.2867
     37  CB       -15.3520  -12.5540  -14.1530 C.3    31  ALA31       0.0290
     38  N        -20.8740  -12.4660  -12.5530 N.3    33  LYS33      -0.1245
     39  CA       -21.3490  -11.4450  -11.6320 C.3    33  LYS33       0.1561
     40  C        -22.8330  -11.6250  -11.3630 C.2    33  LYS33       0.2260
     41  O        -23.6140  -11.5640  -12.3060 O.2    33  LYS33      -0.2867
     42  CB       -21.0580  -10.0370  -12.1870 C.3    33  LYS33       0.0271
     43  CG       -21.3500   -8.9210  -11.1840 C.3    33  LYS33       0.0035
     44  CD       -20.9070   -7.5860  -11.7030 C.3    33  LYS33       0.0206
     45  CE       -20.8670   -6.5420  -10.6120 C.3    33  LYS33       0.1093
     46  NZ       -20.2880   -5.2730  -11.1210 N.3    33  LYS33      -0.1314
     47  N        -13.0540   -4.9480  -20.4160 N.3    59  VAL59      -0.1245
     48  CA       -13.3550   -6.3530  -20.0790 C.3    59  VAL59       0.1561
     49  C        -14.5840   -6.7900  -20.8970 C.2    59  VAL59       0.2260
     50  O        -15.6120   -6.1130  -20.8660 O.2    59  VAL59      -0.2867
     51  CB       -13.5620   -6.5970  -18.5530 C.3    59  VAL59       0.0252
     52  CG1      -14.9000   -6.0370  -18.0590 C.3    59  VAL59       0.0019
     53  CG2      -13.4610   -8.0850  -18.2130 C.3    59  VAL59       0.0019
     54  N        -18.5620  -12.3430  -17.7240 N.3    75  PHE75      -0.1227
     55  CA       -17.4670  -11.5540  -18.2870 C.3    75  PHE75       0.1736
     56  C        -16.2310  -12.3770  -18.5940 C.2    75  PHE75       0.2595
     57  O        -16.0520  -13.4740  -18.0790 O.2    75  PHE75      -0.2718
     58  CB       -17.0350  -10.4590  -17.2910 C.3    75  PHE75       0.0547
     59  CG       -18.0230   -9.3620  -17.0290 C.ar   75  PHE75      -0.0202
     60  CD1      -18.0930   -8.2510  -17.8690 C.ar   75  PHE75      -0.0042
     61  CD2      -18.8170   -9.3830  -15.8910 C.ar   75  PHE75      -0.0042
     62  CE1      -18.9770   -7.2050  -17.5990 C.ar   75  PHE75      -0.0003
     63  CE2      -19.6920   -8.3240  -15.6100 C.ar   75  PHE75      -0.0003
     64  CZ       -19.7760   -7.2500  -16.4740 C.ar   75  PHE75      -0.0000
     65  N        -15.3510  -11.7960  -19.3880 N.am   76  GLU76      -0.1965
     66  CA       -14.0070  -12.3000  -19.6340 C.3    76  GLU76       0.1733
     67  C        -13.2850  -12.3000  -18.2800 C.2    76  GLU76       0.2616
     68  O        -13.5390  -11.4130  -17.4600 O.2    76  GLU76      -0.2715
     69  CB       -13.3250  -11.3430  -20.6240 C.3    76  GLU76       0.0429
     70  CG       -11.8110  -11.3920  -20.6700 C.3    76  GLU76       0.1163
     71  CD       -11.1830  -10.2970  -21.5060 C.2    76  GLU76       0.3649
     72  OE1      -11.8720   -9.2950  -21.8000 O.co2  76  GLU76      -0.2457
     73  OE2       -9.9850  -10.4260  -21.8430 O.co2  76  GLU76      -0.2457
     74  N        -12.4130  -13.2850  -18.0340 N.am   77  PHE77      -0.1960
     75  CA       -11.6660  -13.3550  -16.7760 C.3    77  PHE77       0.1771
     76  C        -10.2060  -12.9120  -17.0030 C.2    77  PHE77       0.2619
     77  O         -9.6070  -13.3250  -17.9870 O.2    77  PHE77      -0.2715
     78  CB       -11.7380  -14.8020  -16.1990 C.3    77  PHE77       0.0574
     79  CG       -10.8980  -15.0190  -14.9660 C.ar   77  PHE77      -0.0200
     80  CD1      -11.3730  -14.6550  -13.7080 C.ar   77  PHE77      -0.0042
     81  CD2       -9.6060  -15.5200  -15.0640 C.ar   77  PHE77      -0.0042
     82  CE1      -10.5700  -14.7850  -12.5720 C.ar   77  PHE77      -0.0003
     83  CE2       -8.8000  -15.6600  -13.9270 C.ar   77  PHE77      -0.0003
     84  CZ        -9.2880  -15.2900  -12.6850 C.ar   77  PHE77      -0.0000
     85  N         -9.6570  -12.0830  -16.0870 N.am   78  LEU78      -0.1963
     86  CA        -8.2400  -11.6570  -16.0310 C.3    78  LEU78       0.1728
     87  C         -7.7280  -12.0450  -14.6630 C.2    78  LEU78       0.2616
     88  O         -8.4950  -12.0650  -13.7210 O.2    78  LEU78      -0.2715
     89  CB        -8.0500  -10.1550  -16.3150 C.3    78  LEU78       0.0311
     90  CG        -8.2070   -9.8160  -17.8090 C.3    78  LEU78       0.0022
     91  CD1       -9.6690   -9.4600  -18.1390 C.3    78  LEU78       0.0001
     92  CD2       -7.2940   -8.6600  -18.2100 C.3    78  LEU78       0.0001
     93  N         -6.4570  -12.4100  -14.5610 N.am   79  HIS79      -0.1959
     94  CA        -5.9290  -13.0100  -13.3440 C.3    79  HIS79       0.1787
     95  C         -5.5370  -12.0720  -12.1950 C.2    79  HIS79       0.2620
     96  O         -5.3520  -12.5630  -11.0750 O.2    79  HIS79      -0.2715
     97  CB        -4.7310  -13.9020  -13.7120 C.3    79  HIS79       0.0785
     98  CG        -5.1490  -15.1980  -14.3350 C.ar   79  HIS79       0.0821
     99  ND1       -5.4910  -15.2840  -15.6770 N.ar   79  HIS79      -0.2267
    100  CD2       -5.2900  -16.4150  -13.7700 C.ar   79  HIS79       0.1154
    101  CE1       -5.8450  -16.5400  -15.8760 C.ar   79  HIS79       0.1986
    102  NE2       -5.7100  -17.2640  -14.7650 N.ar   79  HIS79      -0.2212
    103  N         -5.4500  -10.7440  -12.4220 N.am   80  GLN80      -0.1963
    104  CA        -5.0290   -9.8420  -11.3430 C.3    80  GLN80       0.1733
    105  C         -5.5870   -8.4600  -11.5500 C.2    80  GLN80       0.2616
    106  O         -5.8640   -8.0720  -12.6880 O.2    80  GLN80      -0.2715
    107  CB        -3.4830   -9.7790  -11.2670 C.3    80  GLN80       0.0408
    108  CG        -2.9400   -9.2090   -9.9520 C.3    80  GLN80       0.0908
    109  CD        -1.5210   -9.6430   -9.7160 C.2    80  GLN80       0.2608
    110  OE1       -1.2430  -10.8050   -9.3640 O.2    80  GLN80      -0.2717
    111  NE2       -0.5940   -8.7380   -9.9500 N.am   80  GLN80      -0.0878
    112  N         -5.7960   -7.7280  -10.4500 N.am   81  ASP81      -0.1971
    113  CA        -6.2450   -6.3370  -10.5750 C.3    81  ASP81       0.1709
    114  C         -5.0600   -5.4150  -10.2940 C.2    81  ASP81       0.2293
    115  O         -4.0210   -5.8680   -9.8070 O.2    81  ASP81      -0.2864
    116  CB        -7.4730   -6.0250   -9.7150 C.3    81  ASP81       0.1436
    117  CG        -7.2930   -6.0990   -8.2110 C.2    81  ASP81       0.3671
    118  OD1       -6.1600   -6.1530   -7.7590 O.co2  81  ASP81      -0.2456
    119  OD2       -8.2940   -6.1680   -7.5090 O.co2  81  ASP81      -0.2456
    120  N         -3.8200   -5.2080   -6.5040 N.3    84  LYS84      -0.1245
    121  CA        -2.8900   -6.2610   -6.0590 C.3    84  LYS84       0.1561
    122  C         -1.5030   -6.0590   -6.6930 C.2    84  LYS84       0.2260
    123  O         -0.4980   -6.2180   -6.0100 O.2    84  LYS84      -0.2867
    124  CB        -3.4510   -7.6720   -6.3880 C.3    84  LYS84       0.0271
    125  CG        -2.5370   -8.8150   -5.9390 C.3    84  LYS84       0.0035
    126  CD        -3.3080  -10.1340   -5.9360 C.3    84  LYS84       0.0206
    127  CE        -2.4270  -11.3410   -5.8200 C.3    84  LYS84       0.1093
    128  NZ        -3.2350  -12.5860   -6.0280 N.3    84  LYS84      -0.1314
    129  N        -11.1530    2.8350  -10.3500 N.3   124  LYS124     -0.1245
    130  CA       -10.3440    2.5920   -9.1610 C.3   124  LYS124      0.1561
    131  C         -9.4520    1.4060   -9.4580 C.2   124  LYS124      0.2260
    132  O         -9.7900    0.5790  -10.3200 O.2   124  LYS124     -0.2867
    133  CB       -11.1990    2.3630   -7.9010 C.3   124  LYS124      0.0271
    134  CG       -12.1530    1.1820   -7.9470 C.3   124  LYS124      0.0035
    135  CD       -13.1860    1.3610   -6.8110 C.3   124  LYS124      0.0206
    136  CE       -14.2810    0.3430   -6.8500 C.3   124  LYS124      0.1093
    137  NZ       -15.4300    0.7800   -6.0170 N.3   124  LYS124     -0.1314
    138  N         -9.0750   -1.4290   -8.1570 N.3   126  GLN126     -0.1231
    139  CA        -9.7910   -2.7030   -8.0260 C.3   126  GLN126      0.1698
    140  C        -10.5800   -3.0790   -9.2730 C.2   126  GLN126      0.2592
    141  O        -10.8780   -4.2670   -9.4720 O.2   126  GLN126     -0.2718
    142  CB       -10.7430   -2.6600   -6.8330 C.3   126  GLN126      0.0381
    143  CG       -10.1740   -3.2880   -5.5780 C.3   126  GLN126      0.0905
    144  CD       -10.9200   -2.7920   -4.3640 C.2   126  GLN126      0.2608
    145  OE1      -10.2070   -2.1330   -3.4690 O.2   126  GLN126     -0.2717
    146  NE2      -12.1410   -2.9560   -4.2330 N.am  126  GLN126     -0.0878
    147  N        -10.9780   -2.1160  -10.1110 N.am  127  ASN127     -0.1974
    148  CA       -11.7000   -2.5270  -11.3250 C.3   127  ASN127      0.1688
    149  C        -10.8350   -2.3300  -12.5870 C.2   127  ASN127      0.2292
    150  O        -11.3590   -2.3260  -13.7050 O.2   127  ASN127     -0.2864
    151  CB       -13.0900   -1.8720  -11.4520 C.3   127  ASN127      0.1181
    152  CG       -13.1070   -0.3720  -11.3390 C.2   127  ASN127      0.2629
    153  OD1      -12.1900    0.3120  -11.7730 O.2   127  ASN127     -0.2716
    154  ND2      -14.1430    0.1520  -10.7080 N.am  127  ASN127     -0.0877
    155  N         -8.0530   -4.3660  -14.6280 N.3   129  LEU129     -0.1245
    156  CA        -7.5510   -5.7460  -14.6770 C.3   129  LEU129      0.1561
    157  C         -6.4100   -5.9070  -15.6190 C.2   129  LEU129      0.2260
    158  O         -6.4190   -5.3210  -16.6960 O.2   129  LEU129     -0.2867
    159  CB        -8.7040   -6.6710  -15.0910 C.3   129  LEU129      0.0270
    160  CG        -9.9900   -6.5020  -14.2610 C.3   129  LEU129      0.0019
    161  CD1      -11.0620   -7.4110  -14.7830 C.3   129  LEU129      0.0001
    162  CD2       -9.7410   -6.7800  -12.7430 C.3   129  LEU129      0.0001
    163  N        -13.0970   -2.4540  -16.1230 N.3   139  ALA139     -0.1231
    164  CA       -14.1790   -3.3550  -15.6760 C.3   139  ALA139      0.1694
    165  C        -15.1570   -2.6350  -14.7650 C.2   139  ALA139      0.2592
    166  O        -14.8670   -1.5300  -14.3090 O.2   139  ALA139     -0.2718
    167  CB       -13.5770   -4.5460  -14.9240 C.3   139  ALA139      0.0304
    168  N        -16.3010   -3.2780  -14.4260 N.am  140  ASP140     -0.1974
    169  CA       -17.2510   -2.7680  -13.4260 C.3   140  ASP140      0.1709
    170  C        -17.8420   -1.3680  -13.7760 C.2   140  ASP140      0.2293
    171  O        -17.8370   -0.4480  -12.9600 O.2   140  ASP140     -0.2864
    172  CB       -16.5720   -2.7380  -12.0330 C.3   140  ASP140      0.1436
    173  CG       -17.4220   -2.3260  -10.8430 C.2   140  ASP140      0.3671
    174  OD1      -18.6360   -2.5890  -10.8640 O.co2 140  ASP140     -0.2456
    175  OD2      -16.8670   -1.7120   -9.9030 O.co2 140  ASP140     -0.2456
@<TRIPOS>BOND
     1    73    71   ar
     2    72    71   ar
     3    71    70    1
     4    49    50    2
     5    49    48    1
     6    70    69    1
     7    69    66    1
     8    47    48    1
     9    48    51    1
    10    66    65    1
    11    66    67    1
    12    65    56   am
    13    56    55    1
    14    56    57    2
    15    51    53    1
    16    51    52    1
    17    55    54    1
    18    55    58    1
    19    67    74   am
    20    67    68    2
    21    92    90    1
    22    91    90    1
    23    74    75    1
    24    77    76    2
    25    60    62   ar
    26    60    59   ar
    27    90    89    1
    28    62    64   ar
    29    58    59    1
    30    59    61   ar
    31    76    75    1
    32    76    85   am
    33    75    78    1
    34   158   157    2
    35    64    63   ar
    36    89    86    1
    37    78    79    1
    38   163   164    1
    39    85    86    1
    40    86    87    1
    41    61    63   ar
    42   101    99   ar
    43   101   102   ar
    44    99    98   ar
    45   164   167    1
    46   164   165    1
    47   157   156    1
    48    33    34    1
    49    36    35    2
    50   159   156    1
    51   159   160    1
    52    81    79   ar
    53    81    83   ar
    54    79    80   ar
    55   161   160    1
    56   102   100   ar
    57   165   168   am
    58   165   166    2
    59   156   155    1
    60    87    93   am
    61    87    88    2
    62    93    94    1
    63   168   169    1
    64    98   100   ar
    65    98    97    1
    66   160   162    1
    67    35    34    1
    68    37    34    1
    69    83    84   ar
    70   170   169    1
    71   170   171    2
    72    97    94    1
    73    80    82   ar
    74   150   149    2
    75   169   172    1
    76    94    95    1
    77   106   105    2
    78    84    82   ar
    79   149   148    1
    80    38    39    1
    81   103    95   am
    82   103   104    1
    83    41    40    2
    84    95    96    2
    85    42    39    1
    86    42    43    1
    87   172   173    1
    88   153   152    2
    89    44    43    1
    90    44    45    1
    91    39    40    1
    92   105   104    1
    93   105   112   am
    94   151   152    1
    95   151   148    1
    96   104   107    1
    97   152   154   am
    98   148   147    1
    99   107   108    1
   100    46    45    1
   101   174   173   ar
   102   173   175   ar
   103    31    30    1
   104   113   112    1
   105   113   114    1
   106   113   116    1
   107     8     6    1
   108   129   130    1
   109   132   131    2
   110   114   115    2
   111   147   140   am
   112   108   109    1
   113   111   109   am
   114   109   110    2
   115   116   117    1
   116    32    30    1
   117   141   140    2
   118   131   130    1
   119    30    27    1
   120   140   139    1
   121   130   133    1
   122     6     5    1
   123    27    28    1
   124    27    26    1
   125    28    29    2
   126   117   118   ar
   127   117   119   ar
   128   138   139    1
   129     7     5    1
   130   139   142    1
   131   134   133    1
   132   134   135    1
   133     5     2    1
   134   136   135    1
   135   136   137    1
   136   142   143    1
   137   122   121    1
   138   122   123    2
   139   120   121    1
   140     2     1    1
   141     2     3    1
   142   124   121    1
   143   124   125    1
   144     3     4    2
   145     3     9    1
   146   128   127    1
   147   125   126    1
   148   126   127    1
   149    23    24    1
   150    23    22    1
   151     9    10    2
   152   143   144    1
   153    24    25    2
   154    12    11    2
   155    22    15   am
   156    10    11    1
   157    11    13   am
   158    15    14    1
   159    15    16    2
   160    13    14    1
   161   144   146   am
   162   144   145    2
   163    14    17    1
   164    17    18    1
   165    18    19    1
   166    19    21   ar
   167    19    20   ar
