@<TRIPOS>MOLECULE
tmp/4fkxC00.pdb
 124 115 0 0 0
SMALL
GASTEIGER

@<TRIPOS>ATOM
      1  N          9.4550   43.7190   35.4280 N.3    11  LYS11      -0.1245
      2  CA        10.7330   44.4300   35.4460 C.3    11  LYS11       0.1561
      3  C         11.5070   44.1930   34.1570 C.2    11  LYS11       0.2260
      4  O         11.1200   43.3780   33.3200 O.2    11  LYS11      -0.2867
      5  CB        11.5540   43.9760   36.6540 C.3    11  LYS11       0.0271
      6  CG        10.9410   44.3420   37.9900 C.3    11  LYS11       0.0035
      7  CD        11.7470   43.5900   39.0390 C.3    11  LYS11       0.0206
      8  CE        11.6470   44.1170   40.4130 C.3    11  LYS11       0.1093
      9  NZ        12.8260   43.5460   41.1770 N.3    11  LYS11      -0.1314
     10  N         11.4660   52.8230   44.8850 N.3    51  TYR51      -0.1241
     11  CA        12.0790   52.0060   45.9350 C.3    51  TYR51       0.1605
     12  C         12.6820   52.8200   47.0950 C.2    51  TYR51       0.2264
     13  O         13.5820   52.3480   47.7840 O.2    51  TYR51      -0.2867
     14  CB        13.1670   51.1390   45.3290 C.3    51  TYR51       0.0534
     15  CG        12.6700   50.0340   44.4620 C.ar   51  TYR51      -0.0201
     16  CD1       11.8580   49.0370   44.9750 C.ar   51  TYR51      -0.0009
     17  CD2       13.0460   49.9480   43.1290 C.ar   51  TYR51      -0.0009
     18  CE1       11.4400   47.9800   44.1860 C.ar   51  TYR51       0.0417
     19  CE2       12.6290   48.8940   42.3280 C.ar   51  TYR51       0.0417
     20  CZ        11.8220   47.9120   42.8520 C.ar   51  TYR51       0.1957
     21  OH        11.4010   46.8530   42.0550 O.3    51  TYR51      -0.2866
     22  N         14.0190   51.6280   50.5180 N.3    54  LEU54      -0.1245
     23  CA        15.1600   50.7320   50.5000 C.3    54  LEU54       0.1561
     24  C         16.5050   51.4420   50.2490 C.2    54  LEU54       0.2260
     25  O         17.5180   50.7740   50.0150 O.2    54  LEU54      -0.2867
     26  CB        14.9210   49.6700   49.4190 C.3    54  LEU54       0.0270
     27  CG        13.6380   48.8570   49.5920 C.3    54  LEU54       0.0019
     28  CD1       13.4720   47.8810   48.4370 C.3    54  LEU54       0.0001
     29  CD2       13.6580   48.1180   50.9290 C.3    54  LEU54       0.0001
     30  N         21.8720   46.6370   48.1620 N.3    59  PHE59      -0.1241
     31  CA        21.4310   46.3530   46.7910 C.3    59  PHE59       0.1605
     32  C         20.7350   47.5360   46.0740 C.2    59  PHE59       0.2264
     33  O         20.3970   47.4240   44.8880 O.2    59  PHE59      -0.2867
     34  CB        20.4990   45.1260   46.7870 C.3    59  PHE59       0.0534
     35  CG        19.2590   45.2910   47.6270 C.ar   59  PHE59      -0.0203
     36  CD1       18.1730   46.0350   47.1630 C.ar   59  PHE59      -0.0042
     37  CD2       19.1690   44.7030   48.8910 C.ar   59  PHE59      -0.0042
     38  CE1       17.0310   46.1870   47.9380 C.ar   59  PHE59      -0.0003
     39  CE2       18.0300   44.8400   49.6630 C.ar   59  PHE59      -0.0003
     40  CZ        16.9530   45.5850   49.1910 C.ar   59  PHE59      -0.0000
     41  N         19.7440   47.9290   42.1310 N.3    63  LEU63      -0.1245
     42  CA        18.3030   47.8090   41.8830 C.3    63  LEU63       0.1561
     43  C         17.8070   48.9820   41.0280 C.2    63  LEU63       0.2260
     44  O         17.0520   48.7840   40.0470 O.2    63  LEU63      -0.2867
     45  CB        17.5400   47.7640   43.2070 C.3    63  LEU63       0.0270
     46  CG        16.0040   47.7750   43.1710 C.3    63  LEU63       0.0019
     47  CD1       15.4710   46.5710   42.3790 C.3    63  LEU63       0.0001
     48  CD2       15.4990   47.8440   44.6180 C.3    63  LEU63       0.0001
     49  N          0.8080   39.3900   45.1430 N.3    87  ARG87      -0.1245
     50  CA         2.0980   38.9880   45.6800 C.3    87  ARG87       0.1563
     51  C          2.1820   37.4720   45.7840 C.2    87  ARG87       0.2260
     52  O          3.2240   36.8900   45.5010 O.2    87  ARG87      -0.2867
     53  CB         2.3670   39.6830   46.9990 C.3    87  ARG87       0.0307
     54  CG         2.7800   41.1200   46.7560 C.3    87  ARG87       0.0489
     55  CD         2.9910   41.8360   48.0500 C.3    87  ARG87       0.2205
     56  NE         4.1920   41.4090   48.7680 N.pl3  87  ARG87      -0.0865
     57  CZ         5.4070   41.9460   48.6410 C.cat  87  ARG87       0.5346
     58  NH1        5.6860   42.9130   47.7590 N.pl3  87  ARG87       0.1354
     59  NH2        6.3850   41.4730   49.3890 N.pl3  87  ARG87       0.1354
     60  N          9.9420   36.9360   47.2570 N.3    93  THR93      -0.1218
     61  CA        10.8920   37.9290   46.7190 C.3    93  THR93       0.1862
     62  C         12.1370   37.3200   46.1160 C.2    93  THR93       0.2287
     63  O         12.5140   37.6530   44.9780 O.2    93  THR93      -0.2866
     64  CB        11.3570   38.8970   47.8130 C.3    93  THR93       0.1770
     65  OG1       10.2160   39.4320   48.4920 O.3    93  THR93      -0.2211
     66  CG2       12.2100   40.0290   47.1950 C.3    93  THR93       0.0375
     67  N          7.8600   33.7650   40.0160 N.3   104  ARG104     -0.1245
     68  CA         9.2690   33.6040   40.3600 C.3   104  ARG104      0.1563
     69  C          9.6690   32.1550   40.5020 C.2   104  ARG104      0.2260
     70  O         10.7770   31.7810   40.0830 O.2   104  ARG104     -0.2867
     71  CB         9.6340   34.4240   41.5880 C.3   104  ARG104      0.0307
     72  CG         9.5980   35.9080   41.3010 C.3   104  ARG104      0.0489
     73  CD         9.5350   36.6790   42.5820 C.3   104  ARG104      0.2205
     74  NE         9.5050   38.1160   42.3580 N.pl3 104  ARG104     -0.0865
     75  CZ         8.9620   38.9750   43.2080 C.cat 104  ARG104      0.5346
     76  NH1        8.3350   38.5430   44.3080 N.pl3 104  ARG104      0.1354
     77  NH2        9.0360   40.2580   42.9610 N.pl3 104  ARG104      0.1354
     78  N         17.6270   36.8890   43.1050 N.3   111  VAL111     -0.1231
     79  CA        16.8030   37.9410   43.7470 C.3   111  VAL111      0.1692
     80  C         16.8870   39.2890   43.0110 C.2   111  VAL111      0.2592
     81  O         15.8950   40.0480   42.9310 O.2   111  VAL111     -0.2718
     82  CB        17.1380   38.0630   45.2450 C.3   111  VAL111      0.0266
     83  CG1       18.5480   38.6160   45.4580 C.3   111  VAL111      0.0020
     84  CG2       16.1170   38.9740   45.9120 C.3   111  VAL111      0.0020
     85  N         18.0340   39.5590   42.3890 N.am  112  GLY112     -0.1957
     86  CA        18.1990   40.7830   41.5810 C.3   112  GLY112      0.1869
     87  C         17.6390   40.7200   40.1690 C.2   112  GLY112      0.2309
     88  O         17.5510   41.7400   39.4830 O.2   112  GLY112     -0.2863
     89  N         14.4380   39.0930   39.4390 N.3   114  ASN114     -0.1240
     90  CA        13.2370   38.3850   39.8920 C.3   114  ASN114      0.1653
     91  C         11.9560   38.8210   39.1640 C.2   114  ASN114      0.2266
     92  O         10.8410   38.6720   39.7110 O.2   114  ASN114     -0.2867
     93  CB        13.1000   38.4870   41.4290 C.3   114  ASN114      0.1155
     94  CG        12.7980   39.8950   41.9010 C.2   114  ASN114      0.2627
     95  OD1       12.8480   40.8600   41.1090 O.2   114  ASN114     -0.2716
     96  ND2       12.4090   40.0250   43.1620 N.am  114  ASN114     -0.0877
     97  N          9.6300   40.6870   38.3420 N.3   116  CYS116     -0.1221
     98  CA         8.4080   41.4370   38.6120 C.3   116  CYS116      0.1808
     99  C          8.4280   42.1590   39.9480 C.2   116  CYS116      0.2601
    100  O          9.3240   41.9380   40.7750 O.2   116  CYS116     -0.2717
    101  CB         7.2220   40.4890   38.4850 C.3   116  CYS116      0.0970
    102  SG         7.3310   39.1060   39.6700 S.3   116  CYS116     -0.0800
    103  N          7.4730   43.0790   40.1100 N.am  117  HIS117     -0.1961
    104  CA         7.2260   43.8040   41.3360 C.3   117  HIS117      0.1787
    105  C          5.7560   43.7880   41.6450 C.2   117  HIS117      0.2620
    106  O          4.9560   43.8850   40.7480 O.2   117  HIS117     -0.2715
    107  CB         7.6610   45.2580   41.1610 C.3   117  HIS117      0.0785
    108  CG         7.0610   46.1710   42.1540 C.ar  117  HIS117      0.0821
    109  ND1        7.6070   46.3700   43.3720 N.ar  117  HIS117     -0.2267
    110  CD2        5.8570   46.8860   42.1330 C.ar  117  HIS117      0.1154
    111  CE1        6.8120   47.2080   44.0730 C.ar  117  HIS117      0.1986
    112  NE2        5.7410   47.5040   43.3250 N.ar  117  HIS117     -0.2212
    113  N          5.3990   43.7220   42.9280 N.am  118  GLY118     -0.1954
    114  CA         4.0310   44.0080   43.3650 C.3   118  GLY118      0.1869
    115  C          3.9980   44.8600   44.6110 C.2   118  GLY118      0.2309
    116  O          4.8240   44.6940   45.4920 O.2   118  GLY118     -0.2863
    117  N          3.2100   46.1970   48.2670 N.3   120  ASP120     -0.1239
    118  CA         3.2320   45.3890   49.4770 C.3   120  ASP120      0.1674
    119  C          2.1240   45.6510   50.4800 C.2   120  ASP120      0.2266
    120  O          2.0160   44.9360   51.4760 O.2   120  ASP120     -0.2867
    121  CB         4.5940   45.4550   50.1560 C.3   120  ASP120      0.1410
    122  CG         4.9240   46.7960   50.7340 C.2   120  ASP120      0.3668
    123  OD1        4.0620   47.6780   50.9010 O.co2 120  ASP120     -0.2456
    124  OD2        6.1200   46.9800   51.0870 O.co2 120  ASP120     -0.2456
@<TRIPOS>BOND
     1     4     3    2
     2     3     2    1
     3     1     2    1
     4     2     5    1
     5     5     6    1
     6     6     7    1
     7    97    98    1
     8   101    98    1
     9   101   102    1
    10    98    99    1
    11     7     8    1
    12    91    92    2
    13    91    90    1
    14    89    90    1
    15    88    87    2
    16    90    93    1
    17    99   103   am
    18    99   100    2
    19    67    68    1
    20    44    43    2
    21    70    69    2
    22   103   104    1
    23    87    86    1
    24    68    69    1
    25    68    71    1
    26     8     9    1
    27   106   105    2
    28    43    42    1
    29    95    94    2
    30   107   104    1
    31   107   108    1
    32    72    71    1
    33    72    73    1
    34   104   105    1
    35    93    94    1
    36    86    85    1
    37   105   113   am
    38    42    41    1
    39    42    45    1
    40    94    96   am
    41    21    20    1
    42   110   108   ar
    43   110   112   ar
    44   108   109   ar
    45    19    20   ar
    46    19    17   ar
    47    74    73    1
    48    74    75    2
    49    47    46    1
    50    85    80   am
    51    20    18   ar
    52   113   114    1
    53    81    80    2
    54    77    75    1
    55    80    79    1
    56    78    79    1
    57    17    15   ar
    58    46    45    1
    59    46    48    1
    60    75    76    1
    61   112   111   ar
    62   114   115    1
    63   109   111   ar
    64    79    82    1
    65    18    16   ar
    66    15    16   ar
    67    15    14    1
    68   115   116    2
    69    10    11    1
    70    33    32    2
    71    63    62    2
    72    49    50    1
    73    82    83    1
    74    82    84    1
    75    14    11    1
    76    52    51    2
    77    50    51    1
    78    50    53    1
    79    11    12    1
    80    32    31    1
    81    62    61    1
    82    61    60    1
    83    61    64    1
    84    54    53    1
    85    54    55    1
    86    34    31    1
    87    34    35    1
    88    31    30    1
    89    12    13    2
    90    36    35   ar
    91    36    38   ar
    92    66    64    1
    93    35    37   ar
    94    58    57    1
    95    64    65    1
    96    38    40   ar
    97    55    56    1
    98   117   118    1
    99    28    27    1
   100    57    56    2
   101    57    59    1
   102    37    39   ar
   103    40    39   ar
   104    26    27    1
   105    26    23    1
   106   118   121    1
   107   118   119    1
   108    27    29    1
   109    25    24    2
   110   121   122    1
   111    24    23    1
   112   119   120    2
   113    23    22    1
   114   122   123   ar
   115   122   124   ar
