@<TRIPOS>MOLECULE
tmp/4fkyB00.pdb
 126 117 0 0 0
SMALL
GASTEIGER

@<TRIPOS>ATOM
      1  N         18.3460   23.5190   16.5820 N.3    11  LYS11      -0.1245
      2  CA        19.5500   24.2320   16.1510 C.3    11  LYS11       0.1561
      3  C         20.0460   25.1750   17.2400 C.2    11  LYS11       0.2260
      4  O         19.3610   25.3740   18.2350 O.2    11  LYS11      -0.2867
      5  CB        19.2700   24.9720   14.8370 C.3    11  LYS11       0.0271
      6  CG        19.0980   23.9970   13.6900 C.3    11  LYS11       0.0035
      7  CD        18.2130   24.5300   12.5870 C.3    11  LYS11       0.0206
      8  CE        18.9560   25.2010   11.4950 C.3    11  LYS11       0.1093
      9  NZ        18.0850   25.2160   10.2570 N.3    11  LYS11      -0.1314
     10  N         24.9310   19.7130    6.0020 N.3    51  TYR51      -0.1241
     11  CA        24.3420   20.5570    4.9750 C.3    51  TYR51       0.1605
     12  C         25.0790   20.5100    3.6180 C.2    51  TYR51       0.2264
     13  O         25.1090   21.4930    2.9040 O.2    51  TYR51      -0.2867
     14  CB        24.2770   21.9870    5.4890 C.3    51  TYR51       0.0534
     15  CG        23.2390   22.1980    6.5590 C.ar   51  TYR51      -0.0201
     16  CD1       21.8840   21.8920    6.3220 C.ar   51  TYR51      -0.0009
     17  CD2       23.5890   22.7210    7.8050 C.ar   51  TYR51      -0.0009
     18  CE1       20.9230   22.1000    7.2870 C.ar   51  TYR51       0.0417
     19  CE2       22.6300   22.9210    8.7920 C.ar   51  TYR51       0.0417
     20  CZ        21.2980   22.6160    8.5330 C.ar   51  TYR51       0.1957
     21  OH        20.3570   22.8320    9.5330 O.3    51  TYR51      -0.2866
     22  N         23.9090   21.8500    0.2150 N.3    54  LEU54      -0.1245
     23  CA        23.8030   23.3030    0.0290 C.3    54  LEU54       0.1561
     24  C         25.1730   23.9890   -0.1280 C.2    54  LEU54       0.2260
     25  O         25.2700   25.1990   -0.0640 O.2    54  LEU54      -0.2867
     26  CB        23.0550   23.9020    1.2220 C.3    54  LEU54       0.0270
     27  CG        21.6650   23.2920    1.5010 C.3    54  LEU54       0.0019
     28  CD1       21.0800   23.8700    2.7840 C.3    54  LEU54       0.0001
     29  CD2       20.7200   23.5330    0.3310 C.3    54  LEU54       0.0001
     30  N         24.3890   31.2830    1.0900 N.3    59  PHE59      -0.1241
     31  CA        24.2510   31.3420    2.5490 C.3    59  PHE59       0.1605
     32  C         24.9780   30.1960    3.2730 C.2    59  PHE59       0.2264
     33  O         24.8720   30.0620    4.4960 O.2    59  PHE59      -0.2867
     34  CB        22.7600   31.3470    2.9210 C.3    59  PHE59       0.0534
     35  CG        21.9610   30.1950    2.3270 C.ar   59  PHE59      -0.0203
     36  CD1       21.9120   28.9540    2.9620 C.ar   59  PHE59      -0.0042
     37  CD2       21.2340   30.3630    1.1440 C.ar   59  PHE59      -0.0042
     38  CE1       21.1660   27.8940    2.4380 C.ar   59  PHE59      -0.0003
     39  CE2       20.5050   29.3170    0.6040 C.ar   59  PHE59      -0.0003
     40  CZ        20.4570   28.0760    1.2550 C.ar   59  PHE59      -0.0000
     41  N         25.5640   29.5680    7.3730 N.3    63  LEU63      -0.1245
     42  CA        24.8040   28.4630    7.9190 C.3    63  LEU63       0.1561
     43  C         25.7230   27.5230    8.7260 C.2    63  LEU63       0.2260
     44  O         25.3930   27.0930    9.8490 O.2    63  LEU63      -0.2867
     45  CB        24.1060   27.6850    6.7780 C.3    63  LEU63       0.0270
     46  CG        23.4690   26.3080    7.0890 C.3    63  LEU63       0.0019
     47  CD1       22.3150   26.4230    8.0960 C.3    63  LEU63       0.0001
     48  CD2       22.9850   25.6090    5.8160 C.3    63  LEU63       0.0001
     49  N          8.2840   16.9490    9.6430 N.3    87  ARG87      -0.1245
     50  CA         8.3540   18.1940    8.8610 C.3    87  ARG87       0.1563
     51  C          7.0710   19.0070    8.9430 C.2    87  ARG87       0.2260
     52  O          7.1080   20.2480    9.0330 O.2    87  ARG87      -0.2867
     53  CB         8.7790   17.9100    7.4300 C.3    87  ARG87       0.0307
     54  CG        10.2660   17.5720    7.4800 C.3    87  ARG87       0.0489
     55  CD        10.9510   17.3830    6.1870 C.3    87  ARG87       0.2205
     56  NE        10.9870   18.5310    5.2960 N.pl3  87  ARG87      -0.0865
     57  CZ        12.0320   19.3270    5.0740 C.cat  87  ARG87       0.5346
     58  NH1       13.1720   19.2300    5.7710 N.pl3  87  ARG87       0.1354
     59  NH2       11.8970   20.2910    4.1660 N.pl3  87  ARG87       0.1354
     60  N         10.1770   25.8940    5.7930 N.3    93  THR93      -0.1218
     61  CA        11.5730   26.2940    5.9670 C.3    93  THR93       0.1862
     62  C         11.7560   27.7630    6.3430 C.2    93  THR93       0.2287
     63  O         12.5300   28.0930    7.2440 O.2    93  THR93      -0.2866
     64  CB        12.3490   26.0500    4.6800 C.3    93  THR93       0.1770
     65  OG1       12.2130   24.6620    4.3170 O.3    93  THR93      -0.2211
     66  CG2       13.7990   26.4140    4.8830 C.3    93  THR93       0.0375
     67  N          8.1560   26.5100   13.6790 N.3   104  ARG104     -0.1245
     68  CA         8.6050   27.7350   13.0750 C.3   104  ARG104      0.1563
     69  C          7.5150   28.7880   13.0230 C.2   104  ARG104      0.2260
     70  O          7.8090   29.9780   13.1120 O.2   104  ARG104     -0.2867
     71  CB         9.1780   27.4820   11.6800 C.3   104  ARG104      0.0307
     72  CG        10.4260   26.6310   11.7860 C.3   104  ARG104      0.0489
     73  CD        10.8140   26.1530   10.4390 C.3   104  ARG104      0.2205
     74  NE        12.0580   25.3890   10.4840 N.pl3 104  ARG104     -0.0865
     75  CZ        12.3460   24.4190    9.6290 C.cat 104  ARG104      0.5346
     76  NH1       11.4910   24.1040    8.6680 N.pl3 104  ARG104      0.1354
     77  NH2       13.5160   23.7930    9.6780 N.pl3 104  ARG104      0.1354
     78  N         13.0200   34.3040   11.0010 N.3   110  ASP110     -0.1225
     79  CA        14.0320   34.4750    9.9600 C.3   110  ASP110      0.1805
     80  C         14.4680   33.0960    9.4430 C.2   110  ASP110      0.2598
     81  O         14.6660   32.1600   10.2180 O.2   110  ASP110     -0.2718
     82  CB        15.2090   35.2490   10.5690 C.3   110  ASP110      0.1424
     83  CG        16.3100   35.5630    9.5800 C.2   110  ASP110      0.3668
     84  OD1       16.4180   34.8850    8.5340 O.co2 110  ASP110     -0.2456
     85  OD2       17.1270   36.4700    9.8530 O.co2 110  ASP110     -0.2456
     86  N         14.6120   32.9810    8.1270 N.am  111  VAL111     -0.1966
     87  CA        14.9390   31.6760    7.5140 C.3   111  VAL111      0.1727
     88  C         16.2720   31.1340    8.0250 C.2   111  VAL111      0.2616
     89  O         16.4190   29.9350    8.2650 O.2   111  VAL111     -0.2715
     90  CB        14.9160   31.7380    5.9630 C.3   111  VAL111      0.0290
     91  CG1       15.9800   32.6910    5.4210 C.3   111  VAL111      0.0023
     92  CG2       15.0990   30.3340    5.3950 C.3   111  VAL111      0.0023
     93  N         17.2300   32.0220    8.2530 N.am  112  GLY112     -0.1955
     94  CA        18.5280   31.6220    8.8280 C.3   112  GLY112      0.1869
     95  C         18.5640   31.3760   10.3410 C.2   112  GLY112      0.2309
     96  O         19.6040   30.9490   10.8770 O.2   112  GLY112     -0.2863
     97  N         15.8920   29.4620   12.1810 N.3   114  ASN114     -0.1240
     98  CA        14.5780   28.8200   12.1170 C.3   114  ASN114      0.1653
     99  C         14.4890   27.6210   13.0440 C.2   114  ASN114      0.2266
    100  O         13.7340   26.6730   12.8010 O.2   114  ASN114     -0.2867
    101  CB        14.1940   28.5100   10.6540 C.3   114  ASN114      0.1155
    102  CG        15.0630   27.4320   10.0310 C.2   114  ASN114      0.2627
    103  OD1       15.9840   26.9610   10.6640 O.2   114  ASN114     -0.2716
    104  ND2       14.7560   27.0350    8.7810 N.am  114  ASN114     -0.0877
    105  N         15.7530   21.5110   12.6750 N.3   117  HIS117     -0.1226
    106  CA        15.9680   20.8040   11.4290 C.3   117  HIS117      0.1752
    107  C         15.2070   19.4980   11.4720 C.2   117  HIS117      0.2596
    108  O         15.0840   18.8980   12.5240 O.2   117  HIS117     -0.2718
    109  CB        17.4590   20.4820   11.2460 C.3   117  HIS117      0.0759
    110  CG        17.7140   19.3400   10.3060 C.ar  117  HIS117      0.0818
    111  ND1       17.9320   19.5120    8.9780 N.ar  117  HIS117     -0.2268
    112  CD2       17.7540   17.9710   10.5350 C.ar  117  HIS117      0.1154
    113  CE1       18.1100   18.3120    8.4070 C.ar  117  HIS117      0.1986
    114  NE2       17.9840   17.3730    9.3480 N.ar  117  HIS117     -0.2212
    115  N         14.7320   19.0280   10.3240 N.am  118  GLY118     -0.1957
    116  CA        14.2540   17.6440   10.1940 C.3   118  GLY118      0.1869
    117  C         14.6350   17.0430    8.8530 C.2   118  GLY118      0.2309
    118  O         14.6880   17.7480    7.8410 O.2   118  GLY118     -0.2863
    119  N         14.5380   15.2790    5.3090 N.3   120  ASP120     -0.1239
    120  CA        13.5780   15.5730    4.2610 C.3   120  ASP120      0.1674
    121  C         13.0390   14.3330    3.5400 C.2   120  ASP120      0.2266
    122  O         12.1340   14.4630    2.7560 O.2   120  ASP120     -0.2867
    123  CB        14.1310   16.6120    3.2700 C.3   120  ASP120      0.1410
    124  CG        15.2820   16.1110    2.4800 C.2   120  ASP120      0.3668
    125  OD1       15.5190   14.8800    2.3700 O.co2 120  ASP120     -0.2456
    126  OD2       15.9920   16.9590    1.9200 O.co2 120  ASP120     -0.2456
@<TRIPOS>BOND
     1    24    25    2
     2    24    23    1
     3    23    22    1
     4    23    26    1
     5    29    27    1
     6    39    37   ar
     7    39    40   ar
     8    30    31    1
     9    37    35   ar
    10    26    27    1
    11    40    38   ar
    12    27    28    1
    13   126   124   ar
    14    35    34    1
    15    35    36   ar
    16   125   124   ar
    17    38    36   ar
    18   124   123    1
    19    31    34    1
    20    31    32    1
    21   122   121    2
    22    13    12    2
    23   123   120    1
    24    32    33    2
    25   121   120    1
    26    12    11    1
    27    59    57    1
    28   120   119    1
    29    65    64    1
    30    64    66    1
    31    64    61    1
    32    11    14    1
    33    11    10    1
    34    57    56    2
    35    57    58    1
    36    56    55    1
    37    92    90    1
    38    91    90    1
    39    14    15    1
    40    60    61    1
    41    48    46    1
    42    90    87    1
    43    61    62    1
    44    55    54    1
    45    16    15   ar
    46    16    18   ar
    47    62    63    2
    48    15    17   ar
    49    45    46    1
    50    45    42    1
    51    46    47    1
    52    18    20   ar
    53    41    42    1
    54    53    54    1
    55    53    50    1
    56    87    88    1
    57    87    86    1
    58    17    19   ar
    59   118   117    2
    60    42    43    1
    61    88    93   am
    62    88    89    2
    63    86    80   am
    64    93    94    1
    65   113   111   ar
    66   113   114   ar
    67    20    19   ar
    68    20    21    1
    69    84    83   ar
    70    76    75    1
    71    43    44    2
    72   104   102   am
    73    94    95    1
    74   117   116    1
    75    50    51    1
    76    50    49    1
    77    51    52    2
    78   111   110   ar
    79   114   112   ar
    80    80    79    1
    81    80    81    2
    82    83    85   ar
    83    83    82    1
    84    75    77    1
    85    75    74    2
    86    79    82    1
    87    79    78    1
    88   102   101    1
    89   102   103    2
    90   116   115    1
    91     9     8    1
    92   110   112   ar
    93   110   109    1
    94   115   107   am
    95    95    96    2
    96    73    74    1
    97    73    72    1
    98   101    98    1
    99   109   106    1
   100   106   107    1
   101   106   105    1
   102   107   108    2
   103     8     7    1
   104    71    72    1
   105    71    68    1
   106    98    97    1
   107    98    99    1
   108     7     6    1
   109   100    99    2
   110    69    68    1
   111    69    70    2
   112    68    67    1
   113     6     5    1
   114     5     2    1
   115     2     1    1
   116     2     3    1
   117     3     4    2
