@<TRIPOS>MOLECULE
tmp/4fkzA01.pdb
 202 194 0 0 0
SMALL
GASTEIGER

@<TRIPOS>ATOM
      1  N         15.7810   47.3690   11.6680 N.3    12  ARG12      -0.1231
      2  CA        14.9220   48.3460   10.9880 C.3    12  ARG12       0.1679
      3  C         14.0920   47.7690    9.8330 C.2    12  ARG12       0.2434
      4  O         12.8720   47.9450    9.8260 O.2    12  ARG12      -0.2733
      5  CB        15.7170   49.5820   10.5180 C.3    12  ARG12       0.0321
      6  CG        14.9280   50.4180    9.5090 C.3    12  ARG12       0.0489
      7  CD        15.6520   51.6940    9.1160 C.3    12  ARG12       0.2205
      8  NE        16.8030   51.4180    8.2660 N.pl3  12  ARG12      -0.0865
      9  CZ        17.7160   52.3280    7.9480 C.cat  12  ARG12       0.5346
     10  NH1       17.6170   53.5710    8.4220 N.pl3  12  ARG12       0.1354
     11  NH2       18.7300   51.9910    7.1630 N.pl3  12  ARG12       0.1354
     12  N         14.7330   47.1080    8.8410 N.am   13  PRO13      -0.2729
     13  CA        13.9160   46.6670    7.6910 C.3    13  PRO13       0.1401
     14  C         12.8790   45.6190    8.0570 C.2    13  PRO13       0.2269
     15  O         11.7520   45.6530    7.5250 O.2    13  PRO13      -0.2865
     16  CB        14.9490   46.0730    6.7270 C.3    13  PRO13       0.0296
     17  CG        16.1480   45.7890    7.5630 C.3    13  PRO13       0.0237
     18  CD        16.1690   46.8900    8.5850 C.3    13  PRO13       0.0939
     19  N          9.9230   47.4150    9.8120 N.3    16  ILE16      -0.1231
     20  CA         9.0470   48.1310    8.8690 C.3    16  ILE16       0.1692
     21  C          8.1280   47.1610    8.1420 C.2    16  ILE16       0.2591
     22  O          6.9260   47.4260    8.0050 O.2    16  ILE16      -0.2718
     23  CB         9.8680   49.0010    7.8890 C.3    16  ILE16       0.0266
     24  CG1       10.4960   50.1530    8.6790 C.3    16  ILE16       0.0019
     25  CG2        9.0230   49.5130    6.7230 C.3    16  ILE16       0.0020
     26  CD1       11.5850   50.9050    7.9320 C.3    16  ILE16       0.0001
     27  N          8.6860   46.0410    7.6850 N.am   17  LYS17      -0.1980
     28  CA         7.9130   45.0640    6.9330 C.3    17  LYS17       0.1596
     29  C          7.0320   44.1900    7.8280 C.2    17  LYS17       0.2287
     30  O          6.0110   43.6810    7.3710 O.2    17  LYS17      -0.2864
     31  CB         8.8320   44.2040    6.0490 C.3    17  LYS17       0.0298
     32  CG         9.2650   44.9130    4.7620 C.3    17  LYS17       0.0038
     33  CD        10.4200   44.2070    4.0760 C.3    17  LYS17       0.0206
     34  CE        10.7030   44.8050    2.6970 C.3    17  LYS17       0.1093
     35  NZ        11.9130   44.1710    2.0820 N.3    17  LYS17      -0.1314
     36  N         19.2840   45.4410   16.1750 N.3    41  HIS41      -0.1241
     37  CA        19.3800   46.9000   16.1520 C.3    41  HIS41       0.1621
     38  C         18.7280   47.4030   17.4110 C.2    41  HIS41       0.2264
     39  O         17.7240   46.8530   17.8480 O.2    41  HIS41      -0.2867
     40  CB        18.5920   47.4480   14.9750 C.3    41  HIS41       0.0745
     41  CG        19.2780   47.2800   13.6480 C.ar   41  HIS41       0.0817
     42  ND1       18.7670   47.7790   12.5120 N.ar   41  HIS41      -0.2268
     43  CD2       20.4900   46.6920   13.3090 C.ar   41  HIS41       0.1154
     44  CE1       19.5990   47.5160   11.4930 C.ar   41  HIS41       0.1986
     45  NE2       20.6530   46.8430   11.9810 N.ar   41  HIS41      -0.2212
     46  N         17.7580   51.9960   15.8050 N.3    44  MET44      -0.1245
     47  CA        17.0820   51.9440   14.5120 C.3    44  MET44       0.1570
     48  C         15.8290   51.0690   14.5530 C.2    44  MET44       0.2261
     49  O         14.8940   51.2970   13.7880 O.2    44  MET44      -0.2867
     50  CB        18.0510   51.4890   13.4140 C.3    44  MET44       0.0387
     51  CG        19.0820   52.5520   13.0660 C.3    44  MET44       0.0595
     52  SD        20.4290   51.9030   12.0490 S.3    44  MET44      -0.1393
     53  CE        19.5740   51.4470   10.5530 C.3    44  MET44       0.0692
     54  N         15.8150   38.0190    5.7380 N.3    97  ASP97      -0.1225
     55  CA        17.1540   37.4490    5.5310 C.3    97  ASP97       0.1805
     56  C         18.2340   37.9620    6.4770 C.2    97  ASP97       0.2598
     57  O         19.4230   37.9350    6.1330 O.2    97  ASP97      -0.2718
     58  CB        17.5950   37.6760    4.0690 C.3    97  ASP97       0.1424
     59  CG        17.5100   39.1320    3.6430 C.2    97  ASP97       0.3668
     60  OD1       17.5980   40.0510    4.5050 O.co2  97  ASP97      -0.2456
     61  OD2       17.3730   39.3620    2.4110 O.co2  97  ASP97      -0.2456
     62  N         17.8420   38.4190    7.6650 N.am   98  THR98      -0.1953
     63  CA        18.8340   38.8780    8.6410 C.3    98  THR98       0.1897
     64  C         19.3210   37.6880    9.4680 C.2    98  THR98       0.2313
     65  O         18.7290   36.6090    9.4340 O.2    98  THR98      -0.2863
     66  CB        18.3090   39.9520    9.6300 C.3    98  THR98       0.1794
     67  OG1       17.3750   39.3550   10.5350 O.3    98  THR98      -0.2208
     68  CG2       17.6280   41.1030    8.9030 C.3    98  THR98       0.0378
     69  N          5.9920   45.3800    2.5200 N.3   175  ALA175     -0.1245
     70  CA         6.5490   46.7280    2.3830 C.3   175  ALA175      0.1562
     71  C          5.5010   47.6690    1.7800 C.2   175  ALA175      0.2260
     72  O          5.3970   48.8300    2.1740 O.2   175  ALA175     -0.2867
     73  CB         7.7820   46.7100    1.5030 C.3   175  ALA175      0.0290
     74  N         21.3830   55.8330    0.2000 N.3   204  THR204     -0.1218
     75  CA        21.6810   55.0150    1.3960 C.3   204  THR204      0.1862
     76  C         22.6460   53.9240    0.9710 C.2   204  THR204      0.2287
     77  O         22.5770   53.4370   -0.1600 O.2   204  THR204     -0.2866
     78  CB        20.4360   54.3740    2.0670 C.3   204  THR204      0.1770
     79  OG1       19.9320   53.3080    1.2630 O.3   204  THR204     -0.2211
     80  CG2       19.3150   55.4050    2.3380 C.3   204  THR204      0.0375
     81  N         24.8050   50.4960    2.8860 N.3   206  HIS206     -0.1226
     82  CA        25.2140   49.7170    4.0850 C.3   206  HIS206      0.1752
     83  C         25.4980   48.2420    3.9170 C.2   206  HIS206      0.2595
     84  O         25.7320   47.5630    4.9310 O.2   206  HIS206     -0.2718
     85  CB        24.1810   49.8880    5.2160 C.3   206  HIS206      0.0759
     86  CG        22.8720   49.1900    4.9410 C.ar  206  HIS206      0.0818
     87  ND1       22.5970   47.9340    5.3760 N.ar  206  HIS206     -0.2268
     88  CD2       21.7610   49.6140    4.2280 C.ar  206  HIS206      0.1154
     89  CE1       21.3630   47.5780    4.9470 C.ar  206  HIS206      0.1986
     90  NE2       20.8540   48.6120    4.2460 N.ar  206  HIS206     -0.2212
     91  N         25.4660   47.7020    2.6970 N.am  207  ARG207     -0.1980
     92  CA        25.6460   46.2340    2.5050 C.3   207  ARG207      0.1597
     93  C         26.9920   45.7870    3.0520 C.2   207  ARG207      0.2287
     94  O         28.0020   46.4580    2.8490 O.2   207  ARG207     -0.2864
     95  CB        25.5620   45.8120    1.0270 C.3   207  ARG207      0.0334
     96  CG        24.1890   45.9480    0.3850 C.3   207  ARG207      0.0492
     97  CD        23.3910   44.6440    0.3670 C.3   207  ARG207      0.2205
     98  NE        23.0410   44.1750    1.7150 N.pl3 207  ARG207     -0.0865
     99  CZ        22.0480   44.6700    2.4550 C.cat 207  ARG207      0.5346
    100  NH1       21.2910   45.6690    1.9990 N.pl3 207  ARG207      0.1354
    101  NH2       21.8090   44.1790    3.6660 N.pl3 207  ARG207      0.1354
    102  N         20.7890   59.7910    4.7440 N.3   237  PRO237     -0.2116
    103  CA        20.5430   59.4000    6.1310 C.3   237  PRO237      0.1372
    104  C         21.4540   58.2160    6.4270 C.2   237  PRO237      0.2244
    105  O         21.2460   57.1120    5.9010 O.2   237  PRO237     -0.2868
    106  CB        19.0650   58.9730    6.1350 C.3   237  PRO237      0.0268
    107  CG        18.5030   59.4590    4.8440 C.3   237  PRO237      0.0207
    108  CD        19.6530   59.4520    3.8740 C.3   237  PRO237      0.0892
    109  N         23.4610   55.1920    7.9870 N.3   239  HIS239     -0.1241
    110  CA        23.3520   54.0240    8.8780 C.3   239  HIS239      0.1621
    111  C         24.2150   54.1980   10.1110 C.2   239  HIS239      0.2264
    112  O         25.2870   54.8160   10.0570 O.2   239  HIS239     -0.2867
    113  CB        23.7900   52.7950    8.0850 C.3   239  HIS239      0.0745
    114  CG        23.3740   51.4770    8.6930 C.ar  239  HIS239      0.0817
    115  ND1       24.0030   50.9390    9.7570 N.ar  239  HIS239     -0.2268
    116  CD2       22.3970   50.5690    8.3150 C.ar  239  HIS239      0.1154
    117  CE1       23.4360   49.7640   10.0660 C.ar  239  HIS239      0.1986
    118  NE2       22.4580   49.5310    9.1800 N.ar  239  HIS239     -0.2212
    119  N         19.4630   58.6000   10.5740 N.3   263  PRO263     -0.2102
    120  CA        18.4290   57.8260    9.8870 C.3   263  PRO263      0.1504
    121  C         17.0450   58.4500   10.0510 C.2   263  PRO263      0.2575
    122  O         16.6830   58.9020   11.1540 O.2   263  PRO263     -0.2718
    123  CB        18.4930   56.4740   10.5890 C.3   263  PRO263      0.0282
    124  CG        19.9320   56.3350   10.9300 C.3   263  PRO263      0.0208
    125  CD        20.3510   57.7270   11.3670 C.3   263  PRO263      0.0893
    126  N         16.3010   58.4990    8.9550 N.am  264  LEU264     -0.1980
    127  CA        14.9880   59.1170    8.9520 C.3   264  LEU264      0.1596
    128  C         13.9460   58.1090    9.3950 C.2   264  LEU264      0.2287
    129  O         14.0410   56.9350    9.0460 O.2   264  LEU264     -0.2864
    130  CB        14.6370   59.5980    7.5390 C.3   264  LEU264      0.0297
    131  CG        15.3580   60.8430    7.0100 C.3   264  LEU264      0.0022
    132  CD1       15.0110   61.0660    5.5510 C.3   264  LEU264      0.0001
    133  CD2       14.9910   62.0620    7.8400 C.3   264  LEU264      0.0001
    134  N         10.4040   56.2500    8.9760 N.3   266  VAL266     -0.1245
    135  CA         9.9510   55.7140    7.6960 C.3   266  VAL266      0.1561
    136  C          8.9870   56.6590    6.9520 C.2   266  VAL266      0.2260
    137  O          9.0760   56.7660    5.7340 O.2   266  VAL266     -0.2867
    138  CB         9.4320   54.2490    7.7890 C.3   266  VAL266      0.0252
    139  CG1        8.1180   54.1670    8.5560 C.3   266  VAL266      0.0019
    140  CG2        9.3080   53.6300    6.3960 C.3   266  VAL266      0.0019
    141  N         11.3350   59.1660    5.3980 N.3   269  PHE269     -0.1227
    142  CA        12.0900   58.5590    4.3150 C.3   269  PHE269      0.1736
    143  C         11.2640   58.3400    3.0450 C.2   269  PHE269      0.2595
    144  O         11.7170   58.6570    1.9570 O.2   269  PHE269     -0.2718
    145  CB        12.7880   57.2620    4.7520 C.3   269  PHE269      0.0547
    146  CG        13.7560   56.7610    3.7390 C.ar  269  PHE269     -0.0202
    147  CD1       15.0430   57.2790    3.6830 C.ar  269  PHE269     -0.0042
    148  CD2       13.3690   55.8180    2.8020 C.ar  269  PHE269     -0.0042
    149  CE1       15.9410   56.8350    2.7230 C.ar  269  PHE269     -0.0003
    150  CE2       14.2560   55.3750    1.8340 C.ar  269  PHE269     -0.0003
    151  CZ        15.5450   55.8790    1.7960 C.ar  269  PHE269     -0.0000
    152  N         10.0590   57.7730    3.1820 N.am  270  HIS270     -0.1975
    153  CA         9.1890   57.5700    2.0280 C.3   270  HIS270      0.1656
    154  C          8.8820   58.8520    1.3050 C.2   270  HIS270      0.2291
    155  O          8.8960   58.8960    0.0880 O.2   270  HIS270     -0.2864
    156  CB         7.8940   56.8660    2.4300 C.3   270  HIS270      0.0771
    157  CG         8.0670   55.4000    2.7300 C.ar  270  HIS270      0.0820
    158  ND1        7.1020   54.6640    3.3230 N.ar  270  HIS270     -0.2267
    159  CD2        9.1430   54.5330    2.5080 C.ar  270  HIS270      0.1154
    160  CE1        7.5250   53.3910    3.4530 C.ar  270  HIS270      0.1986
    161  NE2        8.7750   53.3110    2.9570 N.ar  270  HIS270     -0.2212
    162  N         20.1900   49.2480   -0.5840 N.3   283  SER283     -0.1202
    163  CA        19.1100   48.7220    0.2700 C.3   283  SER283      0.2020
    164  C         18.2330   47.7120   -0.4680 C.2   283  SER283      0.2619
    165  O         17.9410   47.8930   -1.6510 O.2   283  SER283     -0.2717
    166  CB        18.2190   49.8780    0.7480 C.3   283  SER283      0.2103
    167  OG        17.0240   49.3910    1.3540 O.3   283  SER283     -0.2182
    168  N         17.7870   46.6710    0.2360 N.am  284  GLY284     -0.1942
    169  CA        16.7870   45.7440   -0.3120 C.3   284  GLY284      0.2014
    170  C         15.3960   46.3570   -0.3630 C.2   284  GLY284      0.2639
    171  O         14.7350   46.3560   -1.4130 O.2   284  GLY284     -0.2714
    172  N         14.9530   46.8940    0.7700 N.am  285  GLY285     -0.1939
    173  CA        13.6110   47.4630    0.8800 C.3   285  GLY285      0.2014
    174  C         13.3640   48.6400   -0.0510 C.2   285  GLY285      0.2638
    175  O         12.2620   48.7880   -0.5980 O.2   285  GLY285     -0.2714
    176  N         14.3770   49.4870   -0.2380 N.am  286  VAL286     -0.1977
    177  CA        14.1960   50.6430   -1.1340 C.3   286  VAL286      0.1596
    178  C         13.9610   50.1930   -2.5820 C.2   286  VAL286      0.2287
    179  O         13.2060   50.8350   -3.3190 O.2   286  VAL286     -0.2864
    180  CB        15.3590   51.6530   -1.0120 C.3   286  VAL286      0.0276
    181  CG1       15.1480   52.8420   -1.9470 C.3   286  VAL286      0.0022
    182  CG2       15.4780   52.1270    0.4380 C.3   286  VAL286      0.0022
    183  N         10.2710   49.5180   -2.9440 N.3   289  GLU289     -0.1245
    184  CA         9.4320   50.7110   -2.7810 C.3   289  GLU289      0.1567
    185  C          9.4320   51.5980   -4.0210 C.2   289  GLU289      0.2260
    186  O          8.4010   52.1970   -4.3680 O.2   289  GLU289     -0.2867
    187  CB         9.8520   51.5030   -1.5420 C.3   289  GLU289      0.0388
    188  CG         9.6090   50.7310   -0.2530 C.3   289  GLU289      0.1160
    189  CD        10.3620   51.2520    0.9650 C.2   289  GLU289      0.3649
    190  OE1       11.3190   52.0380    0.8330 O.co2 289  GLU289     -0.2457
    191  OE2        9.9910   50.8540    2.0960 O.co2 289  GLU289     -0.2457
    192  N         15.8220   41.4090   -6.6620 N.3   306  ARG306     -0.1245
    193  CA        14.5820   42.0930   -7.0320 C.3   306  ARG306      0.1563
    194  C         14.4730   42.2480   -8.5580 C.2   306  ARG306      0.2260
    195  O         14.4650   43.3720   -9.0800 O.2   306  ARG306     -0.2867
    196  CB        14.5110   43.4600   -6.3440 C.3   306  ARG306      0.0307
    197  CG        13.9190   43.3950   -4.9400 C.3   306  ARG306      0.0489
    198  CD        14.9580   43.0330   -3.8830 C.3   306  ARG306      0.2205
    199  NE        14.3360   42.9560   -2.5660 N.pl3 306  ARG306     -0.0865
    200  CZ        14.9910   42.7110   -1.4340 C.cat 306  ARG306      0.5346
    201  NH1       16.2970   42.4960   -1.4360 N.pl3 306  ARG306      0.1354
    202  NH2       14.3240   42.6780   -0.2860 N.pl3 306  ARG306      0.1354
@<TRIPOS>BOND
     1   195   194    2
     2   194   193    1
     3   193   192    1
     4   193   196    1
     5   196   197    1
     6   197   198    1
     7   186   185    2
     8   185   184    1
     9   198   199    1
    10   179   178    2
    11   183   184    1
    12   184   187    1
    13   178   177    1
    14   199   200    2
    15   181   180    1
    16   165   164    2
    17   187   188    1
    18   201   200    1
    19   200   202    1
    20   171   170    2
    21   177   180    1
    22   177   176    1
    23   180   182    1
    24   175   174    2
    25   162   163    1
    26   164   168   am
    27   164   163    1
    28   170   169    1
    29   170   172   am
    30   169   168    1
    31   188   189    1
    32   176   174   am
    33    77    76    2
    34   174   173    1
    35   155   154    2
    36    74    75    1
    37   163   166    1
    38    97    96    1
    39    97    98    1
    40    96    95    1
    41   166   167    1
    42   172   173    1
    43   190   189   ar
    44   189   191   ar
    45    76    75    1
    46    95    92    1
    47    79    78    1
    48   154   153    1
    49    75    78    1
    50    73    70    1
    51    98    99    2
    52    71    72    2
    53    71    70    1
    54   151   150   ar
    55   151   149   ar
    56   150   148   ar
    57   144   143    2
    58   100    99    1
    59   153   156    1
    60   153   152    1
    61    78    80    1
    62    35    34    1
    63    70    69    1
    64    61    59   ar
    65   156   157    1
    66    99   101    1
    67    92    91    1
    68    92    93    1
    69   159   157   ar
    70   159   161   ar
    71    34    33    1
    72    91    83   am
    73   149   147   ar
    74   157   158   ar
    75   148   146   ar
    76    94    93    2
    77    81    82    1
    78   161   160   ar
    79   143   152   am
    80   143   142    1
    81   158   160   ar
    82    59    58    1
    83    59    60   ar
    84   147   146   ar
    85   146   145    1
    86   108   102    1
    87   108   107    1
    88    83    82    1
    89    83    84    2
    90    58    55    1
    91    33    32    1
    92    82    85    1
    93    88    90   ar
    94    88    86   ar
    95    90    89   ar
    96   142   145    1
    97   142   141    1
    98   102   103    1
    99    32    31    1
   100   107   106    1
   101    86    85    1
   102    86    87   ar
   103    89    87   ar
   104    55    54    1
   105    55    56    1
   106   132   131    1
   107   137   136    2
   108   105   104    2
   109    31    28    1
   110   103   106    1
   111   103   104    1
   112    57    56    2
   113   140   138    1
   114    56    62   am
   115    25    23    1
   116    16    17    1
   117    16    13    1
   118    28    27    1
   119    28    29    1
   120   136   135    1
   121   131   130    1
   122   131   133    1
   123    11     9    1
   124    30    29    2
   125    15    14    2
   126   130   127    1
   127    17    18    1
   128    62    63    1
   129    27    21   am
   130    13    14    1
   131    13    12    1
   132   135   138    1
   133   135   134    1
   134   138   139    1
   135    23    24    1
   136    23    20    1
   137    26    24    1
   138     9     8    2
   139     9    10    1
   140   109   110    1
   141    22    21    2
   142   113   114    1
   143   113   110    1
   144    21    20    1
   145     8     7    1
   146   116   114   ar
   147   116   118   ar
   148    18    12    1
   149    63    64    1
   150    63    66    1
   151   114   115   ar
   152    12     3   am
   153    20    19    1
   154   110   111    1
   155    68    66    1
   156   127   126    1
   157   127   128    1
   158   126   121   am
   159   129   128    2
   160     7     6    1
   161   118   117   ar
   162    65    64    2
   163     6     5    1
   164    66    67    1
   165   115   117   ar
   166     4     3    2
   167     3     2    1
   168   120   121    1
   169   120   119    1
   170   120   123    1
   171   121   122    2
   172   112   111    2
   173     5     2    1
   174    53    52    1
   175   119   125    1
   176   123   124    1
   177   124   125    1
   178     2     1    1
   179    44    45   ar
   180    44    42   ar
   181    45    43   ar
   182    52    51    1
   183    42    41   ar
   184    51    50    1
   185    43    41   ar
   186    50    47    1
   187    41    40    1
   188    49    48    2
   189    47    48    1
   190    47    46    1
   191    40    37    1
   192    37    36    1
   193    37    38    1
   194    38    39    2
