@<TRIPOS>MOLECULE
tmp/4fkzA00.pdb
 253 248 0 0 0
SMALL
GASTEIGER

@<TRIPOS>ATOM
      1  N         15.6400   44.1390   13.4000 N.3    11  THR11      -0.1203
      2  CA        16.3060   45.2360   12.6990 C.3    11  THR11       0.1994
      3  C         15.2970   46.2060   12.0890 C.2    11  THR11       0.2618
      4  O         14.1120   45.8880   11.9660 O.2    11  THR11      -0.2717
      5  CB        17.1810   44.7120   11.5380 C.3    11  THR11       0.1784
      6  OG1       16.3420   44.0010   10.6020 O.3    11  THR11      -0.2211
      7  CG2       18.2760   43.7820   12.0640 C.3    11  THR11       0.0376
      8  N         15.7810   47.3690   11.6680 N.am   12  ARG12      -0.1965
      9  CA        14.9220   48.3460   10.9880 C.3    12  ARG12       0.1714
     10  C         14.0920   47.7690    9.8330 C.2    12  ARG12       0.2458
     11  O         12.8720   47.9450    9.8260 O.2    12  ARG12      -0.2730
     12  CB        15.7170   49.5820   10.5180 C.3    12  ARG12       0.0347
     13  CG        14.9280   50.4180    9.5090 C.3    12  ARG12       0.0492
     14  CD        15.6520   51.6940    9.1160 C.3    12  ARG12       0.2205
     15  NE        16.8030   51.4180    8.2660 N.pl3  12  ARG12      -0.0865
     16  CZ        17.7160   52.3280    7.9480 C.cat  12  ARG12       0.5346
     17  NH1       17.6170   53.5710    8.4220 N.pl3  12  ARG12       0.1354
     18  NH2       18.7300   51.9910    7.1630 N.pl3  12  ARG12       0.1354
     19  N         14.7330   47.1080    8.8410 N.am   13  PRO13      -0.2727
     20  CA        13.9160   46.6670    7.6910 C.3    13  PRO13       0.1402
     21  C         12.8790   45.6190    8.0570 C.2    13  PRO13       0.2269
     22  O         11.7520   45.6530    7.5250 O.2    13  PRO13      -0.2865
     23  CB        14.9490   46.0730    6.7270 C.3    13  PRO13       0.0296
     24  CG        16.1480   45.7890    7.5630 C.3    13  PRO13       0.0237
     25  CD        16.1690   46.8900    8.5850 C.3    13  PRO13       0.0939
     26  N         18.6770   43.1710   17.6430 N.3    40  GLN40      -0.1231
     27  CA        19.9190   43.2000   16.8640 C.3    40  GLN40       0.1698
     28  C         20.2990   44.6380   16.5090 C.2    40  GLN40       0.2592
     29  O         21.4700   45.0040   16.5230 O.2    40  GLN40      -0.2718
     30  CB        19.7420   42.3600   15.5980 C.3    40  GLN40       0.0381
     31  CG        20.9820   42.3180   14.7290 C.3    40  GLN40       0.0905
     32  CD        20.7680   41.5630   13.4330 C.2    40  GLN40       0.2608
     33  OE1       20.0170   40.5840   13.3730 O.2    40  GLN40      -0.2717
     34  NE2       21.4430   42.0130   12.3800 N.am   40  GLN40      -0.0878
     35  N         19.2840   45.4410   16.1750 N.am   41  HIS41      -0.1962
     36  CA        19.3800   46.9000   16.1520 C.3    41  HIS41       0.1787
     37  C         18.7280   47.4030   17.4110 C.2    41  HIS41       0.2620
     38  O         17.7240   46.8530   17.8480 O.2    41  HIS41      -0.2715
     39  CB        18.5920   47.4480   14.9750 C.3    41  HIS41       0.0785
     40  CG        19.2780   47.2800   13.6480 C.ar   41  HIS41       0.0821
     41  ND1       18.7670   47.7790   12.5120 N.ar   41  HIS41      -0.2267
     42  CD2       20.4900   46.6920   13.3090 C.ar   41  HIS41       0.1154
     43  CE1       19.5990   47.5160   11.4930 C.ar   41  HIS41       0.1986
     44  NE2       20.6530   46.8430   11.9810 N.ar   41  HIS41      -0.2212
     45  N         19.2840   48.4480   18.0000 N.am   42  ARG42      -0.1963
     46  CA        18.6610   49.0950   19.1530 C.3    42  ARG42       0.1729
     47  C         17.9400   50.3660   18.7040 C.2    42  ARG42       0.2616
     48  O         16.7180   50.3740   18.5640 O.2    42  ARG42      -0.2715
     49  CB        19.7090   49.3670   20.2440 C.3    42  ARG42       0.0348
     50  CG        19.1470   49.9680   21.5390 C.3    42  ARG42       0.0492
     51  CD        18.3470   48.9650   22.3700 C.3    42  ARG42       0.2205
     52  NE        16.9620   48.8090   21.9170 N.pl3  42  ARG42      -0.0865
     53  CZ        16.1540   47.8160   22.2910 C.cat  42  ARG42       0.5346
     54  NH1       16.5820   46.8600   23.1080 N.pl3  42  ARG42       0.1354
     55  NH2       14.9110   47.7600   21.8300 N.pl3  42  ARG42       0.1354
     56  N         18.6930   51.4310   18.4430 N.am   43  GLN43      -0.1963
     57  CA        18.0820   52.7180   18.1080 C.3    43  GLN43       0.1733
     58  C         17.2350   52.6590   16.8370 C.2    43  GLN43       0.2616
     59  O         16.1280   53.2080   16.7920 O.2    43  GLN43      -0.2715
     60  CB        19.1530   53.8170   17.9910 C.3    43  GLN43       0.0408
     61  CG        19.9900   54.0510   19.2530 C.3    43  GLN43       0.0908
     62  CD        21.0920   53.0080   19.4860 C.2    43  GLN43       0.2608
     63  OE1       21.4450   52.2290   18.5980 O.2    43  GLN43      -0.2717
     64  NE2       21.6290   52.9870   20.7100 N.am   43  GLN43      -0.0878
     65  N         17.7580   51.9960   15.8050 N.am   44  MET44      -0.1977
     66  CA        17.0820   51.9440   14.5120 C.3    44  MET44       0.1605
     67  C         15.8290   51.0690   14.5530 C.2    44  MET44       0.2287
     68  O         14.8940   51.2970   13.7880 O.2    44  MET44      -0.2864
     69  CB        18.0510   51.4890   13.4140 C.3    44  MET44       0.0413
     70  CG        19.0820   52.5520   13.0660 C.3    44  MET44       0.0598
     71  SD        20.4290   51.9030   12.0490 S.3    44  MET44      -0.1393
     72  CE        19.5740   51.4470   10.5530 C.3    44  MET44       0.0692
     73  N         21.9520   43.8470   20.8660 N.3    63  MET63      -0.1230
     74  CA        22.9440   44.6090   20.0950 C.3    63  MET63       0.1702
     75  C         24.2140   44.9330   20.8720 C.2    63  MET63       0.2592
     76  O         24.1600   45.4070   22.0080 O.2    63  MET63      -0.2718
     77  CB        22.3740   45.8990   19.5110 C.3    63  MET63       0.0401
     78  CG        23.3610   46.5510   18.5420 C.3    63  MET63       0.0596
     79  SD        22.8350   48.1640   17.9370 S.3    63  MET63      -0.1393
     80  CE        23.3070   49.1690   19.3540 C.3    63  MET63       0.0692
     81  N         25.3480   44.6320   20.2520 N.am   64  LYS64      -0.1966
     82  CA        26.6390   45.0690   20.7480 C.3    64  LYS64       0.1728
     83  C         27.2700   45.9660   19.7000 C.2    64  LYS64       0.2616
     84  O         26.9820   45.8290   18.5140 O.2    64  LYS64      -0.2715
     85  CB        27.5440   43.8690   20.9820 C.3    64  LYS64       0.0311
     86  CG        27.1500   42.9830   22.1460 C.3    64  LYS64       0.0038
     87  CD        28.1540   41.8520   22.2880 C.3    64  LYS64       0.0206
     88  CE        29.5620   42.3090   21.9180 C.3    64  LYS64       0.1093
     89  NZ        30.6390   41.5850   22.6520 N.3    64  LYS64      -0.1314
     90  N         28.1310   46.8830   20.1300 N.am   65  GLU65      -0.1963
     91  CA        28.7850   47.7850   19.1900 C.3    65  GLU65       0.1733
     92  C         29.7680   46.9930   18.3140 C.2    65  GLU65       0.2616
     93  O         30.5330   46.1700   18.8180 O.2    65  GLU65      -0.2715
     94  CB        29.4870   48.9250   19.9500 C.3    65  GLU65       0.0429
     95  CG        30.4640   49.7590   19.1280 C.3    65  GLU65       0.1163
     96  CD        29.8420   50.9330   18.3590 C.2    65  GLU65       0.3649
     97  OE1       28.6230   50.9190   18.0160 O.co2  65  GLU65      -0.2457
     98  OE2       30.6020   51.8930   18.0800 O.co2  65  GLU65      -0.2457
     99  N         29.7200   47.2250   17.0020 N.am   66  ARG66      -0.1963
    100  CA        30.6100   46.5490   16.0440 C.3    66  ARG66       0.1729
    101  C         30.5560   45.0190   16.1860 C.2    66  ARG66       0.2616
    102  O         31.5860   44.3220   16.1340 O.2    66  ARG66      -0.2715
    103  CB        32.0490   47.0650   16.1710 C.3    66  ARG66       0.0348
    104  CG        32.2480   48.5130   15.7350 C.3    66  ARG66       0.0492
    105  CD        33.6760   48.9480   16.0440 C.3    66  ARG66       0.2205
    106  NE        33.9210   50.3680   15.7960 N.pl3  66  ARG66      -0.0865
    107  CZ        34.4120   50.8600   14.6590 C.cat  66  ARG66       0.5346
    108  NH1       34.6880   50.0580   13.6420 N.pl3  66  ARG66       0.1354
    109  NH2       34.6230   52.1660   14.5360 N.pl3  66  ARG66       0.1354
    110  N         29.3440   44.4990   16.3220 N.am   67  GLN67      -0.1977
    111  CA        29.1350   43.0760   16.5670 C.3    67  GLN67       0.1601
    112  C         29.4450   42.2500   15.3210 C.2    67  GLN67       0.2287
    113  O         29.2640   42.7120   14.2020 O.2    67  GLN67      -0.2864
    114  CB        27.7050   42.8070   17.0470 C.3    67  GLN67       0.0394
    115  CG        26.6110   43.1280   16.0300 C.3    67  GLN67       0.0908
    116  CD        25.2460   43.2990   16.6630 C.2    67  GLN67       0.2608
    117  OE1       25.0470   43.0410   17.8530 O.2    67  GLN67      -0.2717
    118  NE2       24.2860   43.7180   15.8550 N.am   67  GLN67      -0.0878
    119  N         29.0790   38.5210   13.0090 N.3    69  LEU69      -0.1245
    120  CA        28.0530   37.5400   12.6880 C.3    69  LEU69       0.1561
    121  C         27.9530   36.4500   13.7520 C.2    69  LEU69       0.2260
    122  O         26.8540   36.0750   14.1460 O.2    69  LEU69      -0.2867
    123  CB        28.2700   36.9330   11.2960 C.3    69  LEU69       0.0270
    124  CG        28.1760   37.9540   10.1470 C.3    69  LEU69       0.0019
    125  CD1       28.4740   37.2850    8.8110 C.3    69  LEU69       0.0001
    126  CD2       26.8030   38.6220   10.0820 C.3    69  LEU69       0.0001
    127  N         26.0820   37.9900   16.8710 N.3    72  ILE72      -0.1245
    128  CA        24.6310   38.1200   16.6980 C.3    72  ILE72       0.1561
    129  C         23.9820   36.7360   16.7550 C.2    72  ILE72       0.2260
    130  O         22.9710   36.5370   17.4230 O.2    72  ILE72      -0.2867
    131  CB        24.2270   38.7710   15.3530 C.3    72  ILE72       0.0252
    132  CG1       24.9070   40.1250   15.1420 C.3    72  ILE72       0.0019
    133  CG2       22.7030   38.8980   15.2810 C.3    72  ILE72       0.0019
    134  CD1       24.8150   40.6540   13.7140 C.3    72  ILE72       0.0001
    135  N         15.8150   38.0190    5.7380 N.3    97  ASP97      -0.1225
    136  CA        17.1540   37.4490    5.5310 C.3    97  ASP97       0.1805
    137  C         18.2340   37.9620    6.4770 C.2    97  ASP97       0.2598
    138  O         19.4230   37.9350    6.1330 O.2    97  ASP97      -0.2718
    139  CB        17.5950   37.6760    4.0690 C.3    97  ASP97       0.1424
    140  CG        17.5100   39.1320    3.6430 C.2    97  ASP97       0.3668
    141  OD1       17.5980   40.0510    4.5050 O.co2  97  ASP97      -0.2456
    142  OD2       17.3730   39.3620    2.4110 O.co2  97  ASP97      -0.2456
    143  N         17.8420   38.4190    7.6650 N.am   98  THR98      -0.1939
    144  CA        18.8340   38.8780    8.6410 C.3    98  THR98       0.2028
    145  C         19.3210   37.6880    9.4680 C.2    98  THR98       0.2642
    146  O         18.7290   36.6090    9.4340 O.2    98  THR98      -0.2714
    147  CB        18.3090   39.9520    9.6300 C.3    98  THR98       0.1808
    148  OG1       17.3750   39.3550   10.5350 O.3    98  THR98      -0.2208
    149  CG2       17.6280   41.1030    8.9030 C.3    98  THR98       0.0379
    150  N         20.3900   37.9140   10.2210 N.am   99  THR99      -0.1950
    151  CA        20.8790   36.9020   11.1470 C.3    99  THR99       0.1897
    152  C         19.8290   36.6160   12.2200 C.2    99  THR99       0.2313
    153  O         19.6800   35.4820   12.6490 O.2    99  THR99      -0.2863
    154  CB        22.2590   37.2840   11.7050 C.3    99  THR99       0.1794
    155  OG1       23.1810   37.3600   10.6070 O.3    99  THR99      -0.2208
    156  CG2       22.7570   36.2210   12.6730 C.3    99  THR99       0.0378
    157  N         25.6650   38.0760    4.7420 N.3   132  PRO132     -0.2102
    158  CA        25.3010   36.6670    4.6820 C.3   132  PRO132      0.1504
    159  C         23.8290   36.4630    4.3140 C.2   132  PRO132      0.2575
    160  O         23.2810   35.3870    4.5550 O.2   132  PRO132     -0.2718
    161  CB        25.5170   36.2290    6.1300 C.3   132  PRO132      0.0282
    162  CG        24.9960   37.4090    6.9010 C.3   132  PRO132      0.0208
    163  CD        25.4650   38.6110    6.1100 C.3   132  PRO132      0.0893
    164  N         23.1790   37.4990    3.7680 N.am  133  GLU133     -0.1980
    165  CA        21.7250   37.4320    3.5570 C.3   133  GLU133      0.1602
    166  C         21.2720   36.3130    2.6330 C.2   133  GLU133      0.2287
    167  O         20.2290   35.7000    2.8790 O.2   133  GLU133     -0.2864
    168  CB        21.1570   38.7870    3.0880 C.3   133  GLU133      0.0415
    169  CG        21.2190   39.8960    4.1330 C.3   133  GLU133      0.1163
    170  CD        22.5630   40.6150    4.2010 C.2   133  GLU133      0.3649
    171  OE1       23.5280   40.2500    3.4840 O.co2 133  GLU133     -0.2457
    172  OE2       22.6670   41.5530    5.0090 O.co2 133  GLU133     -0.2457
    173  N         21.3350   33.3000    4.7940 N.3   136  ASN136     -0.1240
    174  CA        20.3010   33.4300    5.8260 C.3   136  ASN136      0.1653
    175  C         18.9220   33.0320    5.3130 C.2   136  ASN136      0.2266
    176  O         18.2160   32.2350    5.9390 O.2   136  ASN136     -0.2867
    177  CB        20.2380   34.8540    6.3850 C.3   136  ASN136      0.1155
    178  CG        21.3830   35.1860    7.3190 C.2   136  ASN136      0.2627
    179  OD1       22.0850   34.3070    7.8260 O.2   136  ASN136     -0.2716
    180  ND2       21.5560   36.4720    7.5800 N.am  136  ASN136     -0.0877
    181  N         24.8050   50.4960    2.8860 N.3   206  HIS206     -0.1226
    182  CA        25.2140   49.7170    4.0850 C.3   206  HIS206      0.1752
    183  C         25.4980   48.2420    3.9170 C.2   206  HIS206      0.2596
    184  O         25.7320   47.5630    4.9310 O.2   206  HIS206     -0.2718
    185  CB        24.1810   49.8880    5.2160 C.3   206  HIS206      0.0759
    186  CG        22.8720   49.1900    4.9410 C.ar  206  HIS206      0.0818
    187  ND1       22.5970   47.9340    5.3760 N.ar  206  HIS206     -0.2268
    188  CD2       21.7610   49.6140    4.2280 C.ar  206  HIS206      0.1154
    189  CE1       21.3630   47.5780    4.9470 C.ar  206  HIS206      0.1986
    190  NE2       20.8540   48.6120    4.2460 N.ar  206  HIS206     -0.2212
    191  N         25.4660   47.7020    2.6970 N.am  207  ARG207     -0.1966
    192  CA        25.6460   46.2340    2.5050 C.3   207  ARG207      0.1729
    193  C         26.9920   45.7870    3.0520 C.2   207  ARG207      0.2616
    194  O         28.0020   46.4580    2.8490 O.2   207  ARG207     -0.2715
    195  CB        25.5620   45.8120    1.0270 C.3   207  ARG207      0.0348
    196  CG        24.1890   45.9480    0.3850 C.3   207  ARG207      0.0492
    197  CD        23.3910   44.6440    0.3670 C.3   207  ARG207      0.2205
    198  NE        23.0410   44.1750    1.7150 N.pl3 207  ARG207     -0.0865
    199  CZ        22.0480   44.6700    2.4550 C.cat 207  ARG207      0.5346
    200  NH1       21.2910   45.6690    1.9990 N.pl3 207  ARG207      0.1354
    201  NH2       21.8090   44.1790    3.6660 N.pl3 207  ARG207      0.1354
    202  N         27.0000   44.6600    3.7570 N.am  208  ARG208     -0.1977
    203  CA        28.2390   44.1610    4.3880 C.3   208  ARG208      0.1597
    204  C         29.3690   43.9360    3.3760 C.2   208  ARG208      0.2287
    205  O         30.5250   44.3000    3.6350 O.2   208  ARG208     -0.2864
    206  CB        27.9300   42.8590    5.1400 C.3   208  ARG208      0.0334
    207  CG        28.9910   42.3940    6.1430 C.3   208  ARG208      0.0492
    208  CD        28.4410   41.2270    6.9680 C.3   208  ARG208      0.2205
    209  NE        27.2240   41.6410    7.6660 N.pl3 208  ARG208     -0.0865
    210  CZ        27.1510   42.0310    8.9350 C.cat 208  ARG208      0.5346
    211  NH1       28.2300   42.0130    9.7120 N.pl3 208  ARG208      0.1354
    212  NH2       25.9790   42.4460    9.4300 N.pl3 208  ARG208      0.1354
    213  N         31.2230   47.1290    2.3500 N.3   211  LEU211     -0.1245
    214  CA        32.0360   47.9040    3.3000 C.3   211  LEU211      0.1561
    215  C         33.5040   47.9830    2.8430 C.2   211  LEU211      0.2260
    216  O         34.0580   47.0040    2.3340 O.2   211  LEU211     -0.2867
    217  CB        31.9300   47.3340    4.7230 C.3   211  LEU211      0.0270
    218  CG        30.5140   47.2750    5.3110 C.3   211  LEU211      0.0019
    219  CD1       30.4720   46.4750    6.6050 C.3   211  LEU211      0.0001
    220  CD2       29.9500   48.6770    5.5190 C.3   211  LEU211      0.0001
    221  N         23.4610   55.1920    7.9870 N.3   239  HIS239     -0.1226
    222  CA        23.3520   54.0240    8.8780 C.3   239  HIS239      0.1752
    223  C         24.2150   54.1980   10.1110 C.2   239  HIS239      0.2596
    224  O         25.2870   54.8160   10.0570 O.2   239  HIS239     -0.2718
    225  CB        23.7900   52.7950    8.0850 C.3   239  HIS239      0.0759
    226  CG        23.3740   51.4770    8.6930 C.ar  239  HIS239      0.0818
    227  ND1       24.0030   50.9390    9.7570 N.ar  239  HIS239     -0.2268
    228  CD2       22.3970   50.5690    8.3150 C.ar  239  HIS239      0.1154
    229  CE1       23.4360   49.7640   10.0660 C.ar  239  HIS239      0.1986
    230  NE2       22.4580   49.5310    9.1800 N.ar  239  HIS239     -0.2212
    231  N         23.7760   53.6580   11.2480 N.am  240  LEU240     -0.1966
    232  CA        24.5450   53.8090   12.4920 C.3   240  LEU240      0.1728
    233  C         25.8310   52.9710   12.5860 C.2   240  LEU240      0.2616
    234  O         26.6140   53.1530   13.5230 O.2   240  LEU240     -0.2715
    235  CB        23.6580   53.5320   13.7120 C.3   240  LEU240      0.0311
    236  CG        22.8460   54.7260   14.2280 C.3   240  LEU240      0.0022
    237  CD1       21.8930   54.2560   15.3140 C.3   240  LEU240      0.0001
    238  CD2       23.7620   55.8170   14.7740 C.3   240  LEU240      0.0001
    239  N         26.0540   52.0690   11.6340 N.am  241  ASN241     -0.1959
    240  CA        27.2920   51.2830   11.6070 C.3   241  ASN241      0.1804
    241  C         28.4970   52.2340   11.5680 C.2   241  ASN241      0.2463
    242  O         28.6370   52.9980   10.6150 O.2   241  ASN241     -0.2730
    243  CB        27.3040   50.3510   10.3880 C.3   241  ASN241      0.1195
    244  CG        28.5140   49.4300   10.3500 C.2   241  ASN241      0.2630
    245  OD1       29.4100   49.5200   11.1870 O.2   241  ASN241     -0.2716
    246  ND2       28.5380   48.5260    9.3710 N.am  241  ASN241     -0.0877
    247  N         29.3610   52.1990   12.6070 N.am  242  PRO242     -0.2727
    248  CA        30.5190   53.1130   12.6310 C.3   242  PRO242      0.1402
    249  C         31.3890   53.0390   11.3710 C.2   242  PRO242      0.2269
    250  O         31.9630   54.0650   10.9600 O.2   242  PRO242     -0.2865
    251  CB        31.3320   52.6380   13.8450 C.3   242  PRO242      0.0296
    252  CG        30.3880   51.8490   14.6860 C.3   242  PRO242      0.0237
    253  CD        29.2880   51.3360   13.8060 C.3   242  PRO242      0.0939
@<TRIPOS>BOND
     1   197   196    1
     2   197   198    1
     3   196   195    1
     4   195   192    1
     5   198   199    2
     6   200   199    1
     7   216   215    2
     8   213   214    1
     9   142   140   ar
    10   199   201    1
    11   192   191    1
    12   192   193    1
    13   166   167    2
    14   166   165    1
    15   191   183   am
    16   215   214    1
    17   194   193    2
    18   181   182    1
    19   193   202   am
    20   168   165    1
    21   168   169    1
    22   214   217    1
    23   204   205    2
    24   204   203    1
    25   171   170   ar
    26   165   164    1
    27   140   139    1
    28   140   141   ar
    29   202   203    1
    30   164   159   am
    31   183   182    1
    32   183   184    2
    33   139   136    1
    34   182   185    1
    35   169   170    1
    36   170   172   ar
    37   188   190   ar
    38   188   186   ar
    39   190   189   ar
    40   159   160    2
    41   159   158    1
    42   203   206    1
    43   158   157    1
    44   158   161    1
    45   217   218    1
    46   157   163    1
    47   173   174    1
    48   186   185    1
    49   186   187   ar
    50   189   187   ar
    51   206   207    1
    52   218   220    1
    53   218   219    1
    54   175   174    1
    55   175   176    2
    56   136   135    1
    57   136   137    1
    58   174   177    1
    59   163   162    1
    60   161   162    1
    61   138   137    2
    62   207   208    1
    63   177   178    1
    64   137   143   am
    65    23    24    1
    66    23    20    1
    67   208   209    1
    68    18    16    1
    69   178   180   am
    70   178   179    2
    71    22    21    2
    72    24    25    1
    73   143   144    1
    74   209   210    2
    75    20    21    1
    76    20    19    1
    77    16    15    2
    78    16    17    1
    79   221   222    1
    80   225   226    1
    81   225   222    1
    82    15    14    1
    83   228   226   ar
    84   228   230   ar
    85    25    19    1
    86   144   145    1
    87   144   147    1
    88   226   227   ar
    89   125   124    1
    90    19    10   am
    91   222   223    1
    92   149   147    1
    93   210   212    1
    94   210   211    1
    95    14    13    1
    96   230   229   ar
    97   246   244   am
    98   146   145    2
    99   145   150   am
   100    13    12    1
   101   147   148    1
   102   227   229   ar
   103    11    10    2
   104    10     9    1
   105   224   223    2
   106   126   124    1
   107   223   231   am
   108   124   123    1
   109   150   151    1
   110   244   243    1
   111   244   245    2
   112   243   240    1
   113    12     9    1
   114    72    71    1
   115     6     5    1
   116   155   154    1
   117   242   241    2
   118   250   249    2
   119     9     8    1
   120   151   154    1
   121   151   152    1
   122   231   232    1
   123   123   120    1
   124   249   248    1
   125    43    44   ar
   126    43    41   ar
   127     5     7    1
   128     5     2    1
   129   241   240    1
   130   241   247   am
   131   240   239    1
   132   239   233   am
   133     8     3   am
   134   154   156    1
   135     4     3    2
   136    44    42   ar
   137    71    70    1
   138     3     2    1
   139   152   153    2
   140    34    32   am
   141   232   233    1
   142   232   235    1
   143    41    40   ar
   144   233   234    2
   145   247   248    1
   146   247   253    1
   147   248   251    1
   148   120   119    1
   149   120   121    1
   150     2     1    1
   151    70    69    1
   152    42    40   ar
   153    33    32    2
   154    69    66    1
   155    32    31    1
   156   108   107    1
   157    40    39    1
   158   235   236    1
   159   134   132    1
   160   121   122    2
   161    68    67    2
   162   253   252    1
   163   251   252    1
   164   113   112    2
   165   236   238    1
   166   236   237    1
   167    66    67    1
   168    66    65    1
   169   109   107    1
   170   107   106    2
   171    31    30    1
   172    39    36    1
   173   132   131    1
   174   133   131    1
   175   112   111    1
   176   131   128    1
   177    30    27    1
   178   104   105    1
   179   104   103    1
   180   106   105    1
   181    65    58   am
   182   118   116   am
   183   115   116    1
   184   115   114    1
   185   100   103    1
   186   100   101    1
   187   100    99    1
   188   102   101    2
   189    36    35    1
   190    36    37    1
   191    35    28   am
   192   101   110   am
   193   110   111    1
   194    28    29    2
   195    28    27    1
   196   111   114    1
   197   116   117    2
   198   128   129    1
   199   128   127    1
   200   129   130    2
   201    59    58    2
   202    58    57    1
   203    27    26    1
   204    99    92   am
   205    37    38    2
   206    37    45   am
   207    79    78    1
   208    79    80    1
   209    60    57    1
   210    60    61    1
   211    45    46    1
   212    97    96   ar
   213    98    96   ar
   214    57    56    1
   215    92    93    2
   216    92    91    1
   217    96    95    1
   218    56    47   am
   219    84    83    2
   220    78    77    1
   221    48    47    2
   222    63    62    2
   223    47    46    1
   224    95    94    1
   225    46    49    1
   226    91    94    1
   227    91    90    1
   228    61    62    1
   229    62    64   am
   230    77    74    1
   231    83    90   am
   232    83    82    1
   233    74    73    1
   234    74    75    1
   235    49    50    1
   236    81    82    1
   237    81    75   am
   238    82    85    1
   239    75    76    2
   240    85    86    1
   241    50    51    1
   242    55    53    1
   243    52    53    2
   244    52    51    1
   245    88    87    1
   246    88    89    1
   247    86    87    1
   248    53    54    1
