@<TRIPOS>MOLECULE
tmp/4fl0B00.pdb
 119 111 0 0 0
SMALL
GASTEIGER

@<TRIPOS>ATOM
      1  N         18.0980  -69.3240  222.0390 N.3   108  GLY108     -0.1210
      2  CA        17.6550  -68.7940  223.3430 C.3   108  GLY108      0.1956
      3  C         16.1740  -68.9820  223.6240 C.2   108  GLY108      0.2612
      4  O         15.4190  -69.3600  222.7340 O.2   108  GLY108     -0.2717
      5  N         15.7740  -68.7030  224.8610 N.am  109  ALA109     -0.1965
      6  CA        14.4130  -69.0040  225.3450 C.3   109  ALA109      0.1728
      7  C         13.3100  -68.1790  224.7150 C.2   109  ALA109      0.2616
      8  O         12.2350  -68.7040  224.4880 O.2   109  ALA109     -0.2715
      9  CB        14.3300  -68.8480  226.8340 C.3   109  ALA109      0.0334
     10  N         13.5560  -66.9010  224.4250 N.am  110  GLN110     -0.1977
     11  CA        12.5100  -66.0660  223.8450 C.3   110  GLN110      0.1601
     12  C         11.9320  -66.7370  222.5820 C.2   110  GLN110      0.2287
     13  O         10.7350  -66.9510  222.4650 O.2   110  GLN110     -0.2864
     14  CB        13.0520  -64.6790  223.5290 C.3   110  GLN110      0.0394
     15  CG        11.9990  -63.6230  223.3210 C.3   110  GLN110      0.0908
     16  CD        11.4850  -62.9670  224.6050 C.2   110  GLN110      0.2608
     17  OE1       11.9390  -63.2370  225.7330 O.2   110  GLN110     -0.2717
     18  NE2       10.5070  -62.0960  224.4280 N.am  110  GLN110     -0.0878
     19  N          6.0860  -63.2600  234.0950 N.3   133  PHE133     -0.1241
     20  CA         7.1280  -63.0150  233.1050 C.3   133  PHE133      0.1605
     21  C          6.4550  -62.7430  231.7720 C.2   133  PHE133      0.2264
     22  O          5.7170  -63.5840  231.2430 O.2   133  PHE133     -0.2867
     23  CB         8.0610  -64.2310  232.9950 C.3   133  PHE133      0.0534
     24  CG         9.2540  -64.0370  232.0160 C.ar  133  PHE133     -0.0203
     25  CD1       10.2130  -63.0830  232.2620 C.ar  133  PHE133     -0.0042
     26  CD2        9.4170  -64.8660  230.9280 C.ar  133  PHE133     -0.0042
     27  CE1       11.3070  -62.8930  231.4080 C.ar  133  PHE133     -0.0003
     28  CE2       10.4980  -64.7110  230.0670 C.ar  133  PHE133     -0.0003
     29  CZ        11.4480  -63.7060  230.3010 C.ar  133  PHE133     -0.0000
     30  N          5.8720  -65.4740  228.3660 N.3   136  TYR136     -0.1241
     31  CA         4.9060  -66.5400  228.3110 C.3   136  TYR136      0.1605
     32  C          3.5280  -65.9670  227.9140 C.2   136  TYR136      0.2264
     33  O          2.8440  -66.5350  227.0650 O.2   136  TYR136     -0.2867
     34  CB         4.7670  -67.2610  229.6550 C.3   136  TYR136      0.0534
     35  CG         6.0360  -67.5720  230.3710 C.ar  136  TYR136     -0.0201
     36  CD1        7.1400  -68.0910  229.6960 C.ar  136  TYR136     -0.0009
     37  CD2        6.1510  -67.3680  231.7530 C.ar  136  TYR136     -0.0009
     38  CE1        8.3470  -68.3430  230.3580 C.ar  136  TYR136      0.0417
     39  CE2        7.3410  -67.6590  232.4190 C.ar  136  TYR136      0.0417
     40  CZ         8.4540  -68.1400  231.7080 C.ar  136  TYR136      0.1957
     41  OH         9.6950  -68.4190  232.3790 O.3   136  TYR136     -0.2866
     42  N          8.2220  -70.9230  236.1230 N.3   186  CYS186     -0.1235
     43  CA         9.5800  -70.4390  236.0950 C.3   186  CYS186      0.1677
     44  C         10.2250  -70.5630  237.4800 C.2   186  CYS186      0.2270
     45  O          9.7730  -69.9800  238.4590 O.2   186  CYS186     -0.2867
     46  CB         9.5600  -68.9690  235.7210 C.3   186  CYS186      0.0956
     47  SG        11.2210  -68.3120  235.4590 S.3   186  CYS186     -0.0801
     48  N         11.5350  -65.3430  237.7290 N.3   190  ASN190     -0.1240
     49  CA        11.6940  -63.9180  237.4160 C.3   190  ASN190      0.1653
     50  C         10.2540  -63.4040  237.4450 C.2   190  ASN190      0.2266
     51  O          9.4560  -63.8500  236.6340 O.2   190  ASN190     -0.2867
     52  CB        12.2510  -63.7290  236.0050 C.3   190  ASN190      0.1155
     53  CG        12.5260  -62.2640  235.6340 C.2   190  ASN190      0.2627
     54  OD1       12.3450  -61.3530  236.4270 O.2   190  ASN190     -0.2716
     55  ND2       13.0720  -62.0620  234.4290 N.am  190  ASN190     -0.0877
     56  N         10.6080  -73.3590  233.0360 N.3   218  ASP218     -0.1239
     57  CA        11.7020  -72.4880  232.6430 C.3   218  ASP218      0.1674
     58  C         12.8030  -72.4720  233.6920 C.2   218  ASP218      0.2266
     59  O         12.7020  -71.8110  234.7150 O.2   218  ASP218     -0.2867
     60  CB        11.1600  -71.0660  232.4350 C.3   218  ASP218      0.1410
     61  CG        12.1970  -70.0850  231.8510 C.2   218  ASP218      0.3668
     62  OD1       13.4050  -70.3650  231.9860 O.co2 218  ASP218     -0.2456
     63  OD2       11.7730  -68.9940  231.2850 O.co2 218  ASP218     -0.2456
     64  N         15.9490  -71.3070  233.1880 N.3   220  ALA220     -0.1231
     65  CA        17.0600  -70.4410  232.7720 C.3   220  ALA220      0.1694
     66  C         17.8970  -69.9070  233.9160 C.2   220  ALA220      0.2592
     67  O         19.0390  -69.5510  233.7040 O.2   220  ALA220     -0.2718
     68  CB        16.5660  -69.2970  231.9320 C.3   220  ALA220      0.0304
     69  N         17.3810  -69.8880  235.1490 N.am  221  TYR221     -0.1976
     70  CA        18.1810  -69.3800  236.2810 C.3   221  TYR221      0.1639
     71  C         18.7730  -70.4850  237.2000 C.2   221  TYR221      0.2290
     72  O         19.3810  -70.1820  238.2440 O.2   221  TYR221     -0.2864
     73  CB        17.3580  -68.3690  237.0680 C.3   221  TYR221      0.0560
     74  CG        17.1090  -67.1210  236.2740 C.ar  221  TYR221     -0.0198
     75  CD1       18.0950  -66.1900  236.1300 C.ar  221  TYR221     -0.0009
     76  CD2       15.8970  -66.8830  235.6890 C.ar  221  TYR221     -0.0009
     77  CE1       17.8770  -65.0180  235.4440 C.ar  221  TYR221      0.0417
     78  CE2       15.6540  -65.7370  234.9580 C.ar  221  TYR221      0.0417
     79  CZ        16.6380  -64.8080  234.8070 C.ar  221  TYR221      0.1957
     80  OH        16.4180  -63.6650  234.0400 O.3   221  TYR221     -0.2866
     81  N         18.5920  -71.7020  229.0000 N.3   248  SER248     -0.1217
     82  CA        19.3720  -70.7620  228.2380 C.3   248  SER248      0.1889
     83  C         20.7670  -70.6310  228.6930 C.2   248  SER248      0.2288
     84  O         21.0590  -70.7380  229.8550 O.2   248  SER248     -0.2866
     85  CB        18.7230  -69.4000  228.3300 C.3   248  SER248      0.2089
     86  OG        19.3550  -68.4720  227.4580 O.3   248  SER248     -0.2183
     87  N         21.9340  -67.7170  228.4140 N.3   250  SER250     -0.1202
     88  CA        22.0160  -66.2750  228.5200 C.3   250  SER250      0.2020
     89  C         22.5530  -65.7600  229.8730 C.2   250  SER250      0.2618
     90  O         23.4720  -64.9740  229.9210 O.2   250  SER250     -0.2717
     91  CB        20.6480  -65.6530  228.2210 C.3   250  SER250      0.2103
     92  OG        20.5430  -65.3640  226.8460 O.3   250  SER250     -0.2182
     93  N         21.9020  -66.1600  230.9440 N.am  251  LYS251     -0.1979
     94  CA        22.1910  -65.6870  232.2700 C.3   251  LYS251      0.1596
     95  C         23.2390  -66.5680  232.9740 C.2   251  LYS251      0.2287
     96  O         24.0780  -66.0550  233.6820 O.2   251  LYS251     -0.2864
     97  CB        20.8840  -65.6040  233.0660 C.3   251  LYS251      0.0298
     98  CG        19.8670  -64.6820  232.4280 C.3   251  LYS251      0.0038
     99  CD        20.4840  -63.3150  232.1470 C.3   251  LYS251      0.0206
    100  CE        19.4660  -62.3530  231.5440 C.3   251  LYS251      0.1093
    101  NZ        18.5640  -61.8100  232.6050 N.3   251  LYS251     -0.1314
    102  N         23.7600  -63.4750  226.3310 N.3   256  THR256     -0.1218
    103  CA        22.5400  -62.7380  226.0710 C.3   256  THR256      0.1862
    104  C         22.5070  -62.1620  224.6700 C.2   256  THR256      0.2287
    105  O         21.4690  -62.2170  223.9940 O.2   256  THR256     -0.2866
    106  CB        22.3770  -61.5870  227.0980 C.3   256  THR256      0.1770
    107  OG1       23.6650  -60.9990  227.3050 O.3   256  THR256     -0.2211
    108  CG2       21.8400  -62.1380  228.4310 C.3   256  THR256      0.0375
    109  N         23.2340  -65.6280  221.8310 N.3   259  ARG259     -0.1245
    110  CA        22.0040  -66.2920  221.4990 C.3   259  ARG259      0.1563
    111  C         22.1730  -67.8030  221.4300 C.2   259  ARG259      0.2260
    112  O         22.5470  -68.3500  220.3870 O.2   259  ARG259     -0.2867
    113  CB        21.3990  -65.7070  220.1640 C.3   259  ARG259      0.0307
    114  CG        21.2080  -64.1720  220.1260 C.3   259  ARG259      0.0489
    115  CD        20.5940  -63.6160  221.3920 C.3   259  ARG259      0.2205
    116  NE        19.3430  -64.2820  221.6560 N.pl3 259  ARG259     -0.0865
    117  CZ        18.7400  -64.3840  222.8310 C.cat 259  ARG259      0.5346
    118  NH1       19.2820  -63.9080  223.9790 N.pl3 259  ARG259      0.1354
    119  NH2       17.5980  -65.0400  222.8660 N.pl3 259  ARG259      0.1354
@<TRIPOS>BOND
     1   114   113    1
     2   114   115    1
     3   113   110    1
     4   112   111    2
     5   115   116    1
     6   111   110    1
     7   110   109    1
     8   116   117    2
     9     1     2    1
    10    13    12    2
    11    12    11    1
    12     4     3    2
    13   117   119    1
    14   117   118    1
    15    15    14    1
    16    15    16    1
    17     2     3    1
    18    14    11    1
    19     3     5   am
    20    11    10    1
    21   105   104    2
    22    10     7   am
    23    18    16   am
    24     8     7    2
    25    16    17    2
    26   104   103    1
    27     7     6    1
    28     5     6    1
    29     6     9    1
    30   103   102    1
    31   103   106    1
    32    92    91    1
    33    33    32    2
    34   106   107    1
    35   106   108    1
    36    86    85    1
    37    32    31    1
    38    91    88    1
    39    82    85    1
    40    82    83    1
    41    82    81    1
    42    31    30    1
    43    31    34    1
    44    87    88    1
    45    88    89    1
    46    83    84    2
    47    34    35    1
    48    36    38   ar
    49    36    35   ar
    50    89    90    2
    51    89    93   am
    52    28    29   ar
    53    28    26   ar
    54    29    27   ar
    55    38    40   ar
    56    35    37   ar
    57    26    24   ar
    58    93    94    1
    59    22    21    2
    60    63    61   ar
    61    27    25   ar
    62   100    99    1
    63   100   101    1
    64    40    41    1
    65    40    39   ar
    66    37    39   ar
    67    21    20    1
    68    61    62   ar
    69    61    60    1
    70    68    65    1
    71    24    25   ar
    72    24    23    1
    73    99    98    1
    74    94    95    1
    75    94    97    1
    76    98    97    1
    77    60    57    1
    78    57    56    1
    79    57    58    1
    80    65    64    1
    81    65    66    1
    82    95    96    2
    83    23    20    1
    84    20    19    1
    85    58    59    2
    86    67    66    2
    87    66    69   am
    88    80    79    1
    89    55    53   am
    90    79    78   ar
    91    79    77   ar
    92    78    76   ar
    93    69    70    1
    94    77    75   ar
    95    47    46    1
    96    53    52    1
    97    53    54    2
    98    76    74   ar
    99    46    43    1
   100    52    49    1
   101    43    42    1
   102    43    44    1
   103    75    74   ar
   104    74    73    1
   105    70    73    1
   106    70    71    1
   107    51    50    2
   108    71    72    2
   109    49    50    1
   110    49    48    1
   111    44    45    2
