@<TRIPOS>MOLECULE
tmp/4fl2A00.pdb
 204 194 0 0 0
SMALL
GASTEIGER

@<TRIPOS>ATOM
      1  N        -21.6740  -14.0310  -10.9140 N.3   297  LEU297     -0.1231
      2  CA       -21.5190  -14.0380   -9.4490 C.3   297  LEU297      0.1693
      3  C        -22.8730  -14.4300   -8.8800 C.2   297  LEU297      0.2593
      4  O        -22.9780  -14.9930   -7.7880 O.2   297  LEU297     -0.2718
      5  CB       -21.1250  -12.6270   -8.9380 C.3   297  LEU297      0.0284
      6  CG       -19.7230  -12.4180   -8.3520 C.3   297  LEU297      0.0019
      7  CD1      -18.6740  -13.3900   -8.9370 C.3   297  LEU297      0.0001
      8  CD2      -19.2870  -10.9600   -8.4770 C.3   297  LEU297      0.0001
      9  N        -23.9030  -14.1170   -9.6450 N.am  298  GLY298     -0.1942
     10  CA       -25.2840  -14.4010   -9.3080 C.3   298  GLY298      0.2014
     11  C        -26.2500  -13.6190  -10.1670 C.2   298  GLY298      0.2640
     12  O        -25.8520  -12.8990  -11.0760 O.2   298  GLY298     -0.2714
     13  N        -27.5200  -13.7410   -9.8530 N.am  299  SER299     -0.1935
     14  CA       -28.5850  -13.1020  -10.5820 C.3   299  SER299      0.2055
     15  C        -29.7690  -12.8820   -9.6580 C.2   299  SER299      0.2644
     16  O        -29.8570  -13.4960   -8.5990 O.2   299  SER299     -0.2714
     17  CB       -29.0030  -13.9700  -11.7750 C.3   299  SER299      0.2130
     18  OG       -29.7030  -15.1430  -11.3820 O.3   299  SER299     -0.2179
     19  N        -30.6720  -12.0270  -10.0920 N.am  300  GLY300     -0.1939
     20  CA       -31.9010  -11.7100   -9.3840 C.3   300  GLY300      0.2014
     21  C        -32.9150  -11.1320  -10.3450 C.2   300  GLY300      0.2639
     22  O        -32.6690  -11.0780  -11.5520 O.2   300  GLY300     -0.2714
     23  N        -34.0390  -10.6570   -9.8070 N.am  301  ASN301     -0.1958
     24  CA       -35.1550  -10.0890  -10.5560 C.3   301  ASN301      0.1819
     25  C        -34.7950   -8.9740  -11.5510 C.2   301  ASN301      0.2621
     26  O        -35.4350   -8.8680  -12.5960 O.2   301  ASN301     -0.2715
     27  CB       -36.2100   -9.5990   -9.5690 C.3   301  ASN301      0.1195
     28  CG       -37.5070   -9.2140  -10.2200 C.2   301  ASN301      0.2630
     29  OD1      -38.3550  -10.0670  -10.4950 O.2   301  ASN301     -0.2716
     30  ND2      -37.6930   -7.9170  -10.4640 N.am  301  ASN301     -0.0877
     31  N        -33.7920   -8.1470  -11.2210 N.am  302  PHE302     -0.1960
     32  CA       -33.3830   -6.9820  -11.9970 C.3   302  PHE302      0.1771
     33  C        -32.2000   -7.1950  -12.9470 C.2   302  PHE302      0.2620
     34  O        -31.8430   -6.2730  -13.6920 O.2   302  PHE302     -0.2715
     35  CB       -33.0890   -5.8090  -11.0330 C.3   302  PHE302      0.0574
     36  CG       -34.2440   -5.5050  -10.1110 C.ar  302  PHE302     -0.0200
     37  CD1      -35.4070   -4.9120  -10.5960 C.ar  302  PHE302     -0.0042
     38  CD2      -34.1910   -5.8510   -8.7670 C.ar  302  PHE302     -0.0042
     39  CE1      -36.4870   -4.6490   -9.7450 C.ar  302  PHE302     -0.0003
     40  CE2      -35.2780   -5.6060   -7.9220 C.ar  302  PHE302     -0.0003
     41  CZ       -36.4120   -4.9990   -8.4130 C.ar  302  PHE302     -0.0000
     42  N        -31.5680   -8.3650  -12.8860 N.am  303  GLY303     -0.1954
     43  CA       -30.4050   -8.6170  -13.7200 C.3   303  GLY303      0.1869
     44  C        -29.4520   -9.6360  -13.1540 C.2   303  GLY303      0.2309
     45  O        -29.7680  -10.3300  -12.1790 O.2   303  GLY303     -0.2863
     46  N        -25.2240  -10.4340  -12.1470 N.3   305  VAL305     -0.1245
     47  CA       -24.0240   -9.7540  -11.6650 C.3   305  VAL305      0.1561
     48  C        -22.7460  -10.5150  -12.0110 C.2   305  VAL305      0.2260
     49  O        -22.6420  -11.7090  -11.7430 O.2   305  VAL305     -0.2867
     50  CB       -24.1380   -9.4910  -10.1380 C.3   305  VAL305      0.0252
     51  CG1      -23.0490   -8.5290   -9.6490 C.3   305  VAL305      0.0019
     52  CG2      -25.5360   -8.9770   -9.7710 C.3   305  VAL305      0.0019
     53  N        -17.9700   -5.0480   -9.1970 N.3   320  ALA320     -0.1245
     54  CA       -19.0820   -5.9570   -9.4440 C.3   320  ALA320      0.1562
     55  C        -20.0110   -5.1540  -10.3960 C.2   320  ALA320      0.2260
     56  O        -20.1670   -3.9350  -10.2440 O.2   320  ALA320     -0.2867
     57  CB       -19.7960   -6.2720   -8.1590 C.3   320  ALA320      0.0290
     58  N        -23.7510   -5.1130  -12.3690 N.3   322  LYS322     -0.1245
     59  CA       -25.0880   -5.6190  -12.5990 C.3   322  LYS322      0.1561
     60  C        -25.5250   -5.1770  -14.0320 C.2   322  LYS322      0.2260
     61  O        -25.5420   -3.9890  -14.3400 O.2   322  LYS322     -0.2867
     62  CB       -26.0960   -5.1360  -11.5520 C.3   322  LYS322      0.0271
     63  CG       -27.4350   -5.8520  -11.7180 C.3   322  LYS322      0.0035
     64  CD       -28.4430   -5.5550  -10.6440 C.3   322  LYS322      0.0206
     65  CE       -28.1850   -6.2690   -9.3360 C.3   322  LYS322      0.1093
     66  NZ       -29.4110   -6.2390   -8.4740 N.3   322  LYS322     -0.1314
     67  N        -22.9690   -0.1420   -0.8200 N.3   353  VAL353     -0.1245
     68  CA       -22.2000   -0.5590   -1.9930 C.3   353  VAL353      0.1561
     69  C        -22.2160    0.7110   -2.8860 C.2   353  VAL353      0.2260
     70  O        -23.2760    1.0670   -3.4020 O.2   353  VAL353     -0.2867
     71  CB       -22.8970   -1.7200   -2.7330 C.3   353  VAL353      0.0252
     72  CG1      -22.2070   -1.9710   -4.0850 C.3   353  VAL353      0.0019
     73  CG2      -22.9290   -2.9840   -1.8790 C.3   353  VAL353      0.0019
     74  N        -20.4310   -1.0730   -9.6470 N.3   368  MET368     -0.1230
     75  CA       -20.4620   -1.0400   -8.1750 C.3   368  MET368      0.1702
     76  C        -19.1880   -1.5350   -7.5270 C.2   368  MET368      0.2592
     77  O        -18.4530   -2.3220   -8.1250 O.2   368  MET368     -0.2718
     78  CB       -21.5370   -2.0230   -7.6610 C.3   368  MET368      0.0401
     79  CG       -22.9030   -1.7940   -8.1720 C.3   368  MET368      0.0596
     80  SD       -23.9510   -3.1620   -7.6620 S.3   368  MET368     -0.1393
     81  CE       -23.3460   -4.5330   -8.8170 C.3   368  MET368      0.0692
     82  N        -19.0100   -1.1890   -6.2270 N.am  369  GLU369     -0.1966
     83  CA       -17.9310   -1.7120   -5.4030 C.3   369  GLU369      0.1733
     84  C        -18.1760   -3.2100   -5.2510 C.2   369  GLU369      0.2616
     85  O        -19.3320   -3.6480   -5.2140 O.2   369  GLU369     -0.2715
     86  CB       -17.9760   -1.0860   -4.0040 C.3   369  GLU369      0.0429
     87  CG       -17.3770    0.3050   -3.9300 C.3   369  GLU369      0.1163
     88  CD       -17.5810    0.9900   -2.5950 C.2   369  GLU369      0.3649
     89  OE1      -18.5910    0.7050   -1.9090 O.co2 369  GLU369     -0.2457
     90  OE2      -16.7710    1.8870   -2.2790 O.co2 369  GLU369     -0.2457
     91  N        -17.0850   -3.9920   -5.1830 N.am  370  MET370     -0.1963
     92  CA       -17.1150   -5.4390   -5.0020 C.3   370  MET370      0.1736
     93  C        -17.3310   -5.7700   -3.5100 C.2   370  MET370      0.2616
     94  O        -16.6850   -5.1830   -2.6550 O.2   370  MET370     -0.2715
     95  CB       -15.7640   -6.0250   -5.4850 C.3   370  MET370      0.0427
     96  CG       -15.5760   -7.5150   -5.2390 C.3   370  MET370      0.0599
     97  SD       -16.8800   -8.5460   -5.9330 S.3   370  MET370     -0.1393
     98  CE       -16.4000   -8.5790   -7.5550 C.3   370  MET370      0.0692
     99  N        -18.2250   -6.6910   -3.2030 N.am  371  ALA371     -0.1963
    100  CA       -18.4160   -7.1820   -1.8170 C.3   371  ALA371      0.1728
    101  C        -18.3870   -8.7000   -2.0050 C.2   371  ALA371      0.2616
    102  O        -19.4330   -9.3290   -2.1270 O.2   371  ALA371     -0.2715
    103  CB       -19.7610   -6.7100   -1.2610 C.3   371  ALA371      0.0334
    104  N        -17.1620   -9.2560   -2.1700 N.am  372  GLU372     -0.1977
    105  CA       -16.9300  -10.6430   -2.5770 C.3   372  GLU372      0.1602
    106  C        -17.4100  -11.7850   -1.7140 C.2   372  GLU372      0.2287
    107  O        -17.6150  -12.8690   -2.2560 O.2   372  GLU372     -0.2864
    108  CB       -15.5250  -10.8740   -3.1460 C.3   372  GLU372      0.0415
    109  CG       -14.4030  -10.9170   -2.1190 C.3   372  GLU372      0.1163
    110  CD       -13.0520  -10.4750   -2.6500 C.2   372  GLU372      0.3649
    111  OE1      -12.8500  -10.5030   -3.8880 O.co2 372  GLU372     -0.2457
    112  OE2      -12.1910  -10.1000   -1.8190 O.co2 372  GLU372     -0.2457
    113  N        -20.2960  -12.0340   -0.6640 N.3   374  GLY374     -0.1210
    114  CA       -21.6860  -12.1800   -1.0710 C.3   374  GLY374      0.1940
    115  C        -22.7080  -11.8230   -0.0090 C.2   374  GLY374      0.2453
    116  O        -22.3820  -11.1380    0.9610 O.2   374  GLY374     -0.2732
    117  N        -23.9700  -12.3020   -0.1870 N.am  375  PRO375     -0.2728
    118  CA       -25.0560  -11.8910    0.7170 C.3   375  PRO375      0.1401
    119  C        -25.0200  -12.4260    2.1220 C.2   375  PRO375      0.2269
    120  O        -24.6360  -13.5710    2.3770 O.2   375  PRO375     -0.2865
    121  CB       -26.3210  -12.3260   -0.0310 C.3   375  PRO375      0.0296
    122  CG       -25.8660  -13.4590   -0.9020 C.3   375  PRO375      0.0237
    123  CD       -24.4780  -13.1220   -1.3110 C.3   375  PRO375      0.0939
    124  N        -27.0900  -15.9040    2.9910 N.3   378  LYS378     -0.1245
    125  CA       -26.3340  -17.0800    2.5200 C.3   378  LYS378      0.1561
    126  C        -25.0660  -17.2990    3.3610 C.2   378  LYS378      0.2260
    127  O        -24.8190  -18.4290    3.7960 O.2   378  LYS378     -0.2867
    128  CB       -25.9860  -16.9860    1.0190 C.3   378  LYS378      0.0271
    129  CG       -27.1740  -17.2380    0.1050 C.3   378  LYS378      0.0035
    130  CD       -26.7940  -17.1430   -1.3630 C.3   378  LYS378      0.0206
    131  CE       -28.0280  -16.9600   -2.2160 C.3   378  LYS378      0.1093
    132  NZ       -27.7680  -16.0770   -3.3860 N.3   378  LYS378     -0.1314
    133  N        -30.6910  -10.3050    1.6940 N.3   418  ARG418     -0.1231
    134  CA       -30.2000  -10.5680    0.3300 C.3   418  ARG418      0.1694
    135  C        -29.5090   -9.3230   -0.2460 C.2   418  ARG418      0.2592
    136  O        -28.6670   -9.4470   -1.1210 O.2   418  ARG418     -0.2718
    137  CB       -31.3350  -11.0550   -0.6020 C.3   418  ARG418      0.0321
    138  CG       -32.3750   -9.9980   -0.9350 C.3   418  ARG418      0.0489
    139  CD       -33.4580  -10.5510   -1.8460 C.3   418  ARG418      0.2205
    140  NE       -34.4830   -9.5380   -2.1360 N.pl3 418  ARG418     -0.0865
    141  CZ       -35.5380   -9.2750   -1.3590 C.cat 418  ARG418      0.5346
    142  NH1      -35.7170   -9.9330   -0.2200 N.pl3 418  ARG418      0.1354
    143  NH2      -36.4120   -8.3490   -1.7120 N.pl3 418  ARG418      0.1354
    144  N        -29.8910   -8.1290    0.2430 N.am  419  ASN419     -0.1974
    145  CA       -29.3610   -6.8390   -0.1850 C.3   419  ASN419      0.1688
    146  C        -28.3390   -6.2420    0.7870 C.2   419  ASN419      0.2292
    147  O        -28.0990   -5.0360    0.7800 O.2   419  ASN419     -0.2864
    148  CB       -30.5070   -5.8700   -0.5000 C.3   419  ASN419      0.1181
    149  CG       -31.1830   -6.1830   -1.8100 C.2   419  ASN419      0.2629
    150  OD1      -30.5460   -6.6020   -2.7730 O.2   419  ASN419     -0.2716
    151  ND2      -32.4680   -5.9150   -1.9110 N.am  419  ASN419     -0.0877
    152  N        -24.4480   -7.0810    1.5760 N.3   421  LEU421     -0.1245
    153  CA       -23.2980   -7.8300    1.0770 C.3   421  LEU421      0.1561
    154  C        -22.0920   -7.6650    1.9600 C.2   421  LEU421      0.2260
    155  O        -21.8470   -6.5730    2.4650 O.2   421  LEU421     -0.2867
    156  CB       -22.9670   -7.4310   -0.3740 C.3   421  LEU421      0.0270
    157  CG       -24.1290   -7.3930   -1.3930 C.3   421  LEU421      0.0019
    158  CD1      -23.6300   -6.9660   -2.7060 C.3   421  LEU421      0.0001
    159  CD2      -24.8450   -8.7380   -1.5240 C.3   421  LEU421      0.0001
    160  N        -26.6800   -2.9390   -0.5580 N.3   431  SER431     -0.1202
    161  CA       -26.7390   -2.9840   -2.0130 C.3   431  SER431      0.2020
    162  C        -28.1450   -2.7400   -2.5150 C.2   431  SER431      0.2618
    163  O        -29.0980   -2.7940   -1.7400 O.2   431  SER431     -0.2717
    164  CB       -26.2200   -4.3300   -2.5420 C.3   431  SER431      0.2103
    165  OG       -27.0500   -5.4280   -2.2000 O.3   431  SER431     -0.2182
    166  N        -28.2520   -2.4200   -3.8070 N.am  432  ASP432     -0.1973
    167  CA       -29.4990   -2.2380   -4.5750 C.3   432  ASP432      0.1709
    168  C        -30.4930   -1.2380   -4.0440 C.2   432  ASP432      0.2293
    169  O        -31.6980   -1.4050   -4.2420 O.2   432  ASP432     -0.2864
    170  CB       -30.1430   -3.6170   -4.8770 C.3   432  ASP432      0.1436
    171  CG       -29.1480   -4.5700   -5.5450 C.2   432  ASP432      0.3671
    172  OD1      -28.6570   -4.2370   -6.6620 O.co2 432  ASP432     -0.2456
    173  OD2      -28.7730   -5.5970   -4.9030 O.co2 432  ASP432     -0.2456
    174  N        -43.7910   -8.4040   -9.0290 N.3   445  TYR445     -0.1241
    175  CA       -42.5530   -8.4480   -8.2450 C.3   445  TYR445      0.1605
    176  C        -42.9080   -8.2430   -6.7620 C.2   445  TYR445      0.2264
    177  O        -42.5310   -9.0680   -5.9280 O.2   445  TYR445     -0.2867
    178  CB       -41.5290   -7.3900   -8.7150 C.3   445  TYR445      0.0534
    179  CG       -40.3520   -7.2190   -7.7740 C.ar  445  TYR445     -0.0201
    180  CD1      -39.3960   -8.2190   -7.6330 C.ar  445  TYR445     -0.0009
    181  CD2      -40.2140   -6.0710   -6.9980 C.ar  445  TYR445     -0.0009
    182  CE1      -38.3110   -8.0700   -6.7680 C.ar  445  TYR445      0.0417
    183  CE2      -39.1380   -5.9130   -6.1210 C.ar  445  TYR445      0.0417
    184  CZ       -38.1880   -6.9170   -6.0090 C.ar  445  TYR445      0.1957
    185  OH       -37.1160   -6.7800   -5.1580 O.3   445  TYR445     -0.2866
    186  N        -37.7070  -15.8500   -7.7770 N.3   451  HIS451     -0.1241
    187  CA       -36.4090  -16.4710   -7.4210 C.3   451  HIS451      0.1621
    188  C        -36.4510  -17.2210   -6.0710 C.2   451  HIS451      0.2264
    189  O        -35.4090  -17.4060   -5.4350 O.2   451  HIS451     -0.2867
    190  CB       -35.2200  -15.4660   -7.4680 C.3   451  HIS451      0.0745
    191  CG       -34.8260  -14.9930   -8.8370 C.ar  451  HIS451      0.0817
    192  ND1      -33.5710  -15.2650   -9.3610 N.ar  451  HIS451     -0.2268
    193  CD2      -35.5210  -14.2510   -9.7340 C.ar  451  HIS451      0.1154
    194  CE1      -33.5530  -14.7000  -10.5580 C.ar  451  HIS451      0.1986
    195  NE2      -34.7040  -14.0780  -10.8250 N.ar  451  HIS451     -0.2212
    196  N        -38.1300  -16.1560   -3.4030 N.3   453  LYS453     -0.1245
    197  CA       -38.3570  -15.1460   -2.3610 C.3   453  LYS453      0.1561
    198  C        -39.6320  -14.3190   -2.5890 C.2   453  LYS453      0.2260
    199  O        -39.9770  -14.0310   -3.7370 O.2   453  LYS453     -0.2867
    200  CB       -37.1220  -14.2340   -2.1800 C.3   453  LYS453      0.0271
    201  CG       -36.5650  -13.6450   -3.4780 C.3   453  LYS453      0.0035
    202  CD       -36.4190  -12.1270   -3.4200 C.3   453  LYS453      0.0206
    203  CE       -36.5340  -11.4160   -4.7550 C.3   453  LYS453      0.1093
    204  NZ       -35.7050  -12.0480   -5.8210 N.3   453  LYS453     -0.1314
@<TRIPOS>BOND
     1    61    60    2
     2    60    59    1
     3    43    44    1
     4    43    42    1
     5    34    33    2
     6    44    45    2
     7    33    42   am
     8    33    32    1
     9    59    58    1
    10    59    62    1
    11    26    25    2
    12    46    47    1
    13    48    49    2
    14    48    47    1
    15    32    31    1
    16    32    35    1
    17    17    18    1
    18    17    14    1
    19    63    62    1
    20    63    64    1
    21    47    50    1
    22    22    21    2
    23    25    31   am
    24    25    24    1
    25    12    11    2
    26    35    36    1
    27     1     2    1
    28   195   194   ar
    29   195   193   ar
    30    64    65    1
    31    37    36   ar
    32    37    39   ar
    33    14    13    1
    34    14    15    1
    35   194   192   ar
    36    24    23    1
    37    24    27    1
    38    29    28    2
    39    30    28   am
    40    55    56    2
    41    55    54    1
    42    21    23   am
    43    21    20    1
    44    28    27    1
    45    11    13   am
    46    11    10    1
    47    50    52    1
    48    50    51    1
    49    36    38   ar
    50    19    15   am
    51    19    20    1
    52    39    41   ar
    53   193   191   ar
    54    15    16    2
    55    74    75    1
    56     9    10    1
    57     9     3   am
    58     2     5    1
    59     2     3    1
    60    54    53    1
    61    54    57    1
    62   192   191   ar
    63    65    66    1
    64   174   175    1
    65     5     6    1
    66     7     6    1
    67     3     4    2
    68   191   190    1
    69    81    80    1
    70    38    40   ar
    71   178   175    1
    72   178   179    1
    73     8     6    1
    74    41    40   ar
    75   175   176    1
    76    75    78    1
    77    75    76    1
    78    79    80    1
    79    79    78    1
    80    77    76    2
    81   186   187    1
    82   179   180   ar
    83   179   181   ar
    84   180   182   ar
    85    98    97    1
    86    76    82   am
    87   190   187    1
    88   187   188    1
    89   181   183   ar
    90   182   184   ar
    91   176   177    2
    92   172   171   ar
    93    82    83    1
    94   183   184   ar
    95   188   189    2
    96   184   185    1
    97    97    96    1
    98   204   203    1
    99   171   173   ar
   100   171   170    1
   101    95    96    1
   102    95    92    1
   103    83    84    1
   104    83    86    1
   105    84    85    2
   106    84    91   am
   107    91    92    1
   108    92    93    1
   109   170   167    1
   110   203   202    1
   111   167   168    1
   112   167   166    1
   113   169   168    2
   114    72    71    1
   115    86    87    1
   116    87    88    1
   117   111   110   ar
   118   166   162   am
   119   199   198    2
   120    93    99   am
   121    93    94    2
   122   201   202    1
   123   201   200    1
   124   196   197    1
   125    70    69    2
   126   132   131    1
   127    99   100    1
   128   108   105    1
   129   108   109    1
   130    69    68    1
   131   150   149    2
   132    71    68    1
   133    71    73    1
   134   158   157    1
   135   110   109    1
   136   110   112   ar
   137    88    90   ar
   138    88    89   ar
   139   198   197    1
   140   105   104    1
   141   105   106    1
   142   164   165    1
   143   164   161    1
   144   162   161    1
   145   162   163    2
   146   197   200    1
   147   107   106    2
   148   131   130    1
   149   104   101   am
   150   140   139    1
   151   140   141    2
   152   102   101    2
   153   161   160    1
   154   101   100    1
   155    68    67    1
   156   151   149   am
   157   139   138    1
   158   100   103    1
   159   149   148    1
   160   143   141    1
   161   159   157    1
   162   157   156    1
   163   130   129    1
   164   141   142    1
   165   123   122    1
   166   123   117    1
   167   136   135    2
   168   114   113    1
   169   114   115    1
   170   138   137    1
   171   122   121    1
   172   137   134    1
   173   148   145    1
   174   156   153    1
   175   135   144   am
   176   135   134    1
   177   117   115   am
   178   117   118    1
   179   145   144    1
   180   145   146    1
   181   121   118    1
   182   115   116    2
   183   129   128    1
   184   134   133    1
   185   118   119    1
   186   147   146    2
   187   128   125    1
   188   153   152    1
   189   153   154    1
   190   154   155    2
   191   119   120    2
   192   125   124    1
   193   125   126    1
   194   126   127    2
