@<TRIPOS>MOLECULE
tmp/4fl5B00.pdb
 169 161 0 0 0
SMALL
GASTEIGER

@<TRIPOS>ATOM
      1  N        -35.0140  -16.4750   19.9070 N.3    53  LYS53      -0.1245
      2  CA       -34.0310  -17.3520   20.5790 C.3    53  LYS53       0.1561
      3  C        -34.1970  -18.7850   20.1210 C.2    53  LYS53       0.2260
      4  O        -33.2260  -19.4760   19.8740 O.2    53  LYS53      -0.2867
      5  CB       -34.1820  -17.2470   22.1190 C.3    53  LYS53       0.0271
      6  CG       -33.2390  -18.2290   22.9080 C.3    53  LYS53       0.0035
      7  CD       -31.7770  -17.6810   22.8950 C.3    53  LYS53       0.0206
      8  CE       -30.7170  -18.5400   23.6880 C.3    53  LYS53       0.1093
      9  NZ       -30.9510  -18.6020   25.2050 N.3    53  LYS53      -0.1314
     10  N        -27.8430  -22.0750   15.4650 N.3    60  ARG60      -0.1245
     11  CA       -26.5470  -22.3180   16.1590 C.3    60  ARG60       0.1563
     12  C        -26.2490  -23.8030   16.4150 C.2    60  ARG60       0.2260
     13  O        -25.1320  -24.2580   16.2570 O.2    60  ARG60      -0.2867
     14  CB       -26.4630  -21.5740   17.4910 C.3    60  ARG60       0.0307
     15  CG       -26.3920  -20.0290   17.3090 C.3    60  ARG60       0.0489
     16  CD       -26.6730  -19.3710   18.7050 C.3    60  ARG60       0.2205
     17  NE       -25.4990  -19.3210   19.6160 N.pl3  60  ARG60      -0.0865
     18  CZ       -25.5940  -19.3380   20.9660 C.cat  60  ARG60       0.5346
     19  NH1      -26.7810  -19.4960   21.5740 N.pl3  60  ARG60       0.1354
     20  NH2      -24.5120  -19.2350   21.7210 N.pl3  60  ARG60       0.1354
     21  N        -29.1350   -5.7640   26.1920 N.3   119  LYS119     -0.1245
     22  CA       -28.6160   -7.1170   26.3940 C.3   119  LYS119      0.1561
     23  C        -28.8860   -7.9980   25.1680 C.2   119  LYS119      0.2260
     24  O        -27.9950   -8.7260   24.7150 O.2   119  LYS119     -0.2867
     25  CB       -29.3010   -7.7670   27.6030 C.3   119  LYS119      0.0271
     26  CG       -28.8160   -9.1930   27.8800 C.3   119  LYS119      0.0035
     27  CD       -29.7410   -9.7840   28.9900 C.3   119  LYS119      0.0206
     28  CE       -29.7890  -11.3150   29.0100 C.3   119  LYS119      0.1093
     29  NZ       -30.3030  -11.8340   27.6420 N.3   119  LYS119     -0.1314
     30  N        -23.0330  -11.1870   19.7270 N.3   126  ARG126     -0.1231
     31  CA       -22.2500  -12.3310   20.1850 C.3   126  ARG126      0.1694
     32  C        -22.4490  -13.5740   19.2930 C.2   126  ARG126      0.2592
     33  O        -21.4670  -14.2480   18.9650 O.2   126  ARG126     -0.2718
     34  CB       -22.5780  -12.6950   21.6400 C.3   126  ARG126      0.0321
     35  CG       -21.8560  -14.0070   22.1220 C.3   126  ARG126      0.0489
     36  CD       -21.7160  -13.9890   23.6380 C.3   126  ARG126      0.2205
     37  NE       -23.0090  -13.8150   24.2980 N.pl3 126  ARG126     -0.0865
     38  CZ       -23.8560  -14.8030   24.5300 C.cat 126  ARG126      0.5346
     39  NH1      -23.4930  -16.0440   24.2060 N.pl3 126  ARG126      0.1354
     40  NH2      -25.0510  -14.5570   25.0960 N.pl3 126  ARG126      0.1354
     41  N        -23.6940  -13.8680   18.9190 N.am  127  TYR127     -0.1976
     42  CA       -23.9730  -15.0110   18.0170 C.3   127  TYR127      0.1639
     43  C        -23.2640  -14.7810   16.6740 C.2   127  TYR127      0.2290
     44  O        -22.7730  -15.7040   16.1010 O.2   127  TYR127     -0.2864
     45  CB       -25.4760  -15.2800   17.8070 C.3   127  TYR127      0.0560
     46  CG       -26.2150  -15.4040   19.1490 C.ar  127  TYR127     -0.0198
     47  CD1      -25.5760  -15.9650   20.2900 C.ar  127  TYR127     -0.0009
     48  CD2      -27.5250  -14.9660   19.2900 C.ar  127  TYR127     -0.0009
     49  CE1      -26.2450  -16.0130   21.5160 C.ar  127  TYR127      0.0417
     50  CE2      -28.1910  -15.0350   20.5180 C.ar  127  TYR127      0.0417
     51  CZ       -27.5710  -15.5680   21.6160 C.ar  127  TYR127      0.1957
     52  OH       -28.2720  -15.6220   22.8550 O.3   127  TYR127     -0.2866
     53  N        -32.9290   -9.9710   38.7540 N.3   164  PRO164     -0.2116
     54  CA       -32.5770  -11.0560   37.8250 C.3   164  PRO164      0.1372
     55  C        -32.1610  -10.5530   36.4240 C.2   164  PRO164      0.2244
     56  O        -31.3150  -11.1770   35.7630 O.2   164  PRO164     -0.2868
     57  CB       -33.8590  -11.9090   37.7930 C.3   164  PRO164      0.0268
     58  CG       -34.4120  -11.7230   39.2230 C.3   164  PRO164      0.0207
     59  CD       -34.2680  -10.1830   39.3570 C.3   164  PRO164      0.0892
     60  N        -28.6930  -11.5590   34.9530 N.3   168  GLY168     -0.1225
     61  CA       -28.5900  -12.2690   33.6580 C.3   168  GLY168      0.1811
     62  C        -27.7270  -11.5300   32.6550 C.2   168  GLY168      0.2280
     63  O        -26.9870  -12.1490   31.8540 O.2   168  GLY168     -0.2866
     64  N        -24.1830  -12.1390   33.5890 N.3   171  LEU171     -0.1231
     65  CA       -23.8180  -13.5000   33.2570 C.3   171  LEU171      0.1693
     66  C        -23.4240  -13.5530   31.7660 C.2   171  LEU171      0.2592
     67  O        -22.3170  -13.9860   31.3800 O.2   171  LEU171     -0.2718
     68  CB       -24.9880  -14.4390   33.5950 C.3   171  LEU171      0.0284
     69  CG       -24.7740  -15.8540   33.0160 C.3   171  LEU171      0.0019
     70  CD1      -23.6500  -16.5280   33.7590 C.3   171  LEU171      0.0001
     71  CD2      -26.0720  -16.6300   33.1040 C.3   171  LEU171      0.0001
     72  N        -24.2970  -13.0360   30.9150 N.am  172  ASN172     -0.1974
     73  CA       -23.9860  -13.1080   29.4670 C.3   172  ASN172      0.1688
     74  C        -22.7970  -12.2700   29.0580 C.2   172  ASN172      0.2292
     75  O        -22.0340  -12.6550   28.1840 O.2   172  ASN172     -0.2864
     76  CB       -25.2160  -12.6510   28.6580 C.3   172  ASN172      0.1181
     77  CG       -26.2790  -13.7400   28.5540 C.2   172  ASN172      0.2629
     78  OD1      -26.2310  -14.7510   29.2740 O.2   172  ASN172     -0.2716
     79  ND2      -27.2410  -13.5590   27.6160 N.am  172  ASN172     -0.0877
     80  N        -19.6920  -14.1020   29.9810 N.3   175  VAL175     -0.1245
     81  CA       -19.4820  -15.2360   29.0230 C.3   175  VAL175      0.1561
     82  C        -18.8740  -14.6870   27.7470 C.2   175  VAL175      0.2260
     83  O        -18.0070  -15.3190   27.1180 O.2   175  VAL175     -0.2867
     84  CB       -20.8450  -15.9400   28.6390 C.3   175  VAL175      0.0252
     85  CG1      -20.6920  -16.8250   27.3410 C.3   175  VAL175      0.0019
     86  CG2      -21.2770  -16.8350   29.7340 C.3   175  VAL175      0.0019
     87  N        -15.1980  -14.0800   28.2370 N.3   178  TYR178     -0.1227
     88  CA       -14.3850  -15.3050   28.2950 C.3   178  TYR178      0.1736
     89  C        -14.3390  -16.0430   26.9190 C.2   178  TYR178      0.2595
     90  O        -13.2750  -16.3910   26.4610 O.2   178  TYR178     -0.2718
     91  CB       -14.9450  -16.2910   29.3220 C.3   178  TYR178      0.0548
     92  CG       -13.9490  -17.3760   29.6070 C.ar  178  TYR178     -0.0200
     93  CD1      -13.9600  -18.6000   28.8830 C.ar  178  TYR178     -0.0009
     94  CD2      -12.9650  -17.1770   30.5970 C.ar  178  TYR178     -0.0009
     95  CE1      -12.9880  -19.5980   29.1650 C.ar  178  TYR178      0.0417
     96  CE2      -12.0050  -18.1500   30.8600 C.ar  178  TYR178      0.0417
     97  CZ       -12.0170  -19.3280   30.1420 C.ar  178  TYR178      0.1957
     98  OH       -11.0450  -20.2430   30.4740 O.3   178  TYR178     -0.2866
     99  N        -15.5100  -16.2470   26.3180 N.am  179  GLU179     -0.1979
    100  CA       -15.6320  -17.1140   25.1690 C.3   179  GLU179      0.1602
    101  C        -15.3700  -16.3840   23.8630 C.2   179  GLU179      0.2287
    102  O        -14.8810  -16.9730   22.9240 O.2   179  GLU179     -0.2864
    103  CB       -17.0160  -17.7220   25.1680 C.3   179  GLU179      0.0415
    104  CG       -17.1580  -18.7260   26.2380 C.3   179  GLU179      0.1163
    105  CD       -16.3040  -19.9300   25.9060 C.2   179  GLU179      0.3649
    106  OE1      -16.2170  -20.8520   26.7430 O.co2 179  GLU179     -0.2457
    107  OE2      -15.7060  -19.9270   24.7970 O.co2 179  GLU179     -0.2457
    108  N        -30.4960  -18.5590   41.9140 N.3   215  LEU215     -0.1231
    109  CA       -30.4530  -19.3630   40.6860 C.3   215  LEU215      0.1693
    110  C        -29.4260  -18.8410   39.7120 C.2   215  LEU215      0.2591
    111  O        -28.5590  -19.5960   39.1880 O.2   215  LEU215     -0.2718
    112  CB       -31.8460  -19.4190   39.9960 C.3   215  LEU215      0.0284
    113  CG       -31.8640  -20.4230   38.8260 C.3   215  LEU215      0.0019
    114  CD1      -33.2510  -21.0370   38.5380 C.3   215  LEU215      0.0001
    115  CD2      -31.2160  -19.8600   37.5260 C.3   215  LEU215      0.0001
    116  N        -29.4930  -17.5470   39.4380 N.am  216  ILE216     -0.1980
    117  CA       -28.5900  -16.9580   38.4350 C.3   216  ILE216      0.1595
    118  C        -27.1870  -16.7530   39.0290 C.2   216  ILE216      0.2287
    119  O        -26.1900  -16.8790   38.3370 O.2   216  ILE216     -0.2864
    120  CB       -29.1750  -15.6150   37.9120 C.3   216  ILE216      0.0276
    121  CG1      -30.6020  -15.8220   37.3750 C.3   216  ILE216      0.0022
    122  CG2      -28.2010  -14.9720   36.9130 C.3   216  ILE216      0.0022
    123  CD1      -31.3170  -14.5100   37.0840 C.3   216  ILE216      0.0001
    124  N        -25.4340  -19.8250   38.2790 N.3   219  LEU219     -0.1245
    125  CA       -24.9300  -19.8290   36.8940 C.3   219  LEU219      0.1561
    126  C        -23.6230  -19.0370   36.7700 C.2   219  LEU219      0.2260
    127  O        -22.7270  -19.4970   36.0880 O.2   219  LEU219     -0.2867
    128  CB       -26.0130  -19.2990   35.8990 C.3   219  LEU219      0.0270
    129  CG       -27.3270  -20.0620   35.8540 C.3   219  LEU219      0.0019
    130  CD1      -28.2620  -19.3020   34.9070 C.3   219  LEU219      0.0001
    131  CD2      -27.1510  -21.6030   35.4020 C.3   219  LEU219      0.0001
    132  N        -21.0920  -21.3490   38.3550 N.3   222  ASP222     -0.1225
    133  CA       -20.6380  -22.5250   37.5860 C.3   222  ASP222      0.1805
    134  C        -19.5550  -22.0660   36.5980 C.2   222  ASP222      0.2597
    135  O        -18.6120  -22.8310   36.3100 O.2   222  ASP222     -0.2718
    136  CB       -21.7550  -23.1240   36.7230 C.3   222  ASP222      0.1424
    137  CG       -22.8990  -23.7430   37.5160 C.2   222  ASP222      0.3668
    138  OD1      -22.7240  -24.2450   38.6110 O.co2 222  ASP222     -0.2456
    139  OD2      -24.0250  -23.7200   36.9930 O.co2 222  ASP222     -0.2456
    140  N        -19.6980  -20.8450   36.0500 N.am  223  ASN223     -0.1974
    141  CA       -18.7070  -20.2560   35.1360 C.3   223  ASN223      0.1688
    142  C        -17.4040  -19.8880   35.8280 C.2   223  ASN223      0.2292
    143  O        -16.3090  -20.2400   35.3080 O.2   223  ASN223     -0.2864
    144  CB       -19.2790  -18.9990   34.3860 C.3   223  ASN223      0.1181
    145  CG       -20.2620  -19.3920   33.3050 C.2   223  ASN223      0.2629
    146  OD1      -20.2560  -20.5190   32.8600 O.2   223  ASN223     -0.2716
    147  ND2      -21.1450  -18.5000   32.9450 N.am  223  ASN223     -0.0877
    148  N        -15.5190  -23.0370   36.1560 N.3   226  LEU226     -0.1231
    149  CA       -14.9460  -23.4710   34.8850 C.3   226  LEU226      0.1693
    150  C        -13.7150  -22.6390   34.5230 C.2   226  LEU226      0.2592
    151  O        -12.7300  -23.1690   33.9720 O.2   226  LEU226     -0.2718
    152  CB       -16.0120  -23.3590   33.7960 C.3   226  LEU226      0.0284
    153  CG       -16.0890  -24.2840   32.5950 C.3   226  LEU226      0.0019
    154  CD1      -15.7120  -25.7130   32.9690 C.3   226  LEU226      0.0001
    155  CD2      -17.5530  -24.2090   32.1250 C.3   226  LEU226      0.0001
    156  N        -13.7050  -21.3590   34.9070 N.am  227  TRP227     -0.1976
    157  CA       -12.6600  -20.4080   34.4820 C.3   227  TRP227      0.1640
    158  C        -11.5050  -20.1910   35.4230 C.2   227  TRP227      0.2290
    159  O        -10.5920  -19.4510   35.1080 O.2   227  TRP227     -0.2864
    160  CB       -13.2830  -19.0090   34.2800 C.3   227  TRP227      0.0576
    161  CG       -14.3970  -18.9510   33.3170 C.ar  227  TRP227      0.0006
    162  CD1      -14.6960  -19.8400   32.3070 C.ar  227  TRP227      0.0946
    163  CD2      -15.3950  -17.9460   33.2690 C.ar  227  TRP227      0.0152
    164  NE1      -15.8110  -19.4200   31.6060 N.ar  227  TRP227     -0.2442
    165  CE2      -16.2580  -18.2560   32.1780 C.ar  227  TRP227      0.0810
    166  CE3      -15.6440  -16.7980   34.0310 C.ar  227  TRP227      0.0012
    167  CZ2      -17.3610  -17.4730   31.8560 C.ar  227  TRP227      0.0191
    168  CZ3      -16.7110  -15.9970   33.6760 C.ar  227  TRP227      0.0001
    169  CH2      -17.5590  -16.3400   32.6100 C.ar  227  TRP227      0.0015
@<TRIPOS>BOND
     1    10    11    1
     2    44    43    2
     3    11    12    1
     4    11    14    1
     5    13    12    2
     6    43    42    1
     7    15    14    1
     8    15    16    1
     9    45    42    1
    10    45    46    1
    11    42    41    1
    12    16    17    1
    13    41    32   am
    14    33    32    2
    15    46    48   ar
    16    46    47   ar
    17    48    50   ar
    18    32    31    1
    19    17    18    2
    20    30    31    1
    21     4     3    2
    22     1     2    1
    23     3     2    1
    24    31    34    1
    25    47    49   ar
    26    50    51   ar
    27     2     5    1
    28    18    19    1
    29    18    20    1
    30    49    51   ar
    31    51    52    1
    32    34    35    1
    33     5     6    1
    34    35    36    1
    35     7     6    1
    36     7     8    1
    37   102   101    2
    38    36    37    1
    39     8     9    1
    40   101   100    1
    41    39    38    1
    42    37    38    2
    43    38    40    1
    44    24    23    2
    45   107   105   ar
    46   103   100    1
    47   103   104    1
    48    23    22    1
    49   100    99    1
    50   105   104    1
    51   105   106   ar
    52    21    22    1
    53    99    89   am
    54    22    25    1
    55    90    89    2
    56    89    88    1
    57    83    82    2
    58    85    84    1
    59    25    26    1
    60    79    77   am
    61    29    28    1
    62    82    81    1
    63    26    27    1
    64    75    74    2
    65    87    88    1
    66    88    91    1
    67    77    76    1
    68    77    78    2
    69    84    81    1
    70    84    86    1
    71    76    73    1
    72    93    95   ar
    73    93    92   ar
    74    27    28    1
    75    81    80    1
    76    74    73    1
    77    95    97   ar
    78    91    92    1
    79    73    72    1
    80    92    94   ar
    81    97    98    1
    82    97    96   ar
    83    94    96   ar
    84    72    66   am
    85    67    66    2
    86   164   165   ar
    87   164   162   ar
    88    66    65    1
    89    63    62    2
    90   167   165   ar
    91   167   169   ar
    92   155   153    1
    93   165   163   ar
    94   162   161   ar
    95   153   154    1
    96   153   152    1
    97   169   168   ar
    98    62    61    1
    99   146   145    2
   100   147   145   am
   101    69    71    1
   102    69    68    1
   103    69    70    1
   104    65    64    1
   105    65    68    1
   106   163   161   ar
   107   163   166   ar
   108   145   144    1
   109   161   160    1
   110    61    60    1
   111   168   166   ar
   112   152   149    1
   113   151   150    2
   114   160   157    1
   115   144   141    1
   116   157   156    1
   117   157   158    1
   118   150   149    1
   119   150   156   am
   120   149   148    1
   121   130   129    1
   122   159   158    2
   123   141   142    1
   124   141   140    1
   125   143   142    2
   126   131   129    1
   127    56    55    2
   128   129   128    1
   129   128   125    1
   130   140   134   am
   131   127   126    2
   132   135   134    2
   133    55    54    1
   134   134   133    1
   135   136   137    1
   136   136   133    1
   137   126   125    1
   138   125   124    1
   139   122   120    1
   140   139   137   ar
   141   123   121    1
   142   121   120    1
   143   137   138   ar
   144   115   113    1
   145   133   132    1
   146    57    54    1
   147    57    58    1
   148    54    53    1
   149   120   117    1
   150   119   118    2
   151   117   118    1
   152   117   116    1
   153   114   113    1
   154    53    59    1
   155   113   112    1
   156   111   110    2
   157    58    59    1
   158   116   110   am
   159   110   109    1
   160   112   109    1
   161   109   108    1
