@<TRIPOS>MOLECULE
tmp/4fl6B00.pdb
 114 110 0 0 0
SMALL
GASTEIGER

@<TRIPOS>ATOM
      1  N         25.1080  -10.4610   57.8250 N.3    44  ASP44      -0.1239
      2  CA        24.9970  -10.7690   56.3990 C.3    44  ASP44       0.1674
      3  C         24.7370  -12.3200   56.3170 C.2    44  ASP44       0.2266
      4  O         25.5610  -13.1040   56.8020 O.2    44  ASP44      -0.2867
      5  CB        26.2700  -10.3610   55.6320 C.3    44  ASP44       0.1410
      6  CG        26.3190  -10.7040   54.1400 C.2    44  ASP44       0.3668
      7  OD1       25.3560  -11.3220   53.6200 O.co2  44  ASP44      -0.2456
      8  OD2       27.2960  -10.3410   53.4940 O.co2  44  ASP44      -0.2456
      9  N         25.0680  -14.4440   53.9440 N.3    46  GLU46      -0.1231
     10  CA        26.0480  -15.1550   53.1120 C.3    46  GLU46       0.1699
     11  C         27.4850  -15.0400   53.6610 C.2    46  GLU46       0.2592
     12  O         28.3660  -15.7580   53.1960 O.2    46  GLU46      -0.2718
     13  CB        25.9510  -14.6860   51.6520 C.3    46  GLU46       0.0402
     14  CG        24.6950  -15.2690   50.9140 C.3    46  GLU46       0.1161
     15  CD        23.3790  -14.8170   51.4480 C.2    46  GLU46       0.3649
     16  OE1       23.2540  -13.5730   51.5250 O.co2  46  GLU46      -0.2457
     17  OE2       22.4650  -15.5660   51.7970 O.co2  46  GLU46      -0.2457
     18  N         27.7030  -14.1640   54.6810 N.am   47  HIS47      -0.1976
     19  CA        28.9630  -13.8870   55.4060 C.3    47  HIS47       0.1656
     20  C         28.5530  -13.6250   56.8450 C.2    47  HIS47       0.2291
     21  O         28.5030  -12.4890   57.3020 O.2    47  HIS47      -0.2864
     22  CB        29.6920  -12.6860   54.7660 C.3    47  HIS47       0.0771
     23  CG        29.9120  -12.8780   53.2960 C.ar   47  HIS47       0.0820
     24  ND1       28.9650  -12.4700   52.3640 N.ar   47  HIS47      -0.2267
     25  CD2       30.8960  -13.5490   52.6540 C.ar   47  HIS47       0.1154
     26  CE1       29.4300  -12.8540   51.1890 C.ar   47  HIS47       0.1986
     27  NE2       30.5950  -13.4960   51.3090 N.ar   47  HIS47      -0.2212
     28  N         29.7220  -13.8250   59.7310 N.3    49  SER49      -0.1202
     29  CA        30.6290  -13.2610   60.7350 C.3    49  SER49       0.2020
     30  C         30.5980  -11.7130   60.6710 C.2    49  SER49       0.2618
     31  O         31.1430  -11.0330   61.5580 O.2    49  SER49      -0.2717
     32  CB        32.0610  -13.7530   60.5080 C.3    49  SER49       0.2103
     33  OG        32.6150  -13.2660   59.2930 O.3    49  SER49      -0.2182
     34  N         29.9590  -11.1750   59.6120 N.am   50  VAL50      -0.1979
     35  CA        29.9050   -9.7440   59.3040 C.3    50  VAL50       0.1595
     36  C         28.5500   -9.1500   59.7240 C.2    50  VAL50       0.2287
     37  O         27.4980   -9.7670   59.4850 O.2    50  VAL50      -0.2864
     38  CB        30.2150   -9.4930   57.7850 C.3    50  VAL50       0.0276
     39  CG1       30.5030   -8.0230   57.4970 C.3    50  VAL50       0.0022
     40  CG2       31.3730  -10.3510   57.2910 C.3    50  VAL50       0.0022
     41  N         26.1390   -5.7550   59.3590 N.3    52  CYS52      -0.1235
     42  CA        25.9700   -4.7240   58.3600 C.3    52  CYS52       0.1677
     43  C         24.9160   -3.6570   58.6730 C.2    52  CYS52       0.2270
     44  O         23.9580   -3.8760   59.4200 O.2    52  CYS52      -0.2867
     45  CB        25.6990   -5.3850   57.0120 C.3    52  CYS52       0.0956
     46  SG        27.0440   -6.4550   56.4280 S.3    52  CYS52      -0.0801
     47  N         21.3780   -3.8530   51.8730 N.3    68  PHE68      -0.1241
     48  CA        22.7550   -3.5590   52.3020 C.3    68  PHE68       0.1605
     49  C         23.0650   -2.1950   51.6670 C.2    68  PHE68       0.2264
     50  O         23.1700   -2.1080   50.4410 O.2    68  PHE68      -0.2867
     51  CB        23.7740   -4.6320   51.8320 C.3    68  PHE68       0.0534
     52  CG        23.6900   -5.9840   52.5090 C.ar   68  PHE68      -0.0203
     53  CD1       24.2650   -6.1940   53.7590 C.ar   68  PHE68      -0.0042
     54  CD2       23.0360   -7.0490   51.8960 C.ar   68  PHE68      -0.0042
     55  CE1       24.1430   -7.4270   54.4060 C.ar   68  PHE68      -0.0003
     56  CE2       22.9120   -8.2820   52.5460 C.ar   68  PHE68      -0.0003
     57  CZ        23.4740   -8.4650   53.7910 C.ar   68  PHE68      -0.0000
     58  N         25.4600   -1.0190   48.5550 N.3    71  TYR71      -0.1241
     59  CA        25.6080   -2.2220   47.7270 C.3    71  TYR71       0.1605
     60  C         24.3490   -2.4380   46.8680 C.2    71  TYR71       0.2264
     61  O         23.3030   -1.8390   47.1450 O.2    71  TYR71      -0.2867
     62  CB        25.8980   -3.4440   48.6030 C.3    71  TYR71       0.0534
     63  CG        27.1840   -3.3290   49.3880 C.ar   71  TYR71      -0.0201
     64  CD1       28.4090   -3.6520   48.8110 C.ar   71  TYR71      -0.0009
     65  CD2       27.1760   -2.9180   50.7170 C.ar   71  TYR71      -0.0009
     66  CE1       29.5950   -3.5800   49.5420 C.ar   71  TYR71       0.0417
     67  CE2       28.3540   -2.8390   51.4580 C.ar   71  TYR71       0.0417
     68  CZ        29.5630   -3.1670   50.8670 C.ar   71  TYR71       0.1957
     69  OH        30.7220   -3.0770   51.6050 O.3    71  TYR71      -0.2866
     70  N         21.4420   -8.0710   46.4310 N.3    75  TYR75      -0.1241
     71  CA        21.8300   -8.7260   47.6780 C.3    75  TYR75       0.1605
     72  C         20.7640   -8.5770   48.7610 C.2    75  TYR75       0.2264
     73  O         20.9620   -9.0940   49.8520 O.2    75  TYR75      -0.2867
     74  CB        23.1860   -8.2010   48.1860 C.3    75  TYR75       0.0534
     75  CG        24.3350   -8.4370   47.2330 C.ar   75  TYR75      -0.0201
     76  CD1       24.8660   -9.7140   47.0520 C.ar   75  TYR75      -0.0009
     77  CD2       24.9320   -7.3770   46.5550 C.ar   75  TYR75      -0.0009
     78  CE1       25.9440   -9.9360   46.1950 C.ar   75  TYR75       0.0417
     79  CE2       26.0050   -7.5870   45.6840 C.ar   75  TYR75       0.0417
     80  CZ        26.5140   -8.8690   45.5140 C.ar   75  TYR75       0.1957
     81  OH        27.5830   -9.0860   44.6670 O.3    75  TYR75      -0.2866
     82  N         30.3310   -3.4640   59.7070 N.3   100  HIS100     -0.1241
     83  CA        30.8310   -3.1370   58.3810 C.3   100  HIS100      0.1621
     84  C         29.9780   -1.9600   57.8720 C.2   100  HIS100      0.2264
     85  O         28.7410   -2.0810   57.8140 O.2   100  HIS100     -0.2867
     86  CB        30.7590   -4.3530   57.4460 C.3   100  HIS100      0.0745
     87  CG        31.4150   -4.1050   56.1230 C.ar  100  HIS100      0.0817
     88  ND1       32.7640   -4.3540   55.9270 N.ar  100  HIS100     -0.2268
     89  CD2       30.8920   -3.6070   54.9800 C.ar  100  HIS100      0.1154
     90  CE1       33.0160   -3.9930   54.6820 C.ar  100  HIS100      0.1986
     91  NE2       31.9230   -3.5280   54.0760 N.ar  100  HIS100     -0.2212
     92  N         38.1080  -19.8820   55.1480 N.3   172  ASP172     -0.1225
     93  CA        37.5350  -18.5410   55.0640 C.3   172  ASP172      0.1805
     94  C         36.2240  -18.4810   55.8710 C.2   172  ASP172      0.2598
     95  O         35.6200  -19.5000   56.2070 O.2   172  ASP172     -0.2718
     96  CB        37.4140  -18.0200   53.6100 C.3   172  ASP172      0.1424
     97  CG        36.2680  -18.5020   52.7400 C.2   172  ASP172      0.3668
     98  OD1       35.1230  -18.1450   53.0350 O.co2 172  ASP172     -0.2456
     99  OD2       36.5410  -19.0660   51.6460 O.co2 172  ASP172     -0.2456
    100  N         35.8310  -17.2740   56.2150 N.am  173  GLU173     -0.1965
    101  CA        34.6960  -16.9900   57.0580 C.3   173  GLU173      0.1733
    102  C         33.3540  -17.1370   56.3420 C.2   173  GLU173      0.2617
    103  O         32.3240  -17.1100   57.0020 O.2   173  GLU173     -0.2715
    104  CB        34.8880  -15.5940   57.6510 C.3   173  GLU173      0.0429
    105  CG        36.1100  -15.5480   58.5640 C.3   173  GLU173      0.1163
    106  CD        36.1980  -14.4120   59.5640 C.2   173  GLU173      0.3649
    107  OE1       35.2540  -13.5920   59.6250 O.co2 173  GLU173     -0.2457
    108  OE2       37.2000  -14.3680   60.3160 O.co2 173  GLU173     -0.2457
    109  N         33.3350  -17.3330   55.0130 N.am  174  SER174     -0.1950
    110  CA        32.0550  -17.4910   54.3220 C.3   174  SER174      0.1924
    111  C         31.4160  -18.8490   54.6400 C.2   174  SER174      0.2314
    112  O         30.2710  -19.1040   54.2590 O.2   174  SER174     -0.2863
    113  CB        32.2090  -17.2830   52.8210 C.3   174  SER174      0.2116
    114  OG        32.9420  -18.3480   52.2520 O.3   174  SER174     -0.2180
@<TRIPOS>BOND
     1    81    80    1
     2    80    79   ar
     3    80    78   ar
     4    79    77   ar
     5    78    76   ar
     6    70    71    1
     7    77    75   ar
     8    60    61    2
     9    60    59    1
    10    76    75   ar
    11    75    74    1
    12    71    74    1
    13    71    72    1
    14    59    58    1
    15    59    62    1
    16    62    63    1
    17    72    73    2
    18    64    63   ar
    19    64    66   ar
    20    63    65   ar
    21    66    68   ar
    22    50    49    2
    23    65    67   ar
    24    68    67   ar
    25    68    69    1
    26    14    15    1
    27    14    13    1
    28    26    27   ar
    29    26    24   ar
    30    27    25   ar
    31    15    16   ar
    32    15    17   ar
    33    99    97   ar
    34    13    10    1
    35    49    48    1
    36    51    48    1
    37    51    52    1
    38    47    48    1
    39    54    52   ar
    40    54    56   ar
    41   114   113    1
    42    24    23   ar
    43    52    53   ar
    44    56    57   ar
    45    25    23   ar
    46    97    98   ar
    47    97    96    1
    48   113   110    1
    49    10    11    1
    50    10     9    1
    51    12    11    2
    52    23    22    1
    53     8     6   ar
    54    96    93    1
    55     7     6   ar
    56    11    18   am
    57    53    55   ar
    58    57    55   ar
    59    91    90   ar
    60    91    89   ar
    61     6     5    1
    62   112   111    2
    63   110   111    1
    64   110   109    1
    65    18    19    1
    66    90    88   ar
    67    22    19    1
    68    89    87   ar
    69   109   102   am
    70    93    92    1
    71    93    94    1
    72    19    20    1
    73     5     2    1
    74    94    95    2
    75    94   100   am
    76    88    87   ar
    77    87    86    1
    78   100   101    1
    79     3     2    1
    80     3     4    2
    81   102   103    2
    82   102   101    1
    83     2     1    1
    84    46    45    1
    85    20    21    2
    86    45    42    1
    87   101   104    1
    88    40    38    1
    89    86    83    1
    90    39    38    1
    91   104   105    1
    92    38    35    1
    93    85    84    2
    94    84    83    1
    95    42    43    1
    96    42    41    1
    97    83    82    1
    98   105   106    1
    99    43    44    2
   100    33    32    1
   101    35    34    1
   102    35    36    1
   103    37    36    2
   104   106   107   ar
   105   106   108   ar
   106    34    30   am
   107    28    29    1
   108    32    29    1
   109    30    29    1
   110    30    31    2
