@<TRIPOS>MOLECULE
tmp/4fl7A00.pdb
 115 110 0 0 0
SMALL
GASTEIGER

@<TRIPOS>ATOM
      1  N        -12.6290    6.2930   11.2180 N.3    89  GLN89      -0.1245
      2  CA       -12.3250    5.1280   10.3820 C.3    89  GLN89       0.1566
      3  C        -12.4860    3.8290   11.1530 C.2    89  GLN89       0.2260
      4  O        -12.6280    3.8540   12.3750 O.2    89  GLN89      -0.2867
      5  CB       -10.8760    5.1970    9.8800 C.3    89  GLN89       0.0367
      6  CG        -9.8210    5.2340   11.0110 C.3    89  GLN89       0.0905
      7  CD        -9.0560    3.9240   11.1700 C.2    89  GLN89       0.2608
      8  OE1       -9.6300    2.8380   11.0870 O.2    89  GLN89      -0.2717
      9  NE2       -7.7530    4.0260   11.4090 N.am   89  GLN89      -0.0878
     10  N        -11.1410   -0.5690   10.8860 N.3    91  HIS91      -0.1241
     11  CA       -10.2940   -1.5510   10.2300 C.3    91  HIS91       0.1621
     12  C        -10.3380   -2.7980   11.0890 C.2    91  HIS91       0.2264
     13  O        -10.9620   -2.7990   12.1520 O.2    91  HIS91      -0.2867
     14  CB        -8.8520   -1.0610   10.1550 C.3    91  HIS91       0.0745
     15  CG        -8.2760   -0.7220   11.4880 C.ar   91  HIS91       0.0817
     16  ND1       -8.4620    0.4900   12.1190 N.ar   91  HIS91      -0.2268
     17  CD2       -7.5420   -1.4800   12.3450 C.ar   91  HIS91       0.1154
     18  CE1       -7.8440    0.4300   13.3130 C.ar   91  HIS91       0.1986
     19  NE2       -7.2710   -0.7460   13.4920 N.ar   91  HIS91      -0.2212
     20  N         -8.0290   -6.5670   12.4080 N.3    93  HIS93      -0.1241
     21  CA        -6.7590   -7.2570   12.6220 C.3    93  HIS93       0.1621
     22  C         -7.2070   -8.7120   12.5110 C.2    93  HIS93       0.2264
     23  O         -8.2140   -9.0880   13.1050 O.2    93  HIS93      -0.2867
     24  CB        -6.2150   -7.0010   14.0210 C.3    93  HIS93       0.0745
     25  CG        -5.8470   -5.5760   14.2590 C.ar   93  HIS93       0.0817
     26  ND1       -4.6050   -5.0490   13.9820 N.ar   93  HIS93      -0.2268
     27  CD2       -6.5990   -4.5410   14.7100 C.ar   93  HIS93       0.1154
     28  CE1       -4.6370   -3.7450   14.2710 C.ar   93  HIS93       0.1986
     29  NE2       -5.8270   -3.3970   14.7140 N.ar   93  HIS93      -0.2212
     30  N        -11.9340   -2.6210   14.7350 N.3   116  HIS116     -0.1241
     31  CA       -11.6620   -1.4220   15.5230 C.3   116  HIS116      0.1621
     32  C        -12.3310   -0.2220   14.8490 C.2   116  HIS116      0.2264
     33  O        -11.9710    0.1320   13.7200 O.2   116  HIS116     -0.2867
     34  CB       -10.1400   -1.1770   15.6340 C.3   116  HIS116      0.0745
     35  CG        -9.4270   -2.1510   16.5260 C.ar  116  HIS116      0.0817
     36  ND1       -8.0540   -2.2610   16.5230 N.ar  116  HIS116     -0.2268
     37  CD2       -9.9400   -3.0110   17.4380 C.ar  116  HIS116      0.1154
     38  CE1       -7.7600   -3.1780   17.4210 C.ar  116  HIS116      0.1986
     39  NE2       -8.8650   -3.6630   18.0040 N.ar  116  HIS116     -0.2212
     40  N        -12.6070    3.5150   15.1190 N.3   118  VAL118     -0.1245
     41  CA       -11.8540    4.5960   15.7500 C.3   118  VAL118      0.1561
     42  C        -12.6000    5.9200   15.7920 C.2   118  VAL118      0.2260
     43  O        -13.1170    6.3680   14.7680 O.2   118  VAL118     -0.2867
     44  CB       -10.4980    4.7920   15.0110 C.3   118  VAL118      0.0252
     45  CG1       -9.6300    5.8150   15.7400 C.3   118  VAL118      0.0019
     46  CG2       -9.7850    3.4630   14.8900 C.3   118  VAL118      0.0019
     47  N         -8.5300   15.0530   14.6860 N.3   127  PHE127     -0.1241
     48  CA        -7.8010   13.8500   15.0580 C.3   127  PHE127      0.1605
     49  C         -6.3590   14.1170   15.4720 C.2   127  PHE127      0.2264
     50  O         -5.8770   13.5460   16.4510 O.2   127  PHE127     -0.2867
     51  CB        -7.8480   12.8440   13.9010 C.3   127  PHE127      0.0534
     52  CG        -7.1440   11.5540   14.1880 C.ar  127  PHE127     -0.0203
     53  CD1       -5.7900   11.4080   13.9120 C.ar  127  PHE127     -0.0042
     54  CD2       -7.8350   10.4850   14.7580 C.ar  127  PHE127     -0.0042
     55  CE1       -5.1270   10.2190   14.1970 C.ar  127  PHE127     -0.0003
     56  CE2       -7.1820    9.2970   15.0480 C.ar  127  PHE127     -0.0003
     57  CZ        -5.8250    9.1620   14.7690 C.ar  127  PHE127     -0.0000
     58  N         -8.9510    9.7520   22.1620 N.3   137  LEU137     -0.1245
     59  CA        -9.5860    8.7490   21.3050 C.3   137  LEU137      0.1561
     60  C        -10.4310    7.7280   22.0510 C.2   137  LEU137      0.2260
     61  O        -10.2170    7.4750   23.2320 O.2   137  LEU137     -0.2867
     62  CB        -8.5200    7.9730   20.5340 C.3   137  LEU137      0.0270
     63  CG        -7.5600    8.7270   19.6130 C.3   137  LEU137      0.0019
     64  CD1       -6.6320    7.7070   18.9540 C.3   137  LEU137      0.0001
     65  CD2       -8.3280    9.5040   18.5600 C.3   137  LEU137      0.0001
     66  N        -11.9510    3.8020   21.0470 N.3   139  VAL139     -0.1245
     67  CA       -12.0230    2.7730   20.0190 C.3   139  VAL139      0.1561
     68  C        -12.9750    1.6860   20.4850 C.2   139  VAL139      0.2260
     69  O        -12.8270    1.1580   21.5920 O.2   139  VAL139     -0.2867
     70  CB       -10.6480    2.1440   19.7280 C.3   139  VAL139      0.0252
     71  CG1      -10.7920    1.1010   18.6050 C.3   139  VAL139      0.0019
     72  CG2       -9.6430    3.2280   19.3170 C.3   139  VAL139      0.0019
     73  N         -3.0060    2.9840   21.0540 N.3   194  LEU194     -0.1231
     74  CA        -3.1590    2.5300   19.6840 C.3   194  LEU194      0.1693
     75  C         -2.3950    1.2060   19.7300 C.2   194  LEU194      0.2593
     76  O         -1.4110    1.0970   20.4640 O.2   194  LEU194     -0.2718
     77  CB        -2.4100    3.4500   18.7180 C.3   194  LEU194      0.0284
     78  CG        -3.0710    4.6290   18.0080 C.3   194  LEU194      0.0019
     79  CD1       -3.5500    5.6890   18.9810 C.3   194  LEU194      0.0001
     80  CD2       -2.0330    5.2210   17.0630 C.3   194  LEU194      0.0001
     81  N         -2.8140    0.2120   18.9560 N.am  195  THR195     -0.1939
     82  CA        -2.0980   -1.0670   18.9560 C.3   195  THR195      0.2028
     83  C         -1.0770   -1.1630   17.8190 C.2   195  THR195      0.2642
     84  O         -0.4320   -2.2050   17.6290 O.2   195  THR195     -0.2714
     85  CB        -3.0660   -2.2470   18.8490 C.3   195  THR195      0.1808
     86  OG1       -3.8110   -2.1350   17.6290 O.3   195  THR195     -0.2208
     87  CG2       -4.0120   -2.2720   20.0650 C.3   195  THR195      0.0379
     88  N         -0.9540   -0.0790   17.0530 N.am  196  THR196     -0.1950
     89  CA         0.0080    0.0180   15.9500 C.3   196  THR196      0.1897
     90  C          0.8510    1.2580   16.1800 C.2   196  THR196      0.2313
     91  O          0.3990    2.2030   16.8270 O.2   196  THR196     -0.2863
     92  CB        -0.6810    0.2330   14.5700 C.3   196  THR196      0.1794
     93  OG1       -1.6750    1.2650   14.6940 O.3   196  THR196     -0.2208
     94  CG2       -1.3240   -1.0380   14.0790 C.3   196  THR196      0.0378
     95  N         -6.1130    6.3650   24.1130 N.3   203  VAL203     -0.1245
     96  CA        -7.3540    5.6270   23.9060 C.3   203  VAL203      0.1561
     97  C         -8.1740    5.0860   25.0640 C.2   203  VAL203      0.2260
     98  O         -7.6410    4.4760   25.9870 O.2   203  VAL203     -0.2867
     99  CB        -7.0900    4.4070   22.9900 C.3   203  VAL203      0.0252
    100  CG1       -8.4210    3.6890   22.6520 C.3   203  VAL203      0.0019
    101  CG2       -6.3640    4.8610   21.7180 C.3   203  VAL203      0.0019
    102  N        -10.5840    2.3380   25.5800 N.3   205  TRP205     -0.1241
    103  CA       -11.0420    1.1410   24.9060 C.3   205  TRP205      0.1605
    104  C        -12.3800    0.6650   25.4210 C.2   205  TRP205      0.2264
    105  O        -12.6180    0.6040   26.6320 O.2   205  TRP205     -0.2867
    106  CB       -10.0230    0.0040   25.0630 C.3   205  TRP205      0.0550
    107  CG        -8.8940    0.0890   24.1180 C.ar  205  TRP205      0.0003
    108  CD1       -7.6780    0.6680   24.3280 C.ar  205  TRP205      0.0946
    109  CD2       -8.9010   -0.3550   22.7580 C.ar  205  TRP205      0.0152
    110  NE1       -6.9260    0.6210   23.1760 N.ar  205  TRP205     -0.2442
    111  CE2       -7.6550   -0.0030   22.1970 C.ar  205  TRP205      0.0810
    112  CE3       -9.8460   -1.0120   21.9570 C.ar  205  TRP205      0.0012
    113  CZ2       -7.3240   -0.2900   20.8690 C.ar  205  TRP205      0.0191
    114  CZ3       -9.5160   -1.2980   20.6280 C.ar  205  TRP205      0.0001
    115  CH2       -8.2680   -0.9360   20.1020 C.ar  205  TRP205      0.0015
@<TRIPOS>BOND
     1     5     2    1
     2     5     6    1
     3    14    11    1
     4    14    15    1
     5    11    10    1
     6    11    12    1
     7     2     3    1
     8     2     1    1
     9     6     7    1
    10     8     7    2
    11    12    13    2
    12     3     4    2
    13     7     9   am
    14    15    16   ar
    15    15    17   ar
    16    16    18   ar
    17    17    19   ar
    18    20    21    1
    19    22    21    1
    20    22    23    2
    21    21    24    1
    22    18    19   ar
    23    33    32    2
    24    51    52    1
    25    51    48    1
    26    53    52   ar
    27    53    55   ar
    28    26    25   ar
    29    26    28   ar
    30    24    25    1
    31    94    92    1
    32    52    54   ar
    33    55    57   ar
    34    25    27   ar
    35    28    29   ar
    36    92    93    1
    37    92    89    1
    38    47    48    1
    39    27    29   ar
    40    30    31    1
    41    54    56   ar
    42    43    42    2
    43    57    56   ar
    44    32    31    1
    45    46    44    1
    46    44    45    1
    47    44    41    1
    48    48    49    1
    49    40    41    1
    50    49    50    2
    51    31    34    1
    52    34    35    1
    53    41    42    1
    54    89    90    1
    55    89    88    1
    56    90    91    2
    57    36    35   ar
    58    36    38   ar
    59    35    37   ar
    60    88    83   am
    61    80    78    1
    62    38    39   ar
    63    37    39   ar
    64    86    85    1
    65    84    83    2
    66    83    82    1
    67    78    77    1
    68    78    79    1
    69    65    63    1
    70    71    70    1
    71    77    74    1
    72    85    82    1
    73    85    87    1
    74    64    63    1
    75    81    82    1
    76    81    75   am
    77    72    70    1
    78    63    62    1
    79    74    75    1
    80    74    73    1
    81    70    67    1
    82    75    76    2
    83    67    68    1
    84    67    66    1
    85   115   114   ar
    86   115   113   ar
    87    68    69    2
    88    62    59    1
    89   114   112   ar
    90   113   111   ar
    91    59    60    1
    92    59    58    1
    93   101    99    1
    94   112   109   ar
    95    60    61    2
    96   111   109   ar
    97   111   110   ar
    98   100    99    1
    99   109   107   ar
   100    99    96    1
   101   110   108   ar
   102    96    95    1
   103    96    97    1
   104   107   108   ar
   105   107   106    1
   106   103   106    1
   107   103   104    1
   108   103   102    1
   109    97    98    2
   110   104   105    2
