@<TRIPOS>MOLECULE
tmp/4fl8B00.pdb
 140 133 0 0 0
SMALL
GASTEIGER

@<TRIPOS>ATOM
      1  N         20.2340   34.3730   24.5810 N.3     8  ARG8       -0.1245
      2  CA        19.5090   33.0900   24.7040 C.3     8  ARG8        0.1563
      3  C         18.5870   33.1320   25.9090 C.2     8  ARG8        0.2260
      4  O         19.0170   33.5900   26.9960 O.2     8  ARG8       -0.2867
      5  CB        20.4880   31.9550   24.8550 C.3     8  ARG8        0.0307
      6  CG        21.2100   31.3270   23.6860 C.3     8  ARG8        0.0489
      7  CD        21.7710   29.9480   24.0760 C.3     8  ARG8        0.2205
      8  NE        22.9410   30.0040   24.9100 N.pl3   8  ARG8       -0.0865
      9  CZ        23.5940   29.2120   25.7210 C.cat   8  ARG8        0.5346
     10  NH1       23.2350   27.9560   26.0000 N.pl3   8  ARG8        0.1354
     11  NH2       24.6860   29.6870   26.3200 N.pl3   8  ARG8        0.1354
     12  N         17.1340   26.1710   28.3250 N.3    23  LEU23      -0.1245
     13  CA        16.7210   27.1000   27.2890 C.3    23  LEU23       0.1561
     14  C         15.2260   27.0130   27.0340 C.2    23  LEU23       0.2260
     15  O         14.7180   25.9150   26.7240 O.2    23  LEU23      -0.2867
     16  CB        17.4920   26.7480   26.0250 C.3    23  LEU23       0.0270
     17  CG        17.4330   27.5270   24.7770 C.3    23  LEU23       0.0019
     18  CD1       18.0050   28.9210   24.9840 C.3    23  LEU23       0.0001
     19  CD2       18.2400   26.8550   23.6880 C.3    23  LEU23       0.0001
     20  N         12.4270   26.9720   24.6970 N.3    25  ASP25      -0.1239
     21  CA        12.5500   26.7200   23.2490 C.3    25  ASP25       0.1674
     22  C         11.2460   26.4650   22.6010 C.2    25  ASP25       0.2266
     23  O         10.6620   25.3410   22.6050 O.2    25  ASP25      -0.2867
     24  CB        13.4410   25.4800   23.1230 C.3    25  ASP25       0.1410
     25  CG        13.7950   25.2490   21.7130 C.2    25  ASP25       0.3668
     26  OD1       13.2930   25.8660   20.7370 O.co2  25  ASP25      -0.2456
     27  OD2       14.6580   24.2950   21.5140 O.co2  25  ASP25      -0.2456
     28  N         10.6450   26.2160   19.5580 N.3    27  GLY27      -0.1210
     29  CA        10.8480   25.3250   18.4310 C.3    27  GLY27       0.1956
     30  C         10.9100   23.8590   18.8010 C.2    27  GLY27       0.2612
     31  O         11.0810   23.0220   17.9160 O.2    27  GLY27      -0.2717
     32  N         10.7790   23.5370   20.0680 N.am   28  ALA28      -0.1965
     33  CA        10.8400   22.1730   20.5760 C.3    28  ALA28       0.1728
     34  C          9.4710   21.6660   20.9830 C.2    28  ALA28       0.2616
     35  O          8.8160   22.2940   21.8080 O.2    28  ALA28      -0.2715
     36  CB        11.7890   22.0680   21.7600 C.3    28  ALA28       0.0334
     37  N          9.0670   20.5180   20.4150 N.am   29  ASP29      -0.1957
     38  CA         7.7840   19.9550   20.8780 C.3    29  ASP29       0.1840
     39  C          7.8970   19.4880   22.3350 C.2    29  ASP29       0.2622
     40  O          6.9280   19.5480   23.0910 O.2    29  ASP29      -0.2715
     41  CB         7.4580   18.6860   20.0120 C.3    29  ASP29       0.1450
     42  CG         7.2250   18.9860   18.5670 C.2    29  ASP29       0.3671
     43  OD1        6.9170   20.1540   18.1660 O.co2  29  ASP29      -0.2456
     44  OD2        7.2360   17.9710   17.8170 O.co2  29  ASP29      -0.2456
     45  N          9.0570   18.9880   22.6980 N.am   30  ASP30      -0.1971
     46  CA         9.3400   18.2310   23.9010 C.3    30  ASP30       0.1709
     47  C         10.4710   18.8680   24.7170 C.2    30  ASP30       0.2293
     48  O         11.2500   19.6410   24.1810 O.2    30  ASP30      -0.2864
     49  CB         9.7900   16.8130   23.5370 C.3    30  ASP30       0.1436
     50  CG         9.0660   16.1230   22.4260 C.2    30  ASP30       0.3671
     51  OD1        7.9000   15.7800   22.7120 O.co2  30  ASP30      -0.2456
     52  OD2        9.6140   15.8890   21.3190 O.co2  30  ASP30      -0.2456
     53  N         13.9070   18.2190   26.7220 N.3    32  VAL32      -0.1245
     54  CA        15.0320   17.3030   26.6280 C.3    32  VAL32       0.1561
     55  C         16.1510   17.8070   27.5390 C.2    32  VAL32       0.2260
     56  O         16.6130   18.9350   27.4140 O.2    32  VAL32      -0.2867
     57  CB        15.5400   17.1280   25.1910 C.3    32  VAL32       0.0252
     58  CG1       16.4520   15.9040   25.1590 C.3    32  VAL32       0.0019
     59  CG2       14.3860   17.0830   24.2180 C.3    32  VAL32       0.0019
     60  N         12.0060    6.7150   22.8420 N.3    45  LYS45      -0.1231
     61  CA        11.5230    7.8040   22.0220 C.3    45  LYS45       0.1693
     62  C         12.6270    8.1690   21.0580 C.2    45  LYS45       0.2592
     63  O         13.7910    8.2480   21.4420 O.2    45  LYS45      -0.2718
     64  CB        11.1590    8.9370   22.9840 C.3    45  LYS45       0.0285
     65  CG        10.8110   10.2570   22.3280 C.3    45  LYS45       0.0035
     66  CD         9.3590   10.2460   21.8740 C.3    45  LYS45       0.0206
     67  CE         9.0030   11.5510   21.1980 C.3    45  LYS45       0.1093
     68  NZ         7.7210   12.1680   21.6330 N.3    45  LYS45      -0.1314
     69  N         12.3200    8.4650   19.8180 N.am   46  MET46      -0.1965
     70  CA        13.1940    9.0660   18.8240 C.3    46  MET46       0.1736
     71  C         12.7420   10.4880   18.5770 C.2    46  MET46       0.2616
     72  O         11.5510   10.7440   18.4330 O.2    46  MET46      -0.2715
     73  CB        13.0570    8.2710   17.5100 C.3    46  MET46       0.0427
     74  CG        13.7200    6.9050   17.5120 C.3    46  MET46       0.0599
     75  SD        15.5110    7.0240   17.4430 S.3    46  MET46      -0.1393
     76  CE        15.8650    8.0650   16.0630 C.3    46  MET46       0.0692
     77  N         13.7150   11.3930   18.5730 N.am   47  ILE47      -0.1963
     78  CA        13.4160   12.7860   18.2770 C.3    47  ILE47       0.1727
     79  C         14.3420   13.2920   17.1850 C.2    47  ILE47       0.2617
     80  O         15.4460   12.7970   17.0240 O.2    47  ILE47      -0.2715
     81  CB        13.4980   13.6550   19.5450 C.3    47  ILE47       0.0290
     82  CG1       14.8850   13.6670   20.1590 C.3    47  ILE47       0.0022
     83  CG2       12.3810   13.2930   20.5220 C.3    47  ILE47       0.0023
     84  CD1       15.0970   14.6070   21.3430 C.3    47  ILE47       0.0001
     85  N         13.8460   14.2820   16.4360 N.am   48  GLY48      -0.1940
     86  CA        14.6040   14.8440   15.3220 C.3    48  GLY48       0.2014
     87  C         14.9440   16.2800   15.6120 C.2    48  GLY48       0.2639
     88  O         14.1520   17.0190   16.1680 O.2    48  GLY48      -0.2714
     89  N         16.1540   16.6750   15.2710 N.am   49  GLY49      -0.1939
     90  CA        16.6020   18.0680   15.4220 C.3    49  GLY49       0.2014
     91  C         17.2440   18.4640   14.0950 C.2    49  GLY49       0.2638
     92  O         17.1600   17.8440   13.0600 O.2    49  GLY49      -0.2714
     93  N         17.9530   19.5960   14.1710 N.am   50  ILE50      -0.1977
     94  CA        18.5610   20.1450   12.9770 C.3    50  ILE50       0.1596
     95  C         19.5190   19.1900   12.3330 C.2    50  ILE50       0.2287
     96  O         19.6330   19.1820   11.0870 O.2    50  ILE50      -0.2864
     97  CB        19.2640   21.5090   13.2690 C.3    50  ILE50       0.0276
     98  CG1       19.4920   22.1900   11.9570 C.3    50  ILE50       0.0022
     99  CG2       20.5210   21.3070   14.0680 C.3    50  ILE50       0.0022
    100  CD1       19.1420   23.6130   11.8430 C.3    50  ILE50       0.0001
    101  N         18.4080   12.5640   13.8560 N.3    53  PHE53      -0.1241
    102  CA        17.5560   11.9360   14.8600 C.3    53  PHE53       0.1605
    103  C         18.4000   11.3340   15.9730 C.2    53  PHE53       0.2264
    104  O         19.4720   10.7740   15.6710 O.2    53  PHE53      -0.2867
    105  CB        16.7540   10.7910   14.2150 C.3    53  PHE53       0.0534
    106  CG        15.7570   11.3390   13.2270 C.ar   53  PHE53      -0.0203
    107  CD1       14.4960   11.7320   13.6400 C.ar   53  PHE53      -0.0042
    108  CD2       16.1570   11.4430   11.8980 C.ar   53  PHE53      -0.0042
    109  CE1       13.6190   12.2370   12.6890 C.ar   53  PHE53      -0.0003
    110  CE2       15.2740   11.9720   10.9810 C.ar   53  PHE53      -0.0003
    111  CZ        14.0160   12.3790   11.3970 C.ar   53  PHE53      -0.0000
    112  N         21.4290   15.7600   24.1480 N.3    80  THR80      -0.1204
    113  CA        21.1670   17.1080   23.6970 C.3    80  THR80       0.1979
    114  C         22.3430   18.0750   23.9810 C.2    80  THR80       0.2460
    115  O         23.0220   18.0120   25.0070 O.2    80  THR80      -0.2732
    116  CB        19.8460   17.5870   24.3370 C.3    80  THR80       0.1783
    117  OG1       19.6170   18.9150   23.8350 O.3    80  THR80      -0.2211
    118  CG2       19.8720   17.6410   25.8400 C.3    80  THR80       0.0376
    119  N         22.6320   19.0480   23.0940 N.am   81  PRO81      -0.2717
    120  CA        23.7110   19.9990   23.3410 C.3    81  PRO81       0.1535
    121  C         23.4320   20.9080   24.5050 C.2    81  PRO81       0.2598
    122  O         24.3880   21.4190   25.0680 O.2    81  PRO81      -0.2715
    123  CB        23.8540   20.8590   22.1020 C.3    81  PRO81       0.0310
    124  CG        22.6230   20.5900   21.3270 C.3    81  PRO81       0.0237
    125  CD        22.0620   19.2450   21.7520 C.3    81  PRO81       0.0939
    126  N         22.1920   21.1700   24.8370 N.am   82  VAL82      -0.1978
    127  CA        21.7930   22.0550   25.9200 C.3    82  VAL82       0.1596
    128  C         20.4470   21.5650   26.4380 C.2    82  VAL82       0.2287
    129  O         19.6630   20.9220   25.7220 O.2    82  VAL82      -0.2864
    130  CB        21.6750   23.5400   25.5240 C.3    82  VAL82       0.0276
    131  CG1       22.9850   24.1210   25.0570 C.3    82  VAL82       0.0022
    132  CG2       20.5970   23.7010   24.4400 C.3    82  VAL82       0.0022
    133  N         16.7340   21.7350   27.1640 N.3    84  ILE84      -0.1245
    134  CA        15.7110   22.5730   26.5190 C.3    84  ILE84       0.1561
    135  C         14.3340   22.2620   27.1150 C.2    84  ILE84       0.2260
    136  O         13.9380   21.1070   27.3730 O.2    84  ILE84      -0.2867
    137  CB        15.6060   22.4750   24.9850 C.3    84  ILE84       0.0252
    138  CG1       15.3170   21.0540   24.5280 C.3    84  ILE84       0.0019
    139  CG2       16.8300   23.0380   24.2490 C.3    84  ILE84       0.0019
    140  CD1       15.1130   20.8750   23.0530 C.3    84  ILE84       0.0001
@<TRIPOS>BOND
     1   110   111   ar
     2   110   108   ar
     3    96    95    2
     4   111   109   ar
     5   100    98    1
     6   108   106   ar
     7    98    97    1
     8    95    94    1
     9   109   107   ar
    10    94    97    1
    11    94    93    1
    12    92    91    2
    13   106   107   ar
    14   106   105    1
    15    97    99    1
    16   101   102    1
    17    91    93   am
    18    91    90    1
    19   105   102    1
    20   102   103    1
    21    89    90    1
    22    89    87   am
    23    86    87    1
    24    86    85    1
    25    87    88    2
    26   104   103    2
    27    76    75    1
    28    85    79   am
    29    80    79    2
    30    79    78    1
    31    75    74    1
    32    73    74    1
    33    73    70    1
    34    44    42   ar
    35    31    30    2
    36    43    42   ar
    37    78    77    1
    38    78    81    1
    39    29    30    1
    40    29    28    1
    41    72    71    2
    42    42    41    1
    43    77    71   am
    44    71    70    1
    45    30    32   am
    46    70    69    1
    47    81    82    1
    48    81    83    1
    49    69    62   am
    50    41    38    1
    51    32    33    1
    52    82    84    1
    53    37    38    1
    54    37    34   am
    55    33    34    1
    56    33    36    1
    57    26    25   ar
    58    38    39    1
    59    34    35    2
    60    62    63    2
    61    62    61    1
    62    67    68    1
    63    67    66    1
    64    52    50   ar
    65   124   125    1
    66   124   123    1
    67    27    25   ar
    68    25    24    1
    69   125   119    1
    70    66    65    1
    71    61    60    1
    72    61    64    1
    73   123   120    1
    74    65    64    1
    75    39    45   am
    76    39    40    2
    77    50    51   ar
    78    50    49    1
    79    22    23    2
    80    22    21    1
    81    45    46    1
    82   140   138    1
    83   119   120    1
    84   119   114   am
    85    24    21    1
    86    21    20    1
    87   120   121    1
    88    49    46    1
    89     6     7    1
    90     6     5    1
    91    19    17    1
    92   113   114    1
    93   113   112    1
    94   113   116    1
    95   117   116    1
    96    46    47    1
    97   114   115    2
    98     7     8    1
    99    48    47    2
   100    59    57    1
   101   139   137    1
   102   116   118    1
   103   132   130    1
   104   121   126   am
   105   121   122    2
   106   138   137    1
   107     1     2    1
   108     2     5    1
   109     2     3    1
   110    17    18    1
   111    17    16    1
   112   126   127    1
   113     8     9    2
   114   137   134    1
   115   131   130    1
   116    58    57    1
   117    57    54    1
   118   130   127    1
   119     9    10    1
   120     9    11    1
   121   129   128    2
   122     3     4    2
   123   127   128    1
   124    16    13    1
   125   134   135    1
   126   134   133    1
   127    54    53    1
   128    54    55    1
   129    15    14    2
   130    14    13    1
   131   135   136    2
   132    13    12    1
   133    56    55    2
