@<TRIPOS>MOLECULE
tmp/4fl9A00.pdb
 116 110 0 0 0
SMALL
GASTEIGER

@<TRIPOS>ATOM
      1  N        -13.4050  -15.4900  -13.7870 N.3    10  THR10      -0.1218
      2  CA       -12.9720  -16.8500  -14.0200 C.3    10  THR10       0.1862
      3  C        -11.7350  -17.1750  -13.1920 C.2    10  THR10       0.2287
      4  O        -11.7300  -18.1790  -12.5140 O.2    10  THR10      -0.2866
      5  CB       -12.6650  -17.0740  -15.5110 C.3    10  THR10       0.1770
      6  OG1      -13.8450  -16.8050  -16.2810 O.3    10  THR10      -0.2211
      7  CG2      -12.2130  -18.4960  -15.7510 C.3    10  THR10       0.0375
      8  N        -16.2620  -21.2770  -12.9250 N.3    68  LYS68      -0.1231
      9  CA       -17.1310  -20.4870  -13.7740 C.3    68  LYS68       0.1693
     10  C        -17.3110  -21.1650  -15.1370 C.2    68  LYS68       0.2591
     11  O        -18.3210  -20.9410  -15.8150 O.2    68  LYS68      -0.2718
     12  CB       -16.5700  -19.0860  -13.9400 C.3    68  LYS68       0.0285
     13  CG       -17.5150  -18.1120  -14.6260 C.3    68  LYS68       0.0035
     14  CD       -16.9400  -16.6800  -14.5050 C.3    68  LYS68       0.0206
     15  CE       -17.6640  -15.6820  -15.4230 C.3    68  LYS68       0.1093
     16  NZ       -17.2370  -14.2530  -15.1630 N.3    68  LYS68      -0.1314
     17  N        -16.3550  -22.0010  -15.5370 N.am   69  ARG69      -0.1980
     18  CA       -16.5020  -22.7510  -16.8030 C.3    69  ARG69       0.1597
     19  C        -17.5190  -23.8950  -16.6820 C.2    69  ARG69       0.2287
     20  O        -18.0860  -24.3320  -17.6800 O.2    69  ARG69      -0.2864
     21  CB       -15.1510  -23.3050  -17.2890 C.3    69  ARG69       0.0334
     22  CG       -14.1250  -22.2300  -17.6710 C.3    69  ARG69       0.0492
     23  CD       -12.7960  -22.8080  -18.1550 C.3    69  ARG69       0.2205
     24  NE       -11.7800  -21.7750  -18.3340 N.pl3  69  ARG69      -0.0865
     25  CZ       -11.6780  -20.9930  -19.4090 C.cat  69  ARG69       0.5346
     26  NH1      -12.5380  -21.1200  -20.4150 N.pl3  69  ARG69       0.1354
     27  NH2      -10.7180  -20.0770  -19.4760 N.pl3  69  ARG69       0.1354
     28  N        -23.8180  -25.7150  -16.3000 N.3    73  ARG73      -0.1245
     29  CA       -23.7820  -26.6360  -17.4240 C.3    73  ARG73       0.1563
     30  C        -24.0920  -28.0620  -16.9820 C.2    73  ARG73       0.2260
     31  O        -24.1130  -28.3870  -15.7940 O.2    73  ARG73      -0.2867
     32  CB       -22.4010  -26.6290  -18.0980 C.3    73  ARG73       0.0307
     33  CG       -22.0440  -25.3680  -18.8470 C.3    73  ARG73       0.0489
     34  CD       -20.6040  -25.4130  -19.3480 C.3    73  ARG73       0.2205
     35  NE       -20.1640  -24.1040  -19.8290 N.pl3  73  ARG73      -0.0865
     36  CZ       -20.4700  -23.6200  -21.0290 C.cat  73  ARG73       0.5346
     37  NH1      -21.2000  -24.3400  -21.8630 N.pl3  73  ARG73       0.1354
     38  NH2      -20.0460  -22.4190  -21.3940 N.pl3  73  ARG73       0.1354
     39  N        -18.3620  -28.6340  -23.8480 N.3    79  VAL79      -0.1245
     40  CA       -17.4270  -27.6790  -23.2520 C.3    79  VAL79       0.1561
     41  C        -16.8090  -28.2580  -21.9750 C.2    79  VAL79       0.2260
     42  O        -15.5960  -28.1910  -21.7660 O.2    79  VAL79      -0.2867
     43  CB       -18.1240  -26.3450  -22.9120 C.3    79  VAL79       0.0252
     44  CG1      -17.1920  -25.4370  -22.1130 C.3    79  VAL79       0.0019
     45  CG2      -18.5950  -25.6470  -24.1780 C.3    79  VAL79       0.0019
     46  N        -12.9760  -29.1180  -21.3520 N.3    83  ASP83      -0.1239
     47  CA       -12.2350  -28.4210  -20.2960 C.3    83  ASP83       0.1674
     48  C        -11.6300  -29.3840  -19.2810 C.2    83  ASP83       0.2266
     49  O        -10.4890  -29.2050  -18.8600 O.2    83  ASP83      -0.2867
     50  CB       -13.1260  -27.4110  -19.5640 C.3    83  ASP83       0.1410
     51  CG       -13.3770  -26.1560  -20.3800 C.2    83  ASP83       0.3668
     52  OD1      -12.6420  -25.9220  -21.3650 O.co2  83  ASP83      -0.2456
     53  OD2      -14.3130  -25.4060  -20.0340 O.co2  83  ASP83      -0.2456
     54  N        -20.8460  -13.1300  -17.8700 N.3   144  PRO144     -0.2116
     55  CA       -20.5990  -12.8840  -19.2960 C.3   144  PRO144      0.1372
     56  C        -21.9070  -12.6880  -20.0610 C.2   144  PRO144      0.2244
     57  O        -22.9200  -13.2980  -19.7340 O.2   144  PRO144     -0.2868
     58  CB       -19.8640  -14.1470  -19.7410 C.3   144  PRO144      0.0268
     59  CG       -19.2170  -14.6700  -18.4640 C.3   144  PRO144      0.0207
     60  CD       -20.2400  -14.3950  -17.4160 C.3   144  PRO144      0.0892
     61  N        -22.8120  -13.7450  -22.7910 N.3   146  TYR146     -0.1227
     62  CA       -23.2830  -14.9420  -23.4870 C.3   146  TYR146      0.1736
     63  C        -23.8980  -15.9800  -22.5290 C.2   146  TYR146      0.2595
     64  O        -24.4480  -16.9790  -22.9770 O.2   146  TYR146     -0.2718
     65  CB       -22.1530  -15.5610  -24.3190 C.3   146  TYR146      0.0548
     66  CG       -20.9230  -15.9110  -23.5110 C.ar  146  TYR146     -0.0200
     67  CD1      -20.8270  -17.1310  -22.8550 C.ar  146  TYR146     -0.0009
     68  CD2      -19.8580  -15.0120  -23.3930 C.ar  146  TYR146     -0.0009
     69  CE1      -19.7070  -17.4550  -22.1070 C.ar  146  TYR146      0.0417
     70  CE2      -18.7370  -15.3270  -22.6460 C.ar  146  TYR146      0.0417
     71  CZ       -18.6670  -16.5550  -22.0110 C.ar  146  TYR146      0.1957
     72  OH       -17.5600  -16.8930  -21.2560 O.3   146  TYR146     -0.2866
     73  N        -23.8180  -15.7570  -21.2180 N.am  147  PHE147     -0.1976
     74  CA       -24.3780  -16.7400  -20.2740 C.3   147  PHE147      0.1639
     75  C        -25.8630  -16.9470  -20.6140 C.2   147  PHE147      0.2290
     76  O        -26.5610  -15.9930  -20.9520 O.2   147  PHE147     -0.2864
     77  CB       -24.2310  -16.2960  -18.8110 C.3   147  PHE147      0.0560
     78  CG       -23.0350  -16.9040  -18.0790 C.ar  147  PHE147     -0.0200
     79  CD1      -21.9410  -17.4140  -18.7660 C.ar  147  PHE147     -0.0042
     80  CD2      -23.0270  -16.9650  -16.6990 C.ar  147  PHE147     -0.0042
     81  CE1      -20.8560  -17.9640  -18.0920 C.ar  147  PHE147     -0.0003
     82  CE2      -21.9280  -17.4970  -16.0080 C.ar  147  PHE147     -0.0003
     83  CZ       -20.8510  -18.0010  -16.7080 C.ar  147  PHE147     -0.0000
     84  N        -26.9320  -20.7280  -16.5950 N.3   151  GLN151     -0.1245
     85  CA       -25.7040  -20.1820  -16.0140 C.3   151  GLN151      0.1566
     86  C        -25.9970  -18.9700  -15.1070 C.2   151  GLN151      0.2260
     87  O        -25.4000  -18.8190  -14.0170 O.2   151  GLN151     -0.2867
     88  CB       -24.7310  -19.8110  -17.1370 C.3   151  GLN151      0.0367
     89  CG       -24.2380  -21.0140  -17.9350 C.3   151  GLN151      0.0905
     90  CD       -23.5520  -20.6160  -19.2310 C.2   151  GLN151      0.2608
     91  OE1      -24.1610  -19.9920  -20.0990 O.2   151  GLN151     -0.2717
     92  NE2      -22.2750  -20.9720  -19.3650 N.am  151  GLN151     -0.0878
     93  N         -9.3850  -15.5950  -20.6260 N.3   201  THR201     -0.1218
     94  CA       -10.5150  -15.5260  -21.5480 C.3   201  THR201      0.1862
     95  C        -10.5180  -14.1920  -22.2660 C.2   201  THR201      0.2287
     96  O        -10.0170  -13.1960  -21.7480 O.2   201  THR201     -0.2866
     97  CB       -11.8770  -15.7060  -20.8320 C.3   201  THR201      0.1770
     98  OG1      -12.0600  -14.6530  -19.8780 O.3   201  THR201     -0.2211
     99  CG2      -11.9610  -17.0450  -20.1250 C.3   201  THR201      0.0375
    100  N        -12.4630  -18.3240  -25.5960 N.3   223  THR223     -0.1203
    101  CA       -12.6750  -18.7050  -24.1960 C.3   223  THR223      0.1994
    102  C        -11.3860  -19.2330  -23.5720 C.2   223  THR223      0.2617
    103  O        -11.3170  -19.4750  -22.3730 O.2   223  THR223     -0.2717
    104  CB       -13.7640  -19.7970  -24.0800 C.3   223  THR223      0.1784
    105  OG1      -13.3870  -20.9370  -24.8610 O.3   223  THR223     -0.2211
    106  CG2      -15.1000  -19.2790  -24.5660 C.3   223  THR223      0.0376
    107  N        -10.4340  -19.5570  -24.4290 N.am  224  HIS224     -0.1975
    108  CA        -9.1000  -20.0210  -24.0390 C.3   224  HIS224      0.1656
    109  C         -7.8730  -19.0850  -24.0530 C.2   224  HIS224      0.2291
    110  O         -6.7430  -19.5470  -23.9200 O.2   224  HIS224     -0.2864
    111  CB        -8.8820  -21.4400  -24.5630 C.3   224  HIS224      0.0771
    112  CG        -9.8590  -22.3990  -23.9600 C.ar  224  HIS224      0.0820
    113  ND1       -9.7850  -22.7830  -22.6380 N.ar  224  HIS224     -0.2267
    114  CD2      -10.9880  -22.9610  -24.4540 C.ar  224  HIS224      0.1154
    115  CE1      -10.7940  -23.5880  -22.3590 C.ar  224  HIS224      0.1986
    116  NE2      -11.5400  -23.7100  -23.4420 N.ar  224  HIS224     -0.2212
@<TRIPOS>BOND
     1   100   101    1
     2   105   104    1
     3   106   104    1
     4   111   108    1
     5   111   112    1
     6   114   112   ar
     7   114   116   ar
     8   107   108    1
     9   107   102   am
    10    65    66    1
    11    65    62    1
    12   101   104    1
    13   101   102    1
    14    45    43    1
    15   109   108    1
    16   109   110    2
    17   112   113   ar
    18    39    40    1
    19   102   103    2
    20    66    68   ar
    21    66    67   ar
    22    62    61    1
    23    62    63    1
    24   116   115   ar
    25    68    70   ar
    26    40    43    1
    27    40    41    1
    28    64    63    2
    29    43    44    1
    30    67    69   ar
    31    70    71   ar
    32   113   115   ar
    33    63    73   am
    34    95    96    2
    35    95    94    1
    36    69    71   ar
    37    71    72    1
    38    41    42    2
    39    37    36    1
    40    94    97    1
    41    94    93    1
    42    38    36    1
    43    52    51   ar
    44    46    47    1
    45    73    74    1
    46    36    35    2
    47    76    75    2
    48    97    99    1
    49    97    98    1
    50    75    74    1
    51    26    25    1
    52    51    53   ar
    53    51    50    1
    54    47    50    1
    55    47    48    1
    56    74    77    1
    57    91    90    2
    58    56    57    2
    59    56    55    1
    60    35    34    1
    61    58    55    1
    62    58    59    1
    63    27    25    1
    64    25    24    2
    65    92    90   am
    66    34    33    1
    67    55    54    1
    68    48    49    2
    69    90    89    1
    70    33    32    1
    71    77    78    1
    72    79    81   ar
    73    79    78   ar
    74    59    60    1
    75    24    23    1
    76    23    22    1
    77    32    29    1
    78    81    83   ar
    79    78    80   ar
    80    89    88    1
    81    54    60    1
    82    20    19    2
    83    22    21    1
    84    29    30    1
    85    29    28    1
    86    21    18    1
    87    88    85    1
    88    30    31    2
    89    18    19    1
    90    18    17    1
    91    83    82   ar
    92    80    82   ar
    93    84    85    1
    94     6     5    1
    95    85    86    1
    96    11    10    2
    97     7     5    1
    98    17    10   am
    99     5     2    1
   100    15    16    1
   101    15    14    1
   102    10     9    1
   103    86    87    2
   104    13    14    1
   105    13    12    1
   106     2     1    1
   107     2     3    1
   108    12     9    1
   109     9     8    1
   110     3     4    2
