@<TRIPOS>MOLECULE
tmp/4flgA01.pdb
 71 66 0 0 0
SMALL
GASTEIGER

@<TRIPOS>ATOM
      1  N         17.8140   13.0070   16.6180 N.3    25  ASP25      -0.1239
      2  CA        16.9670   13.8860   17.4350 C.3    25  ASP25       0.1674
      3  C         16.0440   13.1180   18.3620 C.2    25  ASP25       0.2266
      4  O         14.9550   12.7060   17.9890 O.2    25  ASP25      -0.2867
      5  CB        16.1790   14.7210   16.4730 C.3    25  ASP25       0.1410
      6  CG        15.3890   15.8240   17.1190 C.2    25  ASP25       0.3668
      7  OD1       15.3410   15.8890   18.3650 O.co2  25  ASP25      -0.2456
      8  OD2       14.7940   16.6700   16.3870 O.co2  25  ASP25      -0.2456
      9  N         14.3700   14.3100   20.6850 N.3    27  GLY27      -0.1210
     10  CA        13.1640   15.0670   20.9580 C.3    27  GLY27       0.1956
     11  C         12.1050   14.9730   19.9090 C.2    27  GLY27       0.2612
     12  O         11.0150   15.5280   20.0930 O.2    27  GLY27      -0.2717
     13  N         12.3330   14.2720   18.8120 N.am   28  ALA28      -0.1965
     14  CA        11.3700   14.1550   17.7210 C.3    28  ALA28       0.1728
     15  C         10.7290   12.7900   17.7160 C.2    28  ALA28       0.2616
     16  O         11.4010   11.7560   17.7420 O.2    28  ALA28      -0.2715
     17  CB        12.1200   14.3150   16.3950 C.3    28  ALA28       0.0334
     18  N          9.4040   12.7560   17.6440 N.am   29  ASP29      -0.1957
     19  CA         8.6890   11.4970   17.5200 C.3    29  ASP29       0.1840
     20  C          8.9470   10.8560   16.1630 C.2    29  ASP29       0.2622
     21  O          8.9980    9.6400   16.0320 O.2    29  ASP29      -0.2715
     22  CB         7.1710   11.7060   17.7210 C.3    29  ASP29       0.1450
     23  CG         6.6950   12.2280   19.0540 C.2    29  ASP29       0.3671
     24  OD1        7.4140   12.1250   20.0620 O.co2  29  ASP29      -0.2456
     25  OD2        5.5410   12.7900   19.0800 O.co2  29  ASP29      -0.2456
     26  N          9.0480   11.7190   15.1600 N.am   30  ASP30      -0.1971
     27  CA         8.9850   11.3870   13.7760 C.3    30  ASP30       0.1709
     28  C         10.2920   11.7870   13.0690 C.2    30  ASP30       0.2293
     29  O         11.0410   12.6390   13.5410 O.2    30  ASP30      -0.2864
     30  CB         7.8210   12.0790   13.0110 C.3    30  ASP30       0.1436
     31  CG         6.5100   11.9880   13.7660 C.2    30  ASP30       0.3671
     32  OD1        6.0920   10.8480   14.0010 O.co2  30  ASP30      -0.2456
     33  OD2        5.9380   13.0230   14.1560 O.co2  30  ASP30      -0.2456
     34  N         11.7860   13.5610    9.7260 N.3    32  VAL32      -0.1245
     35  CA        11.3240   14.5930    8.8070 C.3    32  VAL32       0.1561
     36  C         12.5060   15.0070    7.9260 C.2    32  VAL32       0.2260
     37  O         13.5520   15.3920    8.4570 O.2    32  VAL32      -0.2867
     38  CB        10.7560   15.8220    9.5600 C.3    32  VAL32       0.0252
     39  CG1       10.0070   16.6870    8.5350 C.3    32  VAL32       0.0019
     40  CG2        9.8680   15.4290   10.7250 C.3    32  VAL32       0.0019
     41  N          2.9390   18.3780   11.3110 N.3    47  VAL47      -0.1231
     42  CA         3.7750   18.0870   12.4760 C.3    47  VAL47       0.1692
     43  C          4.2810   19.4110   13.0370 C.2    47  VAL47       0.2593
     44  O          4.4980   20.4010   12.3490 O.2    47  VAL47      -0.2718
     45  CB         4.9500   17.1510   12.2030 C.3    47  VAL47       0.0266
     46  CG1        4.4830   15.7250   11.9980 C.3    47  VAL47       0.0020
     47  CG2        5.7240   17.7290   11.0190 C.3    47  VAL47       0.0020
     48  N          4.3820   19.4280   14.3570 N.am   48  GLY48      -0.1942
     49  CA         4.6510   20.6270   15.0890 C.3    48  GLY48       0.2014
     50  C          5.8660   20.5420   15.9630 C.2    48  GLY48       0.2639
     51  O          6.3850   19.4600   16.2540 O.2    48  GLY48      -0.2714
     52  N          6.2650   21.7360   16.3700 N.am   49  GLY49      -0.1939
     53  CA         7.3380   21.8350   17.3370 C.3    49  GLY49       0.2014
     54  C          7.5040   23.3130   17.6340 C.2    49  GLY49       0.2638
     55  O          6.5170   24.0340   17.5610 O.2    49  GLY49      -0.2714
     56  N          8.7100   23.7310   18.0180 N.am   50  ILE50      -0.1977
     57  CA         8.8980   25.1310   18.3190 C.3    50  ILE50       0.1596
     58  C          8.6270   25.9190   17.0360 C.2    50  ILE50       0.2287
     59  O          9.0450   25.5600   15.9290 O.2    50  ILE50      -0.2864
     60  CB        10.2850   25.4460   18.8810 C.3    50  ILE50       0.0276
     61  CG1       10.2420   25.2160   20.4080 C.3    50  ILE50       0.0022
     62  CG2       10.7400   26.8620   18.6270 C.3    50  ILE50       0.0022
     63  CD1       11.3880   25.5090   21.2470 C.3    50  ILE50       0.0001
     64  N         15.8610   15.5480   10.1330 N.3    84  ILE84      -0.1245
     65  CA        15.9180   14.9750   11.4760 C.3    84  ILE84       0.1561
     66  C         15.4960   13.4980   11.4550 C.2    84  ILE84       0.2260
     67  O         14.5180   13.0800   10.8250 O.2    84  ILE84      -0.2867
     68  CB        15.0840   15.7230   12.5240 C.3    84  ILE84       0.0252
     69  CG1       13.6020   15.8200   12.1980 C.3    84  ILE84       0.0019
     70  CG2       15.6640   17.1100   12.7940 C.3    84  ILE84       0.0019
     71  CD1       12.7320   16.4520   13.2550 C.3    84  ILE84       0.0001
@<TRIPOS>BOND
     1    36    37    2
     2    36    35    1
     3    39    38    1
     4    35    38    1
     5    35    34    1
     6    38    40    1
     7    64    65    1
     8    67    66    2
     9    47    45    1
    10    41    42    1
    11    66    65    1
    12    65    68    1
    13    46    45    1
    14    69    68    1
    15    69    71    1
    16    45    42    1
    17    44    43    2
    18    42    43    1
    19    68    70    1
    20    30    31    1
    21    30    27    1
    22    43    48   am
    23    28    29    2
    24    28    27    1
    25    31    32   ar
    26    31    33   ar
    27    27    26    1
    28    48    49    1
    29    49    50    1
    30    26    20   am
    31    59    58    2
    32    50    51    2
    33    50    52   am
    34    21    20    2
    35    20    19    1
    36    52    53    1
    37     8     6   ar
    38    17    14    1
    39     5     6    1
    40     5     2    1
    41     1     2    1
    42    58    57    1
    43     6     7   ar
    44    53    54    1
    45     2     3    1
    46    19    18    1
    47    19    22    1
    48    55    54    2
    49    54    56   am
    50    18    15   am
    51    15    14    1
    52    15    16    2
    53    14    13    1
    54    22    23    1
    55     4     3    2
    56    56    57    1
    57    57    60    1
    58    62    60    1
    59    13    11   am
    60    60    61    1
    61    23    25   ar
    62    23    24   ar
    63    11    12    2
    64    11    10    1
    65    61    63    1
    66     9    10    1
