@<TRIPOS>MOLECULE
tmp/4flgA00.pdb
 73 67 0 0 0
SMALL
GASTEIGER

@<TRIPOS>ATOM
      1  N         26.2870   19.3810   17.3920 N.3     8  ARG8       -0.1245
      2  CA        25.0920   18.7140   16.8740 C.3     8  ARG8        0.1563
      3  C         25.4160   17.3090   16.3960 C.2     8  ARG8        0.2260
      4  O         26.3980   17.1690   15.6810 O.2     8  ARG8       -0.2867
      5  CB        24.4740   19.5480   15.7540 C.3     8  ARG8        0.0307
      6  CG        23.9520   20.9040   16.1650 C.3     8  ARG8        0.0489
      7  CD        23.4300   21.6830   14.9960 C.3     8  ARG8        0.2205
      8  NE        22.9840   22.9800   15.4500 N.pl3   8  ARG8       -0.0865
      9  CZ        22.8660   24.0530   14.6590 C.cat   8  ARG8        0.5346
     10  NH1       23.1690   24.0130   13.3770 N.pl3   8  ARG8        0.1354
     11  NH2       22.4460   25.1790   15.1960 N.pl3   8  ARG8        0.1354
     12  N         20.2100   15.0380   11.5290 N.3    23  LEU23      -0.1245
     13  CA        20.4100   15.1970   12.9560 C.3    23  LEU23       0.1561
     14  C         19.7420   14.0930   13.7250 C.2    23  LEU23       0.2260
     15  O         18.5230   13.8650   13.5390 O.2    23  LEU23      -0.2867
     16  CB        19.8140   16.5830   13.3000 C.3    23  LEU23       0.0270
     17  CG        19.8650   17.0660   14.7130 C.3    23  LEU23       0.0019
     18  CD1       21.2820   17.3450   15.1130 C.3    23  LEU23       0.0001
     19  CD2       19.0290   18.3330   14.8750 C.3    23  LEU23       0.0001
     20  N         17.8140   13.0070   16.6180 N.3    25  ASP25      -0.1239
     21  CA        16.9670   13.8860   17.4350 C.3    25  ASP25       0.1674
     22  C         16.0440   13.1180   18.3620 C.2    25  ASP25       0.2266
     23  O         14.9550   12.7060   17.9890 O.2    25  ASP25      -0.2867
     24  CB        16.1790   14.7210   16.4730 C.3    25  ASP25       0.1410
     25  CG        15.3890   15.8240   17.1190 C.2    25  ASP25       0.3668
     26  OD1       15.3410   15.8890   18.3650 O.co2  25  ASP25      -0.2456
     27  OD2       14.7940   16.6700   16.3870 O.co2  25  ASP25      -0.2456
     28  N         14.3700   14.3100   20.6850 N.3    27  GLY27      -0.1210
     29  CA        13.1640   15.0670   20.9580 C.3    27  GLY27       0.1956
     30  C         12.1050   14.9730   19.9090 C.2    27  GLY27       0.2611
     31  O         11.0150   15.5280   20.0930 O.2    27  GLY27      -0.2717
     32  N         12.3330   14.2720   18.8120 N.am   28  ALA28      -0.1979
     33  CA        11.3700   14.1550   17.7210 C.3    28  ALA28       0.1597
     34  C         10.7290   12.7900   17.7160 C.2    28  ALA28       0.2287
     35  O         11.4010   11.7560   17.7420 O.2    28  ALA28      -0.2864
     36  CB        12.1200   14.3150   16.3950 C.3    28  ALA28       0.0319
     37  N          8.7100   23.7310   18.0180 N.3    50  ILE50      -0.1245
     38  CA         8.8980   25.1310   18.3190 C.3    50  ILE50       0.1561
     39  C          8.6270   25.9190   17.0360 C.2    50  ILE50       0.2260
     40  O          9.0450   25.5600   15.9290 O.2    50  ILE50      -0.2867
     41  CB        10.2850   25.4460   18.8810 C.3    50  ILE50       0.0252
     42  CG1       10.2420   25.2160   20.4080 C.3    50  ILE50       0.0019
     43  CG2       10.7400   26.8620   18.6270 C.3    50  ILE50       0.0019
     44  CD1       11.3880   25.5090   21.2470 C.3    50  ILE50       0.0001
     45  N         11.1270   21.2250    6.3610 N.3    80  THR80      -0.1204
     46  CA        11.8420   21.2540    7.6470 C.3    80  THR80       0.1979
     47  C         13.1690   21.9860    7.4970 C.2    80  THR80       0.2460
     48  O         13.8540   21.8680    6.4620 O.2    80  THR80      -0.2732
     49  CB        12.0620   19.8340    8.1480 C.3    80  THR80       0.1783
     50  OG1       12.8160   19.9320    9.3510 O.3    80  THR80      -0.2211
     51  CG2       12.8410   18.9480    7.1900 C.3    80  THR80       0.0376
     52  N         13.5970   22.7960    8.4680 N.am   81  PRO81      -0.2717
     53  CA        14.8610   23.5120    8.3180 C.3    81  PRO81       0.1535
     54  C         16.0970   22.6380    8.4220 C.2    81  PRO81       0.2598
     55  O         17.1930   23.0500    8.0310 O.2    81  PRO81      -0.2715
     56  CB        14.8380   24.5060    9.4910 C.3    81  PRO81       0.0310
     57  CG        13.9170   23.9380   10.4670 C.3    81  PRO81       0.0237
     58  CD        12.8910   23.1640    9.6990 C.3    81  PRO81       0.0939
     59  N         15.9480   21.4380    8.9900 N.am   82  VAL82      -0.1978
     60  CA        16.9960   20.4840    9.2580 C.3    82  VAL82       0.1596
     61  C         16.4590   19.0990    8.9630 C.2    82  VAL82       0.2287
     62  O         15.3390   18.8370    9.4000 O.2    82  VAL82      -0.2864
     63  CB        17.3600   20.5950   10.7510 C.3    82  VAL82       0.0276
     64  CG1       18.4600   19.6210   11.1450 C.3    82  VAL82       0.0022
     65  CG2       17.7940   22.0080   11.1510 C.3    82  VAL82       0.0022
     66  N         15.8610   15.5480   10.1330 N.3    84  ILE84      -0.1245
     67  CA        15.9180   14.9750   11.4760 C.3    84  ILE84       0.1561
     68  C         15.4960   13.4980   11.4550 C.2    84  ILE84       0.2260
     69  O         14.5180   13.0800   10.8250 O.2    84  ILE84      -0.2867
     70  CB        15.0840   15.7230   12.5240 C.3    84  ILE84       0.0252
     71  CG1       13.6020   15.8200   12.1980 C.3    84  ILE84       0.0019
     72  CG2       15.6640   17.1100   12.7940 C.3    84  ILE84       0.0019
     73  CD1       12.7320   16.4520   13.2550 C.3    84  ILE84       0.0001
@<TRIPOS>BOND
     1    45    46    1
     2    48    47    2
     3    51    49    1
     4    47    46    1
     5    47    52   am
     6    46    49    1
     7    55    54    2
     8    49    50    1
     9    53    54    1
    10    53    52    1
    11    53    56    1
    12    54    59   am
    13    52    58    1
    14    61    60    1
    15    61    62    2
    16    59    60    1
    17    60    63    1
    18    56    57    1
    19    58    57    1
    20    66    67    1
    21    63    64    1
    22    63    65    1
    23    69    68    2
    24    68    67    1
    25    67    70    1
    26    12    13    1
    27    71    70    1
    28    71    73    1
    29    70    72    1
    30    13    16    1
    31    13    14    1
    32    16    17    1
    33    10     9    1
    34    15    14    2
    35     9    11    1
    36     9     8    2
    37    17    19    1
    38    17    18    1
    39     7     8    1
    40     7     6    1
    41     4     3    2
    42     5     6    1
    43     5     2    1
    44    40    39    2
    45    27    25   ar
    46    36    33    1
    47     3     2    1
    48    24    25    1
    49    24    21    1
    50    20    21    1
    51     2     1    1
    52    39    38    1
    53    25    26   ar
    54    21    22    1
    55    34    33    1
    56    34    35    2
    57    33    32    1
    58    23    22    2
    59    37    38    1
    60    38    41    1
    61    43    41    1
    62    32    30   am
    63    41    42    1
    64    30    31    2
    65    30    29    1
    66    42    44    1
    67    28    29    1
