@<TRIPOS>MOLECULE
tmp/4fliA00.pdb
 187 180 0 0 0
SMALL
GASTEIGER

@<TRIPOS>ATOM
      1  N         29.4660   -7.2320   10.2650 N.3   103  PRO103     -0.2116
      2  CA        28.3960   -8.2340   10.3400 C.3   103  PRO103      0.1372
      3  C         28.8620   -9.6780   10.4350 C.2   103  PRO103      0.2244
      4  O         28.1040  -10.5760   10.9370 O.2   103  PRO103     -0.2868
      5  CB        27.6170   -8.0130    8.9850 C.3   103  PRO103      0.0268
      6  CG        27.8820   -6.5880    8.6410 C.3   103  PRO103      0.0207
      7  CD        29.3840   -6.4660    8.9440 C.3   103  PRO103      0.0892
      8  N         28.5380  -11.7980   13.4730 N.3   106  TYR106     -0.1241
      9  CA        27.8730  -11.0750   14.6020 C.3   106  TYR106      0.1605
     10  C         26.6190  -11.8730   14.8950 C.2   106  TYR106      0.2264
     11  O         25.7010  -12.0640   14.0650 O.2   106  TYR106     -0.2867
     12  CB        27.5170   -9.6300   14.1780 C.3   106  TYR106      0.0534
     13  CG        26.9040   -8.7980   15.2800 C.ar  106  TYR106     -0.0201
     14  CD1       27.6970   -8.4780   16.3160 C.ar  106  TYR106     -0.0009
     15  CD2       25.5540   -8.5030   15.3110 C.ar  106  TYR106     -0.0009
     16  CE1       27.2000   -7.6620   17.3520 C.ar  106  TYR106      0.0417
     17  CE2       25.0140   -7.6880   16.3780 C.ar  106  TYR106      0.0417
     18  CZ        25.8400   -7.3090   17.3700 C.ar  106  TYR106      0.1957
     19  OH        25.2400   -6.5060   18.3660 O.3   106  TYR106     -0.2866
     20  N         25.7730  -14.1790   12.1330 N.3   109  PHE109     -0.1241
     21  CA        25.3140  -13.7020   10.7570 C.3   109  PHE109      0.1605
     22  C         26.3640  -14.2440    9.7790 C.2   109  PHE109      0.2264
     23  O         27.5740  -14.1170   10.0520 O.2   109  PHE109     -0.2867
     24  CB        25.2360  -12.1790   10.7310 C.3   109  PHE109      0.0534
     25  CG        24.7170  -11.6690    9.4400 C.ar  109  PHE109     -0.0203
     26  CD1       23.3740  -11.7460    9.2240 C.ar  109  PHE109     -0.0042
     27  CD2       25.5900  -11.1720    8.5020 C.ar  109  PHE109     -0.0042
     28  CE1       22.7900  -11.2900    8.0880 C.ar  109  PHE109     -0.0003
     29  CE2       25.0350  -10.7520    7.2580 C.ar  109  PHE109     -0.0003
     30  CZ        23.6290  -10.7540    7.0670 C.ar  109  PHE109     -0.0000
     31  N         24.5870   -6.7980    4.6400 N.3   114  CYS114     -0.1235
     32  CA        23.2130   -7.2180    4.4210 C.3   114  CYS114      0.1677
     33  C         22.6970   -6.6530    3.1030 C.2   114  CYS114      0.2270
     34  O         22.9720   -5.5410    2.7490 O.2   114  CYS114     -0.2867
     35  CB        22.2670   -6.6540    5.4800 C.3   114  CYS114      0.0956
     36  SG        22.8130   -6.9610    7.1660 S.3   114  CYS114     -0.0801
     37  N         15.0500   -5.6030    6.3160 N.3   122  CYS122     -0.1221
     38  CA        16.4870   -5.5200    6.7430 C.3   122  CYS122      0.1808
     39  C         17.0200   -6.9040    7.0140 C.2   122  CYS122      0.2601
     40  O         16.2910   -7.8840    7.1300 O.2   122  CYS122     -0.2717
     41  CB        16.6890   -4.5770    7.9960 C.3   122  CYS122      0.0970
     42  SG        15.8370   -5.3470    9.5510 S.3   122  CYS122     -0.0800
     43  N         18.3640   -6.9550    7.1750 N.am  123  HIS123     -0.1975
     44  CA        19.0770   -8.1580    7.4620 C.3   123  HIS123      0.1656
     45  C         19.0360   -9.2870    6.4730 C.2   123  HIS123      0.2291
     46  O         19.1730  -10.4680    6.7720 O.2   123  HIS123     -0.2864
     47  CB        18.7340   -8.6930    8.8930 C.3   123  HIS123      0.0771
     48  CG        18.8600   -7.6390    9.9460 C.ar  123  HIS123      0.0820
     49  ND1       18.4230   -7.8680   11.2320 N.ar  123  HIS123     -0.2267
     50  CD2       19.3810   -6.3740    9.9430 C.ar  123  HIS123      0.1154
     51  CE1       18.6620   -6.8090   11.9800 C.ar  123  HIS123      0.1986
     52  NE2       19.2570   -5.8800   11.2450 N.ar  123  HIS123     -0.2212
     53  N         23.7480   -2.7910    3.1960 N.3   140  ASP140     -0.1239
     54  CA        24.0710   -2.1610    4.4550 C.3   140  ASP140      0.1674
     55  C         25.4520   -2.6630    4.8570 C.2   140  ASP140      0.2266
     56  O         25.7050   -3.8550    4.9920 O.2   140  ASP140     -0.2867
     57  CB        23.0190   -2.5990    5.5240 C.3   140  ASP140      0.1410
     58  CG        23.1310   -1.8380    6.8790 C.2   140  ASP140      0.3668
     59  OD1       24.2230   -1.5170    7.2050 O.co2 140  ASP140     -0.2456
     60  OD2       22.0840   -1.6180    7.4520 O.co2 140  ASP140     -0.2456
     61  N         28.8790   -2.3210    7.3580 N.3   142  THR142     -0.1218
     62  CA        29.4880   -1.8670    8.6660 C.3   142  THR142      0.1862
     63  C         30.9200   -2.4030    8.6930 C.2   142  THR142      0.2287
     64  O         31.2020   -3.5990    8.3880 O.2   142  THR142     -0.2866
     65  CB        28.7530   -2.4790    9.8620 C.3   142  THR142      0.1770
     66  OG1       27.3580   -2.2060    9.7560 O.3   142  THR142     -0.2211
     67  CG2       29.2810   -1.9270   11.1830 C.3   142  THR142      0.0375
     68  N         28.7410    2.5160   10.4290 N.3   151  ASP151     -0.1239
     69  CA        27.5420    1.8030    9.8840 C.3   151  ASP151      0.1674
     70  C         26.7360    2.7150    8.9980 C.2   151  ASP151      0.2266
     71  O         26.3810    3.8430    9.3960 O.2   151  ASP151     -0.2867
     72  CB        26.7630    1.4110   11.1490 C.3   151  ASP151      0.1410
     73  CG        25.6060    0.4550   10.8730 C.2   151  ASP151      0.3668
     74  OD1       25.4030   -0.0780    9.7360 O.co2 151  ASP151     -0.2456
     75  OD2       24.9820    0.0620   11.9170 O.co2 151  ASP151     -0.2456
     76  N          9.9980   -2.8580   14.9880 N.3   210  SER210     -0.1202
     77  CA        10.7490   -3.8960   15.6510 C.3   210  SER210      0.2020
     78  C         12.2630   -3.7060   15.6430 C.2   210  SER210      0.2619
     79  O         13.0120   -4.4910   16.2290 O.2   210  SER210     -0.2717
     80  CB        10.4830   -5.2490   14.9560 C.3   210  SER210      0.2103
     81  OG         9.1150   -5.5550   15.1380 O.3   210  SER210     -0.2182
     82  N         12.6730   -2.7590   14.7970 N.am  211  TYR211     -0.1961
     83  CA        14.0860   -2.5170   14.5170 C.3   211  TYR211      0.1771
     84  C         14.3630   -1.0050   14.7220 C.2   211  TYR211      0.2619
     85  O         13.5560   -0.1570   14.3040 O.2   211  TYR211     -0.2715
     86  CB        14.4920   -2.9420   13.0860 C.3   211  TYR211      0.0574
     87  CG        14.3750   -4.4050   12.9820 C.ar  211  TYR211     -0.0198
     88  CD1       15.3930   -5.2470   13.4770 C.ar  211  TYR211     -0.0009
     89  CD2       13.2710   -4.9640   12.3640 C.ar  211  TYR211     -0.0009
     90  CE1       15.2910   -6.6660   13.3630 C.ar  211  TYR211      0.0417
     91  CE2       13.1450   -6.3620   12.2360 C.ar  211  TYR211      0.0417
     92  CZ        14.1680   -7.1880   12.7000 C.ar  211  TYR211      0.1957
     93  OH        14.0500   -8.5870   12.5620 O.3   211  TYR211     -0.2866
     94  N         15.5540   -0.6570   15.2210 N.am  212  CYS212     -0.1968
     95  CA        15.8320    0.7240   15.6770 C.3   212  CYS212      0.1712
     96  C         17.2670    1.1810   15.3940 C.2   212  CYS212      0.2296
     97  O         18.1350    0.2950   15.1850 O.2   212  CYS212     -0.2864
     98  CB        15.6970    0.8270   17.2400 C.3   212  CYS212      0.0983
     99  SG        13.9990    0.4700   17.8080 S.3   212  CYS212     -0.0798
    100  N         20.7820    3.1390   16.8530 N.3   214  HIS214     -0.1241
    101  CA        21.5340    2.6580   18.0480 C.3   214  HIS214      0.1621
    102  C         22.8070    3.3970   18.2140 C.2   214  HIS214      0.2264
    103  O         23.4590    3.8930   17.2790 O.2   214  HIS214     -0.2867
    104  CB        21.8560    1.1720   17.8670 C.3   214  HIS214      0.0745
    105  CG        22.5780    0.8730   16.5350 C.ar  214  HIS214      0.0817
    106  ND1       23.9470    0.8500   16.4220 N.ar  214  HIS214     -0.2268
    107  CD2       22.0520    0.6440   15.3110 C.ar  214  HIS214      0.1154
    108  CE1       24.2570    0.5840   15.1370 C.ar  214  HIS214      0.1986
    109  NE2       23.1110    0.4620   14.4460 N.ar  214  HIS214     -0.2212
    110  N         29.2440   -2.4700   18.5660 N.3   220  PHE220     -0.1227
    111  CA        28.4430   -2.3090   17.2640 C.3   220  PHE220      0.1736
    112  C         27.0410   -1.7500   17.6620 C.2   220  PHE220      0.2595
    113  O         26.5050   -0.7290   17.0680 O.2   220  PHE220     -0.2718
    114  CB        28.3380   -3.7300   16.7280 C.3   220  PHE220      0.0547
    115  CG        27.7980   -3.8700   15.2550 C.ar  220  PHE220     -0.0202
    116  CD1       27.1530   -2.8010   14.6690 C.ar  220  PHE220     -0.0042
    117  CD2       27.9640   -5.0680   14.6590 C.ar  220  PHE220     -0.0042
    118  CE1       26.5710   -2.9350   13.2800 C.ar  220  PHE220     -0.0003
    119  CE2       27.5100   -5.3070   13.3570 C.ar  220  PHE220     -0.0003
    120  CZ        26.8220   -4.1710   12.6900 C.ar  220  PHE220     -0.0000
    121  N         26.3960   -2.3920   18.6680 N.am  221  HIS221     -0.1975
    122  CA        25.0910   -1.8290   19.1520 C.3   221  HIS221      0.1656
    123  C         25.1590   -1.5070   20.6640 C.2   221  HIS221      0.2291
    124  O         25.4340   -2.4160   21.4870 O.2   221  HIS221     -0.2864
    125  CB        23.9490   -2.8340   18.9090 C.3   221  HIS221      0.0771
    126  CG        23.7720   -3.1580   17.4460 C.ar  221  HIS221      0.0820
    127  ND1       24.4910   -4.1830   16.8610 N.ar  221  HIS221     -0.2267
    128  CD2       23.0760   -2.5150   16.4450 C.ar  221  HIS221      0.1154
    129  CE1       24.2070   -4.2080   15.5410 C.ar  221  HIS221      0.1986
    130  NE2       23.3530   -3.2280   15.2850 N.ar  221  HIS221     -0.2212
    131  N         19.0400    3.4280   22.4780 N.3   225  ASN225     -0.1240
    132  CA        18.0760    2.8660   21.5260 C.3   225  ASN225      0.1653
    133  C         17.3640    4.0080   20.8230 C.2   225  ASN225      0.2266
    134  O         16.8580    4.9760   21.4580 O.2   225  ASN225     -0.2867
    135  CB        17.0090    2.0140   22.2490 C.3   225  ASN225      0.1155
    136  CG        16.1320    1.2450   21.2640 C.2   225  ASN225      0.2627
    137  OD1       16.6720    0.4850   20.4620 O.2   225  ASN225     -0.2716
    138  ND2       14.8030    1.3960   21.3350 N.am  225  ASN225     -0.0877
    139  N         18.2110    4.9480   11.2970 N.3   247  GLU247     -0.1245
    140  CA        18.1460    3.9890   10.0960 C.3   247  GLU247      0.1567
    141  C         16.7110    3.5750    9.8160 C.2   247  GLU247      0.2260
    142  O         16.3360    2.3870    9.8660 O.2   247  GLU247     -0.2867
    143  CB        19.1350    2.8790   10.2870 C.3   247  GLU247      0.0388
    144  CG        18.9080    2.0200   11.6370 C.3   247  GLU247      0.1160
    145  CD        19.9280    0.9250   11.6850 C.2   247  GLU247      0.3649
    146  OE1       20.7600    0.8960   12.6370 O.co2 247  GLU247     -0.2457
    147  OE2       19.9890    0.0480   10.7100 O.co2 247  GLU247     -0.2457
    148  N         13.2110    2.3780    8.5680 N.3   249  MET249     -0.1245
    149  CA        12.6240    1.4170    7.6130 C.3   249  MET249      0.1570
    150  C         11.1750    1.7790    7.4700 C.2   249  MET249      0.2261
    151  O         10.4350    1.8280    8.4650 O.2   249  MET249     -0.2867
    152  CB        12.8190   -0.0430    8.0900 C.3   249  MET249      0.0387
    153  CG        14.3520   -0.5210    8.1980 C.3   249  MET249      0.0595
    154  SD        14.6000   -1.4700    9.7080 S.3   249  MET249     -0.1393
    155  CE        14.6180   -0.1230   10.9120 C.3   249  MET249      0.0692
    156  N         17.1200  -14.4530   10.3220 N.3   264  TRP264     -0.1241
    157  CA        17.6680  -13.1220   10.1030 C.3   264  TRP264      0.1605
    158  C         16.7740  -12.2520    9.1600 C.2   264  TRP264      0.2264
    159  O         16.5140  -11.0890    9.4560 O.2   264  TRP264     -0.2867
    160  CB        19.0380  -13.2240    9.3870 C.3   264  TRP264      0.0550
    161  CG        20.1040  -13.5420   10.3610 C.ar  264  TRP264      0.0003
    162  CD1       20.7800  -14.7760   10.5220 C.ar  264  TRP264      0.0946
    163  CD2       20.5400  -12.6770   11.4050 C.ar  264  TRP264      0.0152
    164  NE1       21.6730  -14.6460   11.5500 N.ar  264  TRP264     -0.2442
    165  CE2       21.5660  -13.4140   12.1260 C.ar  264  TRP264      0.0810
    166  CE3       20.2820  -11.3360   11.7460 C.ar  264  TRP264      0.0012
    167  CZ2       22.3070  -12.8330   13.1730 C.ar  264  TRP264      0.0191
    168  CZ3       21.0040  -10.7390   12.8960 C.ar  264  TRP264      0.0001
    169  CH2       22.0140  -11.5440   13.5640 C.ar  264  TRP264      0.0015
    170  N         15.0090    1.6340    3.2150 N.3   276  GLN276     -0.1245
    171  CA        15.7580    2.1110    4.4030 C.3   276  GLN276      0.1566
    172  C         16.9580    3.0140    3.9890 C.2   276  GLN276      0.2260
    173  O         17.5560    2.8000    2.9030 O.2   276  GLN276     -0.2867
    174  CB        16.2840    0.8480    5.0720 C.3   276  GLN276      0.0367
    175  CG        17.0750    1.1650    6.4080 C.3   276  GLN276      0.0905
    176  CD        17.5510   -0.0380    7.1270 C.2   276  GLN276      0.2608
    177  OE1       17.8030   -1.0780    6.6150 O.2   276  GLN276     -0.2717
    178  NE2       17.8040    0.1490    8.4670 N.am  276  GLN276     -0.0878
    179  N         20.5580    4.8120    6.2400 N.3   278  GLU278     -0.1245
    180  CA        21.2330    4.8430    7.5600 C.3   278  GLU278      0.1567
    181  C         22.4510    5.7430    7.4170 C.2   278  GLU278      0.2260
    182  O         23.2520    5.6210    6.4720 O.2   278  GLU278     -0.2867
    183  CB        21.6530    3.4550    7.9970 C.3   278  GLU278      0.0388
    184  CG        22.4280    3.5450    9.3900 C.3   278  GLU278      0.1160
    185  CD        22.6940    2.1430    9.7670 C.2   278  GLU278      0.3649
    186  OE1       22.7710    1.1950    8.9210 O.co2 278  GLU278     -0.2457
    187  OE2       22.8530    1.8140   10.9590 O.co2 278  GLU278     -0.2457
@<TRIPOS>BOND
     1    34    33    2
     2   173   172    2
     3    33    32    1
     4    53    54    1
     5   170   171    1
     6   172   171    1
     7   171   174    1
     8    32    31    1
     9    32    35    1
    10    54    55    1
    11    54    57    1
    12    55    56    2
    13   174   175    1
    14    35    36    1
    15    57    58    1
    16   179   180    1
    17    37    38    1
    18   175   176    1
    19   182   181    2
    20    45    46    2
    21    45    44    1
    22   177   176    2
    23    38    39    1
    24    38    41    1
    25    58    59   ar
    26    58    60   ar
    27    39    40    2
    28    39    43   am
    29    30    29   ar
    30    30    28   ar
    31   176   178   am
    32    43    44    1
    33    29    27   ar
    34    61    62    1
    35   181   180    1
    36    44    47    1
    37   150   149    1
    38   150   151    2
    39   180   183    1
    40   149   152    1
    41   149   148    1
    42    41    42    1
    43   183   184    1
    44    28    26   ar
    45   152   153    1
    46   153   154    1
    47    64    63    2
    48    27    25   ar
    49     6     7    1
    50     6     5    1
    51    62    63    1
    52    62    65    1
    53    47    48    1
    54   186   185   ar
    55     7     1    1
    56     5     2    1
    57    70    71    2
    58    70    69    1
    59   158   159    2
    60   158   157    1
    61    26    25   ar
    62   160   157    1
    63   160   161    1
    64   184   185    1
    65    25    24    1
    66   154   155    1
    67    74    73   ar
    68    66    65    1
    69   185   187   ar
    70    22    23    2
    71    22    21    1
    72   141   142    2
    73   141   140    1
    74    65    67    1
    75    69    68    1
    76    69    72    1
    77    50    48   ar
    78    50    52   ar
    79    48    49   ar
    80   140   143    1
    81   140   139    1
    82   157   156    1
    83     1     2    1
    84   143   144    1
    85     2     3    1
    86   161   162   ar
    87   161   163   ar
    88     3     4    2
    89   162   164   ar
    90   147   145   ar
    91    24    21    1
    92    21    20    1
    93    73    72    1
    94    73    75   ar
    95    49    51   ar
    96    52    51   ar
    97   163   166   ar
    98   163   165   ar
    99   164   165   ar
   100   144   145    1
   101   145   146   ar
   102   166   168   ar
   103   165   167   ar
   104    91    89   ar
   105    91    92   ar
   106    89    87   ar
   107    93    92    1
   108   120   118   ar
   109   120   119   ar
   110    92    90   ar
   111   168   169   ar
   112    87    86    1
   113    87    88   ar
   114    86    83    1
   115   167   169   ar
   116   118   116   ar
   117   119   117   ar
   118    90    88   ar
   119     8     9    1
   120    11    10    2
   121    12     9    1
   122    12    13    1
   123    85    84    2
   124   109   108   ar
   125   109   107   ar
   126    83    84    1
   127    83    82    1
   128     9    10    1
   129   117   115   ar
   130   116   115   ar
   131    84    94   am
   132    82    78   am
   133    80    81    1
   134    80    77    1
   135    76    77    1
   136   108   106   ar
   137    97    96    2
   138    94    95    1
   139   115   114    1
   140    13    15   ar
   141    13    14   ar
   142   130   129   ar
   143   130   128   ar
   144   107   105   ar
   145    15    17   ar
   146    96    95    1
   147   129   127   ar
   148    78    77    1
   149    78    79    2
   150    95    98    1
   151    14    16   ar
   152    17    18   ar
   153   106   105   ar
   154   128   126   ar
   155   105   104    1
   156   114   111    1
   157   100   101    1
   158   127   126   ar
   159   113   112    2
   160    98    99    1
   161   111   112    1
   162   111   110    1
   163   103   102    2
   164    16    18   ar
   165    18    19    1
   166   126   125    1
   167   112   121   am
   168   104   101    1
   169   101   102    1
   170   121   122    1
   171   125   122    1
   172   122   123    1
   173   137   136    2
   174   123   124    2
   175   133   134    2
   176   133   132    1
   177   136   138   am
   178   136   135    1
   179   132   135    1
   180   132   131    1
