@<TRIPOS>MOLECULE
tmp/4fljA00.pdb
 218 210 0 0 0
SMALL
GASTEIGER

@<TRIPOS>ATOM
      1  N         29.7730   -5.9470   24.4500 N.3    39  GLU39      -0.1245
      2  CA        28.3700   -5.5020   24.4620 C.3    39  GLU39       0.1567
      3  C         27.5260   -6.1270   25.5990 C.2    39  GLU39       0.2260
      4  O         26.6630   -5.4830   26.1930 O.2    39  GLU39      -0.2867
      5  CB        27.6830   -5.7890   23.1050 C.3    39  GLU39       0.0388
      6  CG        28.3130   -4.9670   21.9720 C.3    39  GLU39       0.1160
      7  CD        27.6320   -5.2230   20.6170 C.2    39  GLU39       0.3649
      8  OE1       26.6390   -5.9970   20.5470 O.co2  39  GLU39      -0.2457
      9  OE2       28.1240   -4.6480   19.6450 O.co2  39  GLU39      -0.2457
     10  N         24.8750   -4.7970   28.8400 N.3    43  LYS43      -0.1245
     11  CA        23.5090   -5.1110   28.3500 C.3    43  LYS43       0.1561
     12  C         22.3980   -4.1230   28.7040 C.2    43  LYS43       0.2260
     13  O         21.7210   -3.5810   27.8190 O.2    43  LYS43      -0.2867
     14  CB        23.0410   -6.5490   28.6450 C.3    43  LYS43       0.0271
     15  CG        21.6050   -6.7880   28.0740 C.3    43  LYS43       0.0035
     16  CD        20.9970   -8.2020   28.2410 C.3    43  LYS43       0.0206
     17  CE        19.4990   -8.1620   27.7890 C.3    43  LYS43       0.1093
     18  NZ        18.7960   -9.4700   27.8800 N.3    43  LYS43      -0.1314
     19  N         29.6760   -7.2030   10.2300 N.3   103  PRO103     -0.2116
     20  CA        28.5450   -8.2070   10.2780 C.3   103  PRO103      0.1372
     21  C         28.9870   -9.6560   10.3040 C.2   103  PRO103      0.2244
     22  O         28.2450  -10.4930   10.7830 O.2   103  PRO103     -0.2868
     23  CB        27.8340   -8.0080    8.8900 C.3   103  PRO103      0.0268
     24  CG        28.1250   -6.5540    8.6300 C.3   103  PRO103      0.0207
     25  CD        29.5990   -6.4410    8.9500 C.3   103  PRO103      0.0892
     26  N         28.6800  -11.8090   13.4590 N.3   106  TYR106     -0.1227
     27  CA        28.0280  -11.0320   14.4670 C.3   106  TYR106      0.1736
     28  C         26.7520  -11.8010   14.8470 C.2   106  TYR106      0.2595
     29  O         25.8400  -11.9420   14.0530 O.2   106  TYR106     -0.2718
     30  CB        27.6890   -9.5720   14.0730 C.3   106  TYR106      0.0548
     31  CG        27.1120   -8.7590   15.2260 C.ar  106  TYR106     -0.0200
     32  CD1       27.9260   -8.3140   16.2780 C.ar  106  TYR106     -0.0009
     33  CD2       25.7630   -8.4350   15.2650 C.ar  106  TYR106     -0.0009
     34  CE1       27.4050   -7.5280   17.3020 C.ar  106  TYR106      0.0417
     35  CE2       25.2140   -7.6420   16.2760 C.ar  106  TYR106      0.0417
     36  CZ        26.0500   -7.2580   17.3470 C.ar  106  TYR106      0.1957
     37  OH        25.5650   -6.4350   18.3050 O.3   106  TYR106     -0.2866
     38  N         26.7460  -12.3810   16.0550 N.am  107  TYR107     -0.1976
     39  CA        25.6830  -13.3500   16.3630 C.3   107  TYR107      0.1639
     40  C         25.5450  -14.4330   15.2380 C.2   107  TYR107      0.2290
     41  O         24.4340  -14.8440   14.9630 O.2   107  TYR107     -0.2864
     42  CB        24.3350  -12.6310   16.8050 C.3   107  TYR107      0.0560
     43  CG        24.6190  -11.9720   18.1830 C.ar  107  TYR107     -0.0198
     44  CD1       25.1550  -10.7280   18.2620 C.ar  107  TYR107     -0.0009
     45  CD2       24.5490  -12.7270   19.3930 C.ar  107  TYR107     -0.0009
     46  CE1       25.5690  -10.1660   19.4870 C.ar  107  TYR107      0.0417
     47  CE2       24.9560  -12.1700   20.6470 C.ar  107  TYR107      0.0417
     48  CZ        25.4720  -10.8720   20.6990 C.ar  107  TYR107      0.1957
     49  OH        25.9470  -10.2660   21.9040 O.3   107  TYR107     -0.2866
     50  N         25.8780  -14.1820   12.1370 N.3   109  PHE109     -0.1241
     51  CA        25.5460  -13.6940   10.7530 C.3   109  PHE109      0.1605
     52  C         26.5800  -14.2100    9.7670 C.2   109  PHE109      0.2264
     53  O         27.7620  -14.0880   10.0270 O.2   109  PHE109     -0.2867
     54  CB        25.4760  -12.1600   10.6930 C.3   109  PHE109      0.0534
     55  CG        24.8600  -11.6420    9.3610 C.ar  109  PHE109     -0.0203
     56  CD1       23.4780  -11.6640    9.1720 C.ar  109  PHE109     -0.0042
     57  CD2       25.7130  -11.1490    8.3700 C.ar  109  PHE109     -0.0042
     58  CE1       22.9450  -11.2030    7.9380 C.ar  109  PHE109     -0.0003
     59  CE2       25.1810  -10.6730    7.1270 C.ar  109  PHE109     -0.0003
     60  CZ        23.7980  -10.6960    6.9720 C.ar  109  PHE109     -0.0000
     61  N         24.6410   -6.8090    4.6520 N.3   114  CYS114     -0.1235
     62  CA        23.2360   -7.2520    4.4930 C.3   114  CYS114      0.1677
     63  C         22.7460   -6.7400    3.1350 C.2   114  CYS114      0.2270
     64  O         22.9910   -5.6220    2.8130 O.2   114  CYS114     -0.2867
     65  CB        22.3220   -6.6780    5.5170 C.3   114  CYS114      0.0956
     66  SG        22.9510   -6.9890    7.2190 S.3   114  CYS114     -0.0801
     67  N         15.1310   -5.6080    6.3580 N.3   122  CYS122     -0.1221
     68  CA        16.5510   -5.5020    6.7380 C.3   122  CYS122      0.1808
     69  C         17.1080   -6.8830    7.0180 C.2   122  CYS122      0.2601
     70  O         16.3740   -7.8490    7.1100 O.2   122  CYS122     -0.2717
     71  CB        16.6250   -4.5600    7.9710 C.3   122  CYS122      0.0970
     72  SG        15.9160   -5.3430    9.4710 S.3   122  CYS122     -0.0800
     73  N         18.4360   -6.9660    7.0660 N.am  123  HIS123     -0.1975
     74  CA        19.2020   -8.1530    7.4150 C.3   123  HIS123      0.1656
     75  C         19.1310   -9.2820    6.4350 C.2   123  HIS123      0.2291
     76  O         19.3540  -10.4640    6.7770 O.2   123  HIS123     -0.2864
     77  CB        18.8840   -8.6690    8.8370 C.3   123  HIS123      0.0771
     78  CG        18.9620   -7.6100    9.8990 C.ar  123  HIS123      0.0820
     79  ND1       18.5640   -7.8420   11.1920 N.ar  123  HIS123     -0.2267
     80  CD2       19.4300   -6.3400    9.8720 C.ar  123  HIS123      0.1154
     81  CE1       18.7650   -6.7570   11.9220 C.ar  123  HIS123      0.1986
     82  NE2       19.3390   -5.8510   11.1560 N.ar  123  HIS123     -0.2212
     83  N         23.8320   -2.7960    3.2360 N.3   140  ASP140     -0.1239
     84  CA        24.0580   -2.2230    4.6040 C.3   140  ASP140      0.1674
     85  C         25.4780   -2.6430    4.9230 C.2   140  ASP140      0.2266
     86  O         25.7460   -3.8050    4.9780 O.2   140  ASP140     -0.2867
     87  CB        23.0120   -2.7200    5.6270 C.3   140  ASP140      0.1410
     88  CG        23.0870   -1.9420    6.9150 C.2   140  ASP140      0.3668
     89  OD1       24.2300   -1.5800    7.1020 O.co2 140  ASP140     -0.2456
     90  OD2       22.0910   -1.6360    7.5310 O.co2 140  ASP140     -0.2456
     91  N         28.9400   -2.3360    7.2870 N.3   142  THR142     -0.1218
     92  CA        29.5380   -1.9280    8.6120 C.3   142  THR142      0.1862
     93  C         31.0080   -2.3930    8.5830 C.2   142  THR142      0.2287
     94  O         31.3160   -3.5610    8.2000 O.2   142  THR142     -0.2866
     95  CB        28.8260   -2.4410    9.8530 C.3   142  THR142      0.1770
     96  OG1       27.4700   -2.0590    9.8110 O.3   142  THR142     -0.2211
     97  CG2       29.5260   -1.7820   11.1860 C.3   142  THR142      0.0375
     98  N         28.8490    2.4900   10.3050 N.3   151  ASP151     -0.1239
     99  CA        27.6790    1.7180    9.8970 C.3   151  ASP151      0.1674
    100  C         26.8260    2.6720    8.9970 C.2   151  ASP151      0.2266
    101  O         26.4090    3.8090    9.4010 O.2   151  ASP151     -0.2867
    102  CB        26.8990    1.3720   11.1520 C.3   151  ASP151      0.1410
    103  CG        25.6910    0.3890   10.9120 C.2   151  ASP151      0.3668
    104  OD1       25.5070   -0.1050    9.6960 O.co2 151  ASP151     -0.2456
    105  OD2       24.9700    0.0600   11.9230 O.co2 151  ASP151     -0.2456
    106  N         12.9620   -2.7450   14.7910 N.3   211  TYR211     -0.1227
    107  CA        14.4350   -2.5270   14.6850 C.3   211  TYR211      0.1736
    108  C         14.7270   -1.0460   14.8080 C.2   211  TYR211      0.2595
    109  O         13.9740   -0.2200   14.2330 O.2   211  TYR211     -0.2718
    110  CB        14.9600   -3.0340   13.3320 C.3   211  TYR211      0.0548
    111  CG        14.7390   -4.4940   13.1130 C.ar  211  TYR211     -0.0200
    112  CD1       15.6520   -5.4270   13.6160 C.ar  211  TYR211     -0.0009
    113  CD2       13.5660   -4.9680   12.4610 C.ar  211  TYR211     -0.0009
    114  CE1       15.4590   -6.7840   13.4910 C.ar  211  TYR211      0.0417
    115  CE2       13.3660   -6.3530   12.3110 C.ar  211  TYR211      0.0417
    116  CZ        14.3210   -7.2470   12.7870 C.ar  211  TYR211      0.1957
    117  OH        14.1600   -8.6300   12.6520 O.3   211  TYR211     -0.2866
    118  N         15.7740   -0.7120   15.5910 N.am  212  CYS212     -0.1970
    119  CA        16.0640    0.6790   15.9880 C.3   212  CYS212      0.1712
    120  C         17.4820    1.0990   15.5830 C.2   212  CYS212      0.2296
    121  O         18.2830    0.2320   15.3100 O.2   212  CYS212     -0.2864
    122  CB        15.9650    0.7560   17.5400 C.3   212  CYS212      0.0983
    123  SG        14.1610    0.5870   17.9960 S.3   212  CYS212     -0.0798
    124  N         20.9770    3.1580   16.8330 N.3   214  HIS214     -0.1241
    125  CA        21.7180    2.7500   18.0060 C.3   214  HIS214      0.1621
    126  C         23.0410    3.5120   18.1070 C.2   214  HIS214      0.2264
    127  O         23.6890    3.8950   17.1180 O.2   214  HIS214     -0.2867
    128  CB        22.0450    1.2420   17.8560 C.3   214  HIS214      0.0745
    129  CG        22.7720    0.9220   16.5640 C.ar  214  HIS214      0.0817
    130  ND1       24.1540    0.9930   16.4310 N.ar  214  HIS214     -0.2268
    131  CD2       22.2860    0.6550   15.3120 C.ar  214  HIS214      0.1154
    132  CE1       24.4900    0.7260   15.1750 C.ar  214  HIS214      0.1986
    133  NE2       23.3770    0.5700   14.4770 N.ar  214  HIS214     -0.2212
    134  N         29.4430   -2.3490   18.3930 N.3   220  PHE220     -0.1227
    135  CA        28.6790   -2.2790   17.1280 C.3   220  PHE220      0.1736
    136  C         27.2880   -1.7220   17.4890 C.2   220  PHE220      0.2595
    137  O         26.8060   -0.7810   16.8020 O.2   220  PHE220     -0.2718
    138  CB        28.6060   -3.7000   16.5590 C.3   220  PHE220      0.0547
    139  CG        28.0390   -3.8210   15.1220 C.ar  220  PHE220     -0.0202
    140  CD1       27.3510   -2.7620   14.5050 C.ar  220  PHE220     -0.0042
    141  CD2       28.1770   -5.0440   14.4630 C.ar  220  PHE220     -0.0042
    142  CE1       26.7900   -2.8820   13.1620 C.ar  220  PHE220     -0.0003
    143  CE2       27.6540   -5.2390   13.1730 C.ar  220  PHE220     -0.0003
    144  CZ        26.9570   -4.0990   12.4990 C.ar  220  PHE220     -0.0000
    145  N         26.6300   -2.2470   18.5370 N.am  221  HIS221     -0.1961
    146  CA        25.3220   -1.7190   18.9930 C.3   221  HIS221      0.1787
    147  C         25.4000   -1.4040   20.5250 C.2   221  HIS221      0.2620
    148  O         25.7400   -2.2880   21.3230 O.2   221  HIS221     -0.2715
    149  CB        24.2190   -2.7290   18.7320 C.3   221  HIS221      0.0785
    150  CG        24.0630   -3.0740   17.2910 C.ar  221  HIS221      0.0821
    151  ND1       24.6980   -4.1600   16.7160 N.ar  221  HIS221     -0.2267
    152  CD2       23.3900   -2.4400   16.3000 C.ar  221  HIS221      0.1154
    153  CE1       24.3840   -4.2000   15.4160 C.ar  221  HIS221      0.1986
    154  NE2       23.5780   -3.1730   15.1410 N.ar  221  HIS221     -0.2212
    155  N         25.0360   -0.1950   20.8990 N.am  222  THR222     -0.1951
    156  CA        25.1140    0.1730   22.3420 C.3   222  THR222      0.1897
    157  C         24.2170    1.3430   22.5580 C.2   222  THR222      0.2313
    158  O         23.6100    1.8390   21.5670 O.2   222  THR222     -0.2863
    159  CB        26.5740    0.4850   22.7470 C.3   222  THR222      0.1794
    160  OG1       26.6790    0.6170   24.1830 O.3   222  THR222     -0.2208
    161  CG2       27.0620    1.7750   22.1150 C.3   222  THR222      0.0378
    162  N         19.2460    3.6300   22.4300 N.3   225  ASN225     -0.1240
    163  CA        18.3770    3.0150   21.4210 C.3   225  ASN225      0.1653
    164  C         17.7310    4.1750   20.6910 C.2   225  ASN225      0.2266
    165  O         17.4200    5.2030   21.3390 O.2   225  ASN225     -0.2867
    166  CB        17.3050    2.1670   22.1160 C.3   225  ASN225      0.1155
    167  CG        16.5130    1.3510   21.1420 C.2   225  ASN225      0.2627
    168  OD1       17.0920    0.5810   20.3460 O.2   225  ASN225     -0.2716
    169  ND2       15.1820    1.5140   21.1620 N.am  225  ASN225     -0.0877
    170  N         18.2860    5.0150   11.2150 N.3   247  GLU247     -0.1245
    171  CA        18.2560    4.0640   10.0600 C.3   247  GLU247      0.1567
    172  C         16.8440    3.6140    9.7590 C.2   247  GLU247      0.2260
    173  O         16.5160    2.4020    9.7980 O.2   247  GLU247     -0.2867
    174  CB        19.2130    2.8920   10.2420 C.3   247  GLU247      0.0388
    175  CG        19.0270    2.0310   11.5450 C.3   247  GLU247      0.1160
    176  CD        20.0690    0.9340   11.5610 C.2   247  GLU247      0.3649
    177  OE1       20.8520    0.8780   12.5820 O.co2 247  GLU247     -0.2457
    178  OE2       20.1320    0.1160   10.5810 O.co2 247  GLU247     -0.2457
    179  N         13.3020    2.3410    8.4220 N.3   249  MET249     -0.1245
    180  CA        12.7670    1.3830    7.4780 C.3   249  MET249      0.1570
    181  C         11.3170    1.7410    7.3400 C.2   249  MET249      0.2261
    182  O         10.5830    1.7850    8.3270 O.2   249  MET249     -0.2867
    183  CB        12.8850   -0.0260    8.0620 C.3   249  MET249      0.0387
    184  CG        14.3420   -0.5280    8.0660 C.3   249  MET249      0.0595
    185  SD        14.6750   -1.4720    9.6370 S.3   249  MET249     -0.1393
    186  CE        14.7870   -0.1660   10.8590 C.3   249  MET249      0.0692
    187  N         17.2130  -14.4410   10.3090 N.3   264  TRP264     -0.1241
    188  CA        17.7640  -13.1000    9.9990 C.3   264  TRP264      0.1605
    189  C         16.8820  -12.2190    9.1250 C.2   264  TRP264      0.2264
    190  O         16.5710  -11.0350    9.4430 O.2   264  TRP264     -0.2867
    191  CB        19.0970  -13.2340    9.2670 C.3   264  TRP264      0.0550
    192  CG        20.1950  -13.5710   10.2500 C.ar  264  TRP264      0.0003
    193  CD1       20.8330  -14.7940   10.4110 C.ar  264  TRP264      0.0946
    194  CD2       20.6770  -12.7190   11.2910 C.ar  264  TRP264      0.0152
    195  NE1       21.7270  -14.7150   11.4600 N.ar  264  TRP264     -0.2442
    196  CE2       21.6540  -13.4590   12.0110 C.ar  264  TRP264      0.0810
    197  CE3       20.4590  -11.3670   11.6200 C.ar  264  TRP264      0.0012
    198  CZ2       22.3940  -12.8890   13.0750 C.ar  264  TRP264      0.0191
    199  CZ3       21.1630  -10.8130   12.7240 C.ar  264  TRP264      0.0001
    200  CH2       22.1190  -11.5780   13.4150 C.ar  264  TRP264      0.0015
    201  N         15.1350    1.6360    3.1880 N.3   276  GLN276     -0.1245
    202  CA        15.8890    2.0660    4.3700 C.3   276  GLN276      0.1566
    203  C         17.0650    2.9700    3.9710 C.2   276  GLN276      0.2260
    204  O         17.6830    2.7410    2.9170 O.2   276  GLN276     -0.2867
    205  CB        16.4610    0.7780    5.0260 C.3   276  GLN276      0.0367
    206  CG        17.1090    1.1480    6.3930 C.3   276  GLN276      0.0905
    207  CD        17.7020   -0.0540    7.1710 C.2   276  GLN276      0.2608
    208  OE1       17.9560   -1.0780    6.6180 O.2   276  GLN276     -0.2717
    209  NE2       17.9390    0.1150    8.4720 N.am  276  GLN276     -0.0878
    210  N         20.6580    4.7250    6.1660 N.3   278  GLU278     -0.1245
    211  CA        21.2760    4.8320    7.5040 C.3   278  GLU278      0.1567
    212  C         22.5050    5.7230    7.4190 C.2   278  GLU278      0.2260
    213  O         23.3060    5.5750    6.4650 O.2   278  GLU278     -0.2867
    214  CB        21.6870    3.4120    7.9300 C.3   278  GLU278      0.0388
    215  CG        22.4560    3.4440    9.3200 C.3   278  GLU278      0.1160
    216  CD        22.7730    2.0620    9.7490 C.2   278  GLU278      0.3649
    217  OE1       22.8630    1.1740    8.8750 O.co2 278  GLU278     -0.2457
    218  OE2       22.9660    1.8130   10.9630 O.co2 278  GLU278     -0.2457
@<TRIPOS>BOND
     1    64    63    2
     2   204   203    2
     3    63    62    1
     4   201   202    1
     5    83    84    1
     6   203   202    1
     7   202   205    1
     8    62    61    1
     9    62    65    1
    10    84    85    1
    11    84    87    1
    12    85    86    2
    13   205   206    1
    14    65    66    1
    15    87    88    1
    16   210   211    1
    17    67    68    1
    18   206   207    1
    19    75    76    2
    20    75    74    1
    21   213   212    2
    22   208   207    2
    23    68    69    1
    24    68    71    1
    25    88    89   ar
    26    88    90   ar
    27    60    59   ar
    28    60    58   ar
    29    69    73   am
    30    69    70    2
    31    73    74    1
    32    59    57   ar
    33   207   209   am
    34    91    92    1
    35   181   180    1
    36   181   182    2
    37    74    77    1
    38   212   211    1
    39   180   183    1
    40   180   179    1
    41   211   214    1
    42   214   215    1
    43    58    56   ar
    44    71    72    1
    45   183   184    1
    46   184   185    1
    47    94    93    2
    48    57    55   ar
    49    93    92    1
    50    92    95    1
    51    24    23    1
    52    24    25    1
    53    77    78    1
    54   217   216   ar
    55    23    20    1
    56    25    19    1
    57   100   101    2
    58   100    99    1
    59   189   190    2
    60   189   188    1
    61    56    55   ar
    62   191   188    1
    63   191   192    1
    64   215   216    1
    65    55    54    1
    66   185   186    1
    67   104   103   ar
    68   216   218   ar
    69   172   173    2
    70   172   171    1
    71    52    53    2
    72    52    51    1
    73    96    95    1
    74    95    97    1
    75    80    78   ar
    76    80    82   ar
    77    99    98    1
    78    99   102    1
    79    78    79   ar
    80   188   187    1
    81   171   174    1
    82   171   170    1
    83    19    20    1
    84   174   175    1
    85   192   193   ar
    86   192   194   ar
    87    20    21    1
    88    21    22    2
    89   193   195   ar
    90   178   176   ar
    91    54    51    1
    92    51    50    1
    93   103   102    1
    94   103   105   ar
    95    82    81   ar
    96    79    81   ar
    97   194   197   ar
    98   194   196   ar
    99   195   196   ar
   100   175   176    1
   101   176   177   ar
   102   197   199   ar
   103   196   198   ar
   104   115   113   ar
   105   115   116   ar
   106   113   111   ar
   107   144   142   ar
   108   144   143   ar
   109   117   116    1
   110   199   200   ar
   111   116   114   ar
   112   198   200   ar
   113   111   110    1
   114   111   112   ar
   115   142   140   ar
   116   143   141   ar
   117   110   107    1
   118    26    27    1
   119   114   112   ar
   120    29    28    2
   121    30    27    1
   122    30    31    1
   123   109   108    2
   124   141   139   ar
   125    27    28    1
   126   133   132   ar
   127   133   131   ar
   128   140   139   ar
   129   107   106    1
   130   107   108    1
   131   108   118   am
   132    28    38   am
   133    41    40    2
   134   139   138    1
   135   154   153   ar
   136   154   152   ar
   137   132   130   ar
   138    31    33   ar
   139    31    32   ar
   140    40    39    1
   141    33    35   ar
   142   121   120    2
   143   131   129   ar
   144   153   151   ar
   145   120   119    1
   146   118   119    1
   147   119   122    1
   148    38    39    1
   149    35    36   ar
   150    32    34   ar
   151   152   150   ar
   152    39    42    1
   153   130   129   ar
   154   138   135    1
   155   129   128    1
   156   151   150   ar
   157   137   136    2
   158    42    43    1
   159   124   125    1
   160   127   126    2
   161   135   136    1
   162   135   134    1
   163   150   149    1
   164    34    36   ar
   165    36    37    1
   166   136   145   am
   167   122   123    1
   168   128   125    1
   169   125   126    1
   170    43    44   ar
   171    43    45   ar
   172    44    46   ar
   173   145   146    1
   174   149   146    1
   175   146   147    1
   176    45    47   ar
   177    46    48   ar
   178     9     7   ar
   179   168   167    2
   180   147   155   am
   181   147   148    2
   182     8     7   ar
   183     7     6    1
   184    47    48   ar
   185   164   165    2
   186   164   163    1
   187    48    49    1
   188   155   156    1
   189   167   169   am
   190   167   166    1
   191   163   166    1
   192   163   162    1
   193   158   157    2
   194     6     5    1
   195   161   159    1
   196   156   157    1
   197   156   159    1
   198   159   160    1
   199     5     2    1
   200     1     2    1
   201     2     3    1
   202     3     4    2
   203    17    18    1
   204    17    16    1
   205    13    12    2
   206    15    16    1
   207    15    14    1
   208    11    14    1
   209    11    12    1
   210    11    10    1
