@<TRIPOS>MOLECULE
tmp/4flkA00.pdb
 201 194 0 0 0
SMALL
GASTEIGER

@<TRIPOS>ATOM
      1  N         29.4160   -5.9520   24.5150 N.3    39  GLU39      -0.1245
      2  CA        28.0250   -5.4900   24.5030 C.3    39  GLU39       0.1567
      3  C         27.1640   -6.1430   25.6350 C.2    39  GLU39       0.2260
      4  O         26.3180   -5.4800   26.2530 O.2    39  GLU39      -0.2867
      5  CB        27.3680   -5.7700   23.1190 C.3    39  GLU39       0.0388
      6  CG        27.9430   -4.9210   22.0420 C.3    39  GLU39       0.1160
      7  CD        27.2830   -5.2680   20.6940 C.2    39  GLU39       0.3649
      8  OE1       26.3390   -6.0550   20.5780 O.co2  39  GLU39      -0.2457
      9  OE2       27.8110   -4.6180   19.7570 O.co2  39  GLU39      -0.2457
     10  N         29.4520   -7.2090   10.2390 N.3   103  PRO103     -0.2116
     11  CA        28.3550   -8.1970   10.3410 C.3   103  PRO103      0.1372
     12  C         28.8340   -9.6480   10.4010 C.2   103  PRO103      0.2244
     13  O         28.0440  -10.5480   10.8610 O.2   103  PRO103     -0.2868
     14  CB        27.5860   -8.0280    8.9200 C.3   103  PRO103      0.0268
     15  CG        27.8720   -6.5930    8.6290 C.3   103  PRO103      0.0207
     16  CD        29.3360   -6.4790    8.8770 C.3   103  PRO103      0.0892
     17  N         28.4870  -11.8230   13.5040 N.3   106  TYR106     -0.1241
     18  CA        27.8230  -11.1130   14.5710 C.3   106  TYR106      0.1605
     19  C         26.5440  -11.8690   14.8430 C.2   106  TYR106      0.2264
     20  O         25.6340  -12.0230   14.0530 O.2   106  TYR106     -0.2867
     21  CB        27.4680   -9.6400   14.1670 C.3   106  TYR106      0.0534
     22  CG        26.8520   -8.8280   15.2870 C.ar  106  TYR106     -0.0201
     23  CD1       27.6650   -8.3510   16.3060 C.ar  106  TYR106     -0.0009
     24  CD2       25.4990   -8.5360   15.2820 C.ar  106  TYR106     -0.0009
     25  CE1       27.1080   -7.6410   17.3340 C.ar  106  TYR106      0.0417
     26  CE2       24.9050   -7.7410   16.3000 C.ar  106  TYR106      0.0417
     27  CZ        25.7520   -7.3340   17.3550 C.ar  106  TYR106      0.1957
     28  OH        25.1990   -6.5290   18.3590 O.3   106  TYR106     -0.2866
     29  N         25.7400  -14.1790   12.1210 N.3   109  PHE109     -0.1241
     30  CA        25.3130  -13.7280   10.7710 C.3   109  PHE109      0.1605
     31  C         26.3650  -14.2480    9.8090 C.2   109  PHE109      0.2264
     32  O         27.5520  -14.1170   10.0440 O.2   109  PHE109     -0.2867
     33  CB        25.1840  -12.2110   10.8100 C.3   109  PHE109      0.0534
     34  CG        24.6600  -11.6650    9.4720 C.ar  109  PHE109     -0.0203
     35  CD1       23.2840  -11.7630    9.2500 C.ar  109  PHE109     -0.0042
     36  CD2       25.5610  -11.1740    8.4610 C.ar  109  PHE109     -0.0042
     37  CE1       22.7790  -11.2740    8.0010 C.ar  109  PHE109     -0.0003
     38  CE2       25.0050  -10.7130    7.1670 C.ar  109  PHE109     -0.0003
     39  CZ        23.6220  -10.7650    7.0100 C.ar  109  PHE109     -0.0000
     40  N         24.5120   -6.8170    4.5720 N.3   114  CYS114     -0.1235
     41  CA        23.1390   -7.2230    4.4230 C.3   114  CYS114      0.1677
     42  C         22.6050   -6.7020    3.1070 C.2   114  CYS114      0.2270
     43  O         22.8190   -5.5510    2.7320 O.2   114  CYS114     -0.2867
     44  CB        22.1890   -6.6930    5.4750 C.3   114  CYS114      0.0956
     45  SG        22.7400   -7.0190    7.1660 S.3   114  CYS114     -0.0801
     46  N         14.9840   -5.6130    6.3060 N.3   122  CYS122     -0.1221
     47  CA        16.4380   -5.5230    6.6350 C.3   122  CYS122      0.1808
     48  C         16.9260   -6.9570    6.9410 C.2   122  CYS122      0.2601
     49  O         16.2050   -7.9080    7.0820 O.2   122  CYS122     -0.2717
     50  CB        16.5590   -4.6370    7.9360 C.3   122  CYS122      0.0970
     51  SG        15.7210   -5.3440    9.4830 S.3   122  CYS122     -0.0800
     52  N         18.2610   -7.0010    7.0300 N.am  123  HIS123     -0.1975
     53  CA        19.0070   -8.1940    7.4100 C.3   123  HIS123      0.1656
     54  C         18.9620   -9.3270    6.4370 C.2   123  HIS123      0.2291
     55  O         19.2160  -10.4810    6.7000 O.2   123  HIS123     -0.2864
     56  CB        18.6660   -8.6960    8.8210 C.3   123  HIS123      0.0771
     57  CG        18.8110   -7.6590    9.8860 C.ar  123  HIS123      0.0820
     58  ND1       18.3380   -7.9120   11.1540 N.ar  123  HIS123     -0.2267
     59  CD2       19.2690   -6.3720    9.8970 C.ar  123  HIS123      0.1154
     60  CE1       18.5330   -6.8580   11.9110 C.ar  123  HIS123      0.1986
     61  NE2       19.1400   -5.9220   11.2010 N.ar  123  HIS123     -0.2212
     62  N         23.6820   -2.8270    3.1590 N.3   140  ASP140     -0.1239
     63  CA        23.9310   -2.2280    4.5520 C.3   140  ASP140      0.1674
     64  C         25.3640   -2.7070    4.8870 C.2   140  ASP140      0.2266
     65  O         25.6390   -3.9130    4.9740 O.2   140  ASP140     -0.2867
     66  CB        22.8900   -2.6430    5.6340 C.3   140  ASP140      0.1410
     67  CG        23.0410   -1.8340    7.0570 C.2   140  ASP140      0.3668
     68  OD1       24.1370   -1.4910    7.1740 O.co2 140  ASP140     -0.2456
     69  OD2       22.0120   -1.5650    7.4720 O.co2 140  ASP140     -0.2456
     70  N         28.8200   -2.3360    7.4250 N.3   142  THR142     -0.1218
     71  CA        29.4350   -1.8630    8.7020 C.3   142  THR142      0.1862
     72  C         30.8970   -2.3870    8.6880 C.2   142  THR142      0.2287
     73  O         31.1640   -3.5750    8.3630 O.2   142  THR142     -0.2866
     74  CB        28.7080   -2.4570    9.9030 C.3   142  THR142      0.1770
     75  OG1       27.2920   -2.2900    9.7510 O.3   142  THR142     -0.2211
     76  CG2       29.1740   -1.8000   11.1780 C.3   142  THR142      0.0375
     77  N         28.6730    2.5340   10.3910 N.3   151  ASP151     -0.1239
     78  CA        27.4430    1.8290    9.8650 C.3   151  ASP151      0.1674
     79  C         26.6540    2.7270    8.9540 C.2   151  ASP151      0.2266
     80  O         26.3460    3.8710    9.3420 O.2   151  ASP151     -0.2867
     81  CB        26.7130    1.3980   11.1750 C.3   151  ASP151      0.1410
     82  CG        25.5620    0.4560   10.9690 C.2   151  ASP151      0.3668
     83  OD1       25.4200   -0.1050    9.7760 O.co2 151  ASP151     -0.2456
     84  OD2       24.8730    0.0870   11.9550 O.co2 151  ASP151     -0.2456
     85  N         12.7450   -2.7280   14.8520 N.3   211  TYR211     -0.1227
     86  CA        14.1730   -2.4770   14.5910 C.3   211  TYR211      0.1736
     87  C         14.3970   -0.9870   14.7240 C.2   211  TYR211      0.2596
     88  O         13.5860   -0.1670   14.1970 O.2   211  TYR211     -0.2718
     89  CB        14.5250   -2.9550   13.1400 C.3   211  TYR211      0.0548
     90  CG        14.4390   -4.4520   13.0140 C.ar  211  TYR211     -0.0200
     91  CD1       15.4470   -5.2750   13.4790 C.ar  211  TYR211     -0.0009
     92  CD2       13.3110   -4.9930   12.3930 C.ar  211  TYR211     -0.0009
     93  CE1       15.3150   -6.6970   13.4000 C.ar  211  TYR211      0.0417
     94  CE2       13.1810   -6.4260   12.2640 C.ar  211  TYR211      0.0417
     95  CZ        14.1860   -7.1940   12.7240 C.ar  211  TYR211      0.1957
     96  OH        14.0820   -8.6060   12.6170 O.3   211  TYR211     -0.2866
     97  N         15.5000   -0.6470   15.3910 N.am  212  CYS212     -0.1956
     98  CA        15.7990    0.7570   15.7500 C.3   212  CYS212      0.1843
     99  C         17.2270    1.1740   15.3860 C.2   212  CYS212      0.2626
    100  O         18.0760    0.2860   15.1970 O.2   212  CYS212     -0.2714
    101  CB        15.5950    0.9110   17.2790 C.3   212  CYS212      0.0997
    102  SG        13.8390    0.6800   17.8530 S.3   212  CYS212     -0.0797
    103  N         17.5070    2.4980   15.3630 N.am  213  GLY213     -0.1940
    104  CA        18.8630    2.9820   15.3280 C.3   213  GLY213      0.2014
    105  C         19.4490    2.8720   16.7410 C.2   213  GLY213      0.2638
    106  O         18.7610    2.3850   17.6380 O.2   213  GLY213     -0.2714
    107  N         20.7340    3.1520   16.8430 N.am  214  HIS214     -0.1973
    108  CA        21.5120    2.7220   18.0290 C.3   214  HIS214      0.1656
    109  C         22.7690    3.5120   18.1160 C.2   214  HIS214      0.2291
    110  O         23.4020    4.0070   17.1930 O.2   214  HIS214     -0.2864
    111  CB        21.8230    1.2570   17.8640 C.3   214  HIS214      0.0771
    112  CG        22.5140    0.9460   16.5070 C.ar  214  HIS214      0.0820
    113  ND1       23.8730    0.9570   16.3650 N.ar  214  HIS214     -0.2267
    114  CD2       21.9710    0.6580   15.2630 C.ar  214  HIS214      0.1154
    115  CE1       24.1650    0.6970   15.0710 C.ar  214  HIS214      0.1986
    116  NE2       23.0080    0.5900   14.3560 N.ar  214  HIS214     -0.2212
    117  N         29.1660   -2.3770   18.4450 N.3   220  PHE220     -0.1227
    118  CA        28.3390   -2.2650   17.1560 C.3   220  PHE220      0.1736
    119  C         26.9600   -1.7070   17.5650 C.2   220  PHE220      0.2595
    120  O         26.4810   -0.6890   16.9540 O.2   220  PHE220     -0.2718
    121  CB        28.2820   -3.6860   16.5980 C.3   220  PHE220      0.0547
    122  CG        27.7500   -3.7930   15.1630 C.ar  220  PHE220     -0.0202
    123  CD1       27.0140   -2.7720   14.5700 C.ar  220  PHE220     -0.0042
    124  CD2       27.9420   -4.9780   14.5770 C.ar  220  PHE220     -0.0042
    125  CE1       26.5130   -2.9470   13.2310 C.ar  220  PHE220     -0.0003
    126  CE2       27.4530   -5.2570   13.2430 C.ar  220  PHE220     -0.0003
    127  CZ        26.7170   -4.1410   12.6200 C.ar  220  PHE220     -0.0000
    128  N         26.2960   -2.2700   18.6090 N.am  221  HIS221     -0.1961
    129  CA        24.9990   -1.7620   19.0610 C.3   221  HIS221      0.1787
    130  C         25.1020   -1.4270   20.5710 C.2   221  HIS221      0.2620
    131  O         25.4570   -2.3210   21.3230 O.2   221  HIS221     -0.2715
    132  CB        23.8950   -2.8020   18.8140 C.3   221  HIS221      0.0785
    133  CG        23.7460   -3.1620   17.3430 C.ar  221  HIS221      0.0821
    134  ND1       24.3680   -4.2560   16.8310 N.ar  221  HIS221     -0.2267
    135  CD2       23.0900   -2.5440   16.3370 C.ar  221  HIS221      0.1154
    136  CE1       24.0970   -4.2970   15.5060 C.ar  221  HIS221      0.1986
    137  NE2       23.3020   -3.2810   15.2110 N.ar  221  HIS221     -0.2212
    138  N         24.7850   -0.2070   20.9090 N.am  222  THR222     -0.1951
    139  CA        24.8120    0.1890   22.3740 C.3   222  THR222      0.1897
    140  C         23.8540    1.3280   22.5950 C.2   222  THR222      0.2313
    141  O         23.2050    1.8510   21.6700 O.2   222  THR222     -0.2863
    142  CB        26.2480    0.4670   22.7530 C.3   222  THR222      0.1794
    143  OG1       26.3160    0.5430   24.2030 O.3   222  THR222     -0.2208
    144  CG2       26.7730    1.7660   22.2010 C.3   222  THR222      0.0378
    145  N         18.9670    3.5480   22.3440 N.3   225  ASN225     -0.1240
    146  CA        18.0320    3.0400   21.3480 C.3   225  ASN225      0.1653
    147  C         17.3860    4.2220   20.6850 C.2   225  ASN225      0.2266
    148  O         16.9790    5.2170   21.2920 O.2   225  ASN225     -0.2867
    149  CB        16.9240    2.1720   22.0180 C.3   225  ASN225      0.1155
    150  CG        17.4900    0.9910   22.7360 C.2   225  ASN225      0.2627
    151  OD1       18.4070    0.3330   22.2550 O.2   225  ASN225     -0.2716
    152  ND2       16.9270    0.6840   23.9230 N.am  225  ASN225     -0.0877
    153  N         18.1510    5.0320   11.1350 N.3   247  GLU247     -0.1245
    154  CA        18.1080    4.0330   10.0280 C.3   247  GLU247      0.1567
    155  C         16.6640    3.6130    9.7070 C.2   247  GLU247      0.2260
    156  O         16.3240    2.4070    9.7520 O.2   247  GLU247     -0.2867
    157  CB        19.0070    2.8350   10.2190 C.3   247  GLU247      0.0388
    158  CG        18.8350    2.0190   11.5680 C.3   247  GLU247      0.1160
    159  CD        19.8770    0.9770   11.5870 C.2   247  GLU247      0.3649
    160  OE1       19.9200    0.1030   10.6390 O.co2 247  GLU247     -0.2457
    161  OE2       20.6520    0.9340   12.6090 O.co2 247  GLU247     -0.2457
    162  N         13.1890    2.2930    8.4720 N.3   249  MET249     -0.1245
    163  CA        12.5650    1.3700    7.4980 C.3   249  MET249      0.1570
    164  C         11.0730    1.7640    7.3300 C.2   249  MET249      0.2261
    165  O         10.3340    1.7890    8.3500 O.2   249  MET249     -0.2867
    166  CB        12.7550   -0.0930    7.9990 C.3   249  MET249      0.0387
    167  CG        14.2520   -0.5340    8.0940 C.3   249  MET249      0.0595
    168  SD        14.5510   -1.4920    9.5900 S.3   249  MET249     -0.1393
    169  CE        14.6150   -0.1690   10.8390 C.3   249  MET249      0.0692
    170  N         17.0190  -14.5140   10.2890 N.3   264  TRP264     -0.1241
    171  CA        17.5990  -13.1870   10.0480 C.3   264  TRP264      0.1605
    172  C         16.6750  -12.3010    9.1540 C.2   264  TRP264      0.2264
    173  O         16.4850  -11.1420    9.4480 O.2   264  TRP264     -0.2867
    174  CB        18.9520  -13.2570    9.3390 C.3   264  TRP264      0.0550
    175  CG        20.0390  -13.6380   10.3200 C.ar  264  TRP264      0.0003
    176  CD1       20.6540  -14.8920   10.4710 C.ar  264  TRP264      0.0946
    177  CD2       20.5370  -12.7650   11.2900 C.ar  264  TRP264      0.0152
    178  NE1       21.5660  -14.7670   11.4970 N.ar  264  TRP264     -0.2442
    179  CE2       21.5190  -13.5130   12.0310 C.ar  264  TRP264      0.0810
    180  CE3       20.2830  -11.4380   11.6060 C.ar  264  TRP264      0.0012
    181  CZ2       22.2670  -12.9210   13.0860 C.ar  264  TRP264      0.0191
    182  CZ3       20.9950  -10.8160   12.7400 C.ar  264  TRP264      0.0001
    183  CH2       22.0360  -11.5950   13.4070 C.ar  264  TRP264      0.0015
    184  N         14.9530    1.6280    3.1650 N.3   276  GLN276     -0.1245
    185  CA        15.7130    2.0970    4.3860 C.3   276  GLN276      0.1566
    186  C         16.9080    2.9670    3.8970 C.2   276  GLN276      0.2260
    187  O         17.4810    2.7670    2.7710 O.2   276  GLN276     -0.2867
    188  CB        16.1960    0.8160    5.0190 C.3   276  GLN276      0.0367
    189  CG        16.8890    1.1670    6.3760 C.3   276  GLN276      0.0905
    190  CD        17.4730   -0.0440    7.0960 C.2   276  GLN276      0.2608
    191  OE1       17.7610   -1.0720    6.5820 O.2   276  GLN276     -0.2717
    192  NE2       17.7130    0.1350    8.4210 N.am  276  GLN276     -0.0878
    193  N         20.4710    4.7630    6.1600 N.3   278  GLU278     -0.1245
    194  CA        21.1550    4.8720    7.4900 C.3   278  GLU278      0.1567
    195  C         22.3820    5.7660    7.3310 C.2   278  GLU278      0.2260
    196  O         23.1880    5.5980    6.4290 O.2   278  GLU278     -0.2867
    197  CB        21.5520    3.4450    7.9280 C.3   278  GLU278      0.0388
    198  CG        22.3650    3.4820    9.2490 C.3   278  GLU278      0.1160
    199  CD        22.6840    2.0560    9.6450 C.2   278  GLU278      0.3649
    200  OE1       22.7840    1.1190    8.8590 O.co2 278  GLU278     -0.2457
    201  OE2       22.7850    1.8050   10.9040 O.co2 278  GLU278     -0.2457
@<TRIPOS>BOND
     1    43    42    2
     2   187   186    2
     3    42    41    1
     4    62    63    1
     5   184   185    1
     6   186   185    1
     7   185   188    1
     8    41    40    1
     9    41    44    1
    10    63    64    1
    11    63    66    1
    12    64    65    2
    13   188   189    1
    14    44    45    1
    15    66    67    1
    16   193   194    1
    17    46    47    1
    18   189   190    1
    19   196   195    2
    20    54    55    2
    21    54    53    1
    22   191   190    2
    23    47    48    1
    24    47    50    1
    25    48    52   am
    26    48    49    2
    27    39    38   ar
    28    39    37   ar
    29    52    53    1
    30    67    68   ar
    31    67    69   ar
    32   190   192   am
    33    38    36   ar
    34   164   163    1
    35   164   165    2
    36   195   194    1
    37    53    56    1
    38    70    71    1
    39   194   197    1
    40   163   166    1
    41   163   162    1
    42   197   198    1
    43    50    51    1
    44   166   167    1
    45    37    35   ar
    46   167   168    1
    47    73    72    2
    48    36    34   ar
    49    15    16    1
    50    15    14    1
    51    72    71    1
    52    71    74    1
    53    56    57    1
    54   200   199   ar
    55    16    10    1
    56    14    11    1
    57    79    80    2
    58    79    78    1
    59   172   173    2
    60   172   171    1
    61   198   199    1
    62    35    34   ar
    63   174   171    1
    64   174   175    1
    65    34    33    1
    66   168   169    1
    67   199   201   ar
    68   155   156    2
    69   155   154    1
    70    75    74    1
    71    83    82   ar
    72    31    32    2
    73    31    30    1
    74    78    77    1
    75    78    81    1
    76    57    59   ar
    77    57    58   ar
    78    59    61   ar
    79    74    76    1
    80   154   157    1
    81   154   153    1
    82   171   170    1
    83   157   158    1
    84    10    11    1
    85   175   176   ar
    86   175   177   ar
    87    11    12    1
    88    12    13    2
    89   176   178   ar
    90   160   159   ar
    91    30    33    1
    92    30    29    1
    93    82    81    1
    94    82    84   ar
    95    58    60   ar
    96    61    60   ar
    97   177   180   ar
    98   177   179   ar
    99   178   179   ar
   100   158   159    1
   101   159   161   ar
   102   180   182   ar
   103   179   181   ar
   104    94    92   ar
   105    94    95   ar
   106    92    90   ar
   107    96    95    1
   108   127   125   ar
   109   127   126   ar
   110    95    93   ar
   111   182   183   ar
   112    90    89    1
   113    90    91   ar
   114   181   183   ar
   115    89    86    1
   116   125   123   ar
   117   126   124   ar
   118    93    91   ar
   119    17    18    1
   120    20    19    2
   121    21    18    1
   122    21    22    1
   123    88    87    2
   124   116   115   ar
   125   116   114   ar
   126   123   122   ar
   127    18    19    1
   128   124   122   ar
   129    86    87    1
   130    86    85    1
   131    87    97   am
   132   115   113   ar
   133   122   121    1
   134   100    99    2
   135   137   136   ar
   136   137   135   ar
   137   114   112   ar
   138    24    22   ar
   139    24    26   ar
   140    22    23   ar
   141   104   103    1
   142   104   105    1
   143   103    99   am
   144    99    98    1
   145    97    98    1
   146   136   134   ar
   147    98   101    1
   148    26    27   ar
   149    23    25   ar
   150   135   133   ar
   151   113   112   ar
   152   112   111    1
   153   121   118    1
   154   105   107   am
   155   105   106    2
   156   134   133   ar
   157   107   108    1
   158   120   119    2
   159   118   119    1
   160   118   117    1
   161   110   109    2
   162   101   102    1
   163    25    27   ar
   164   133   132    1
   165    27    28    1
   166   119   128   am
   167   111   108    1
   168   108   109    1
   169   128   129    1
   170   132   129    1
   171   129   130    1
   172     9     7   ar
   173   130   138   am
   174   130   131    2
   175     8     7   ar
   176   147   148    2
   177   147   146    1
   178     7     6    1
   179   138   139    1
   180   146   149    1
   181   146   145    1
   182   141   140    2
   183   149   150    1
   184     6     5    1
   185   144   142    1
   186   151   150    2
   187   139   140    1
   188   139   142    1
   189   150   152   am
   190   142   143    1
   191     5     2    1
   192     2     1    1
   193     2     3    1
   194     3     4    2
