@<TRIPOS>MOLECULE
tmp/4fllA00.pdb
 210 206 0 0 0
SMALL
GASTEIGER

@<TRIPOS>ATOM
      1  N         29.4790   -7.2730   10.2410 N.3   103  PRO103     -0.2116
      2  CA        28.3930   -8.2660   10.3250 C.3   103  PRO103      0.1372
      3  C         28.8550   -9.7030   10.3720 C.2   103  PRO103      0.2244
      4  O         28.0890  -10.5810   10.8580 O.2   103  PRO103     -0.2868
      5  CB        27.6160   -8.0500    8.9620 C.3   103  PRO103      0.0268
      6  CG        27.8600   -6.6330    8.6280 C.3   103  PRO103      0.0207
      7  CD        29.3970   -6.5010    8.9420 C.3   103  PRO103      0.0892
      8  N         28.5440  -11.8650   13.5140 N.3   106  TYR106     -0.1241
      9  CA        27.9050  -11.1310   14.5850 C.3   106  TYR106      0.1605
     10  C         26.6370  -11.8960   14.8870 C.2   106  TYR106      0.2264
     11  O         25.7500  -12.0550   14.0870 O.2   106  TYR106     -0.2867
     12  CB        27.5200   -9.6750   14.1510 C.3   106  TYR106      0.0534
     13  CG        26.9410   -8.8600   15.2910 C.ar  106  TYR106     -0.0201
     14  CD1       27.7250   -8.4080   16.2830 C.ar  106  TYR106     -0.0009
     15  CD2       25.5900   -8.5560   15.3260 C.ar  106  TYR106     -0.0009
     16  CE1       27.2170   -7.6680   17.3340 C.ar  106  TYR106      0.0417
     17  CE2       25.0250   -7.7180   16.2930 C.ar  106  TYR106      0.0417
     18  CZ        25.8370   -7.3200   17.3410 C.ar  106  TYR106      0.1957
     19  OH        25.3360   -6.4890   18.3190 O.3   106  TYR106     -0.2866
     20  N         25.7640  -14.2040   12.1620 N.3   109  PHE109     -0.1241
     21  CA        25.3660  -13.7590   10.7940 C.3   109  PHE109      0.1605
     22  C         26.3790  -14.2730    9.8220 C.2   109  PHE109      0.2264
     23  O         27.6000  -14.1150   10.0750 O.2   109  PHE109     -0.2867
     24  CB        25.3080  -12.2630   10.7880 C.3   109  PHE109      0.0534
     25  CG        24.7490  -11.7270    9.4780 C.ar  109  PHE109     -0.0203
     26  CD1       23.3320  -11.7420    9.2410 C.ar  109  PHE109     -0.0042
     27  CD2       25.5680  -11.2390    8.4990 C.ar  109  PHE109     -0.0042
     28  CE1       22.8140  -11.2810    7.9900 C.ar  109  PHE109     -0.0003
     29  CE2       25.0430  -10.8050    7.2500 C.ar  109  PHE109     -0.0003
     30  CZ        23.6170  -10.7980    7.0060 C.ar  109  PHE109     -0.0000
     31  N         24.5820   -6.8910    4.6310 N.3   114  CYS114     -0.1235
     32  CA        23.1940   -7.3360    4.4560 C.3   114  CYS114      0.1677
     33  C         22.6780   -6.7700    3.1430 C.2   114  CYS114      0.2270
     34  O         22.9480   -5.6590    2.7340 O.2   114  CYS114     -0.2867
     35  CB        22.2600   -6.7830    5.5000 C.3   114  CYS114      0.0956
     36  SG        22.7910   -7.0480    7.1820 S.3   114  CYS114     -0.0801
     37  N         15.0300   -5.6870    6.3110 N.3   122  CYS122     -0.1221
     38  CA        16.5150   -5.5810    6.6760 C.3   122  CYS122      0.1808
     39  C         17.0040   -6.9900    6.9630 C.2   122  CYS122      0.2601
     40  O         16.2910   -7.9790    7.0960 O.2   122  CYS122     -0.2717
     41  CB        16.6440   -4.6970    7.9730 C.3   122  CYS122      0.0970
     42  SG        15.7730   -5.4280    9.4910 S.3   122  CYS122     -0.0800
     43  N         18.3400   -7.0490    7.1260 N.am  123  HIS123     -0.1975
     44  CA        19.0620   -8.2340    7.4700 C.3   123  HIS123      0.1656
     45  C         19.0650   -9.3540    6.4530 C.2   123  HIS123      0.2291
     46  O         19.2330  -10.5110    6.7550 O.2   123  HIS123     -0.2864
     47  CB        18.7350   -8.7470    8.9140 C.3   123  HIS123      0.0771
     48  CG        18.8480   -7.7050    9.9730 C.ar  123  HIS123      0.0820
     49  ND1       18.3710   -7.9220   11.2440 N.ar  123  HIS123     -0.2267
     50  CD2       19.3460   -6.4430    9.9560 C.ar  123  HIS123      0.1154
     51  CE1       18.5670   -6.8470   11.9710 C.ar  123  HIS123      0.1986
     52  NE2       19.1530   -5.9340   11.2180 N.ar  123  HIS123     -0.2212
     53  N         23.7050   -2.9100    3.1630 N.3   140  ASP140     -0.1239
     54  CA        24.0350   -2.3820    4.4840 C.3   140  ASP140      0.1674
     55  C         25.4560   -2.7940    4.8950 C.2   140  ASP140      0.2266
     56  O         25.7140   -3.9760    4.9670 O.2   140  ASP140     -0.2867
     57  CB        22.9480   -2.7640    5.5100 C.3   140  ASP140      0.1410
     58  CG        23.0850   -1.9910    6.8290 C.2   140  ASP140      0.3668
     59  OD1       24.2150   -1.6180    7.1840 O.co2 140  ASP140     -0.2456
     60  OD2       22.0980   -1.7290    7.4290 O.co2 140  ASP140     -0.2456
     61  N         28.8590   -2.3780    7.3980 N.3   142  THR142     -0.1218
     62  CA        29.4110   -1.9320    8.6950 C.3   142  THR142      0.1862
     63  C         30.8880   -2.4530    8.6920 C.2   142  THR142      0.2287
     64  O         31.1730   -3.6530    8.3780 O.2   142  THR142     -0.2866
     65  CB        28.6720   -2.5160    9.8910 C.3   142  THR142      0.1770
     66  OG1       27.2580   -2.2920    9.7250 O.3   142  THR142     -0.2211
     67  CG2       29.2410   -1.9120   11.2490 C.3   142  THR142      0.0375
     68  N         28.7040    2.4400   10.3990 N.3   151  ASP151     -0.1239
     69  CA        27.5180    1.7060    9.8790 C.3   151  ASP151      0.1674
     70  C         26.6510    2.6250    8.9910 C.2   151  ASP151      0.2266
     71  O         26.3570    3.7960    9.3560 O.2   151  ASP151     -0.2867
     72  CB        26.7380    1.3240   11.1380 C.3   151  ASP151      0.1410
     73  CG        25.5200    0.3050   10.8730 C.2   151  ASP151      0.3668
     74  OD1       25.3640   -0.2280    9.6450 O.co2 151  ASP151     -0.2456
     75  OD2       24.8500    0.0140   11.9960 O.co2 151  ASP151     -0.2456
     76  N         10.0780   -2.8660   14.8530 N.3   210  SER210     -0.1202
     77  CA        10.8030   -3.8810   15.5650 C.3   210  SER210      0.2020
     78  C         12.2880   -3.6920   15.5990 C.2   210  SER210      0.2619
     79  O         12.9920   -4.4810   16.3100 O.2   210  SER210     -0.2717
     80  CB        10.6190   -5.2270   14.8820 C.3   210  SER210      0.2103
     81  OG         9.2790   -5.5990   15.0190 O.3   210  SER210     -0.2182
     82  N         12.7680   -2.7610   14.7590 N.am  211  TYR211     -0.1961
     83  CA        14.2330   -2.5620   14.6010 C.3   211  TYR211      0.1771
     84  C         14.4650   -1.0710   14.7730 C.2   211  TYR211      0.2620
     85  O         13.6580   -0.2720   14.2440 O.2   211  TYR211     -0.2715
     86  CB        14.6900   -3.0140   13.1890 C.3   211  TYR211      0.0574
     87  CG        14.5700   -4.5180   13.0330 C.ar  211  TYR211     -0.0198
     88  CD1       15.5280   -5.3670   13.5910 C.ar  211  TYR211     -0.0009
     89  CD2       13.5030   -5.0520   12.3910 C.ar  211  TYR211     -0.0009
     90  CE1       15.4060   -6.7800   13.4920 C.ar  211  TYR211      0.0417
     91  CE2       13.3400   -6.5070   12.2800 C.ar  211  TYR211      0.0417
     92  CZ        14.2880   -7.2920   12.8300 C.ar  211  TYR211      0.1957
     93  OH        14.0950   -8.6660   12.6680 O.3   211  TYR211     -0.2866
     94  N         15.5960   -0.7460   15.4230 N.am  212  CYS212     -0.1954
     95  CA        15.8790    0.6340   15.8640 C.3   212  CYS212      0.1843
     96  C         17.2950    1.1010   15.5100 C.2   212  CYS212      0.2626
     97  O         18.1800    0.2310   15.3190 O.2   212  CYS212     -0.2714
     98  CB        15.7010    0.7440   17.3930 C.3   212  CYS212      0.0997
     99  SG        13.9810    0.5500   17.9330 S.3   212  CYS212     -0.0797
    100  N         17.5070    2.4300   15.4300 N.am  213  GLY213     -0.1940
    101  CA        18.8830    2.9600   15.3860 C.3   213  GLY213      0.2014
    102  C         19.4750    2.8270   16.7360 C.2   213  GLY213      0.2638
    103  O         18.8240    2.3490   17.6770 O.2   213  GLY213     -0.2714
    104  N         20.7870    3.0250   16.8150 N.am  214  HIS214     -0.1973
    105  CA        21.5340    2.6150   18.0090 C.3   214  HIS214      0.1656
    106  C         22.8040    3.3890   18.1240 C.2   214  HIS214      0.2291
    107  O         23.4500    3.8580   17.1990 O.2   214  HIS214     -0.2864
    108  CB        21.8830    1.1470   17.8650 C.3   214  HIS214      0.0771
    109  CG        22.5750    0.8190   16.5290 C.ar  214  HIS214      0.0820
    110  ND1       23.9680    0.8350   16.3990 N.ar  214  HIS214     -0.2267
    111  CD2       22.0480    0.5950   15.2850 C.ar  214  HIS214      0.1154
    112  CE1       24.2690    0.5700   15.1160 C.ar  214  HIS214      0.1986
    113  NE2       23.1180    0.4470   14.4110 N.ar  214  HIS214     -0.2212
    114  N         29.2480   -2.4920   18.4480 N.3   220  PHE220     -0.1227
    115  CA        28.4200   -2.3110   17.2170 C.3   220  PHE220      0.1736
    116  C         27.0140   -1.7880   17.6170 C.2   220  PHE220      0.2595
    117  O         26.5340   -0.8050   17.0080 O.2   220  PHE220     -0.2718
    118  CB        28.3600   -3.7450   16.6330 C.3   220  PHE220      0.0547
    119  CG        27.7690   -3.8880   15.2010 C.ar  220  PHE220     -0.0202
    120  CD1       27.0780   -2.8390   14.5900 C.ar  220  PHE220     -0.0042
    121  CD2       27.9660   -5.0680   14.5960 C.ar  220  PHE220     -0.0042
    122  CE1       26.5830   -2.9790   13.2620 C.ar  220  PHE220     -0.0003
    123  CE2       27.4780   -5.2990   13.2720 C.ar  220  PHE220     -0.0003
    124  CZ        26.7550   -4.1740   12.6340 C.ar  220  PHE220     -0.0000
    125  N         26.3570   -2.3560   18.6830 N.am  221  HIS221     -0.1961
    126  CA        25.0390   -1.8390   19.0690 C.3   221  HIS221      0.1787
    127  C         25.1380   -1.5330   20.5930 C.2   221  HIS221      0.2621
    128  O         25.4020   -2.4460   21.4030 O.2   221  HIS221     -0.2715
    129  CB        23.9410   -2.8620   18.8190 C.3   221  HIS221      0.0785
    130  CG        23.8230   -3.2250   17.3580 C.ar  221  HIS221      0.0821
    131  ND1       24.4770   -4.3040   16.8040 N.ar  221  HIS221     -0.2267
    132  CD2       23.1420   -2.6170   16.3530 C.ar  221  HIS221      0.1154
    133  CE1       24.1960   -4.3420   15.4880 C.ar  221  HIS221      0.1986
    134  NE2       23.3730   -3.3270   15.2040 N.ar  221  HIS221     -0.2212
    135  N         24.8460   -0.3000   20.9070 N.am  222  THR222     -0.1937
    136  CA        24.8120    0.0610   22.3680 C.3   222  THR222      0.2028
    137  C         23.9100    1.2390   22.5910 C.2   222  THR222      0.2642
    138  O         23.3510    1.7690   21.6400 O.2   222  THR222     -0.2714
    139  CB        26.2780    0.2920   22.7940 C.3   222  THR222      0.1808
    140  OG1       26.2480    0.4110   24.2580 O.3   222  THR222     -0.2208
    141  CG2       26.9000    1.5600   22.2350 C.3   222  THR222      0.0379
    142  N         23.7890    1.8280   23.7920 N.am  223  ALA223     -0.1963
    143  CA        22.8740    2.9350   23.9770 C.3   223  ALA223      0.1713
    144  C         23.3090    4.1450   23.1980 C.2   223  ALA223      0.2458
    145  O         24.5030    4.4090   23.0560 O.2   223  ALA223     -0.2730
    146  CB        22.8710    3.2890   25.5440 C.3   223  ALA223      0.0333
    147  N         22.3750    4.9500   22.7730 N.am  224  PRO224     -0.2716
    148  CA        20.9580    4.8380   22.9680 C.3   224  PRO224      0.1536
    149  C         20.2240    3.9710   22.0000 C.2   224  PRO224      0.2598
    150  O         20.7180    3.7080   20.8740 O.2   224  PRO224     -0.2715
    151  CB        20.5050    6.2670   22.7940 C.3   224  PRO224      0.0310
    152  CG        21.4350    6.7620   21.6110 C.3   224  PRO224      0.0237
    153  CD        22.7500    6.1810   22.0500 C.3   224  PRO224      0.0939
    154  N         19.0790    3.4650   22.4020 N.am  225  ASN225     -0.1973
    155  CA        18.1310    2.9480   21.4370 C.3   225  ASN225      0.1688
    156  C         17.4440    4.0970   20.7480 C.2   225  ASN225      0.2292
    157  O         16.9450    5.0560   21.3810 O.2   225  ASN225     -0.2864
    158  CB        17.0830    2.0560   22.1750 C.3   225  ASN225      0.1181
    159  CG        16.2220    1.2820   21.2140 C.2   225  ASN225      0.2629
    160  OD1       16.7520    0.4530   20.4690 O.2   225  ASN225     -0.2716
    161  ND2       14.9070    1.5420   21.1920 N.am  225  ASN225     -0.0877
    162  N         18.1820    4.9070   11.1620 N.3   247  GLU247     -0.1245
    163  CA        18.1120    3.9240   10.0390 C.3   247  GLU247      0.1567
    164  C         16.6920    3.4870    9.7270 C.2   247  GLU247      0.2260
    165  O         16.3950    2.2860    9.7440 O.2   247  GLU247     -0.2867
    166  CB        19.0830    2.7810   10.2210 C.3   247  GLU247      0.0388
    167  CG        18.9360    1.9780   11.5850 C.3   247  GLU247      0.1160
    168  CD        19.8870    0.8410   11.5880 C.2   247  GLU247      0.3649
    169  OE1       20.7390    0.7360   12.5370 O.co2 247  GLU247     -0.2457
    170  OE2       19.9740    0.0140   10.6050 O.co2 247  GLU247     -0.2457
    171  N         13.1830    2.2120    8.4570 N.3   249  MET249     -0.1245
    172  CA        12.6120    1.2880    7.5000 C.3   249  MET249      0.1570
    173  C         11.1280    1.6720    7.3210 C.2   249  MET249      0.2261
    174  O         10.3980    1.6990    8.3320 O.2   249  MET249     -0.2867
    175  CB        12.7460   -0.1700    7.9620 C.3   249  MET249      0.0387
    176  CG        14.2930   -0.5790    8.1580 C.3   249  MET249      0.0595
    177  SD        14.5630   -1.5840    9.6030 S.3   249  MET249     -0.1393
    178  CE        14.5460   -0.2370   10.7940 C.3   249  MET249      0.0692
    179  N         17.1590  -14.5370   10.3350 N.3   264  TRP264     -0.1241
    180  CA        17.6580  -13.2210   10.0280 C.3   264  TRP264      0.1605
    181  C         16.7820  -12.3520    9.1630 C.2   264  TRP264      0.2264
    182  O         16.5660  -11.2010    9.5110 O.2   264  TRP264     -0.2867
    183  CB        19.0480  -13.2430    9.3500 C.3   264  TRP264      0.0550
    184  CG        20.1180  -13.6090   10.3620 C.ar  264  TRP264      0.0003
    185  CD1       20.7600  -14.8510   10.5080 C.ar  264  TRP264      0.0946
    186  CD2       20.5720  -12.7790   11.3740 C.ar  264  TRP264      0.0152
    187  NE1       21.6490  -14.7770   11.5330 N.ar  264  TRP264     -0.2442
    188  CE2       21.6090  -13.5220   12.0750 C.ar  264  TRP264      0.0810
    189  CE3       20.3360  -11.4500   11.6880 C.ar  264  TRP264      0.0012
    190  CZ2       22.2860  -12.9360   13.1780 C.ar  264  TRP264      0.0191
    191  CZ3       20.9910  -10.8330   12.8230 C.ar  264  TRP264      0.0001
    192  CH2       22.0240  -11.6100   13.5150 C.ar  264  TRP264      0.0015
    193  N         15.0160    1.4950    3.1510 N.3   276  GLN276     -0.1245
    194  CA        15.7380    1.9740    4.3630 C.3   276  GLN276      0.1566
    195  C         16.9750    2.8380    3.9210 C.2   276  GLN276      0.2260
    196  O         17.5340    2.6230    2.8280 O.2   276  GLN276     -0.2867
    197  CB        16.2910    0.7310    5.0280 C.3   276  GLN276      0.0367
    198  CG        16.9950    1.0600    6.3770 C.3   276  GLN276      0.0905
    199  CD        17.5150   -0.1210    7.0810 C.2   276  GLN276      0.2608
    200  OE1       17.7570   -1.1750    6.5560 O.2   276  GLN276     -0.2717
    201  NE2       17.7400    0.0350    8.4020 N.am  276  GLN276     -0.0878
    202  N         20.5190    4.6500    6.1840 N.3   278  GLU278     -0.1245
    203  CA        21.1780    4.7700    7.4790 C.3   278  GLU278      0.1567
    204  C         22.4170    5.6140    7.3940 C.2   278  GLU278      0.2260
    205  O         23.1840    5.4560    6.4590 O.2   278  GLU278     -0.2867
    206  CB        21.5620    3.3360    7.9000 C.3   278  GLU278      0.0388
    207  CG        22.4380    3.3750    9.2450 C.3   278  GLU278      0.1160
    208  CD        22.7140    1.9820    9.6640 C.2   278  GLU278      0.3649
    209  OE1       22.7390    1.0530    8.8570 O.co2 278  GLU278     -0.2457
    210  OE2       22.8140    1.7670   10.9030 O.co2 278  GLU278     -0.2457
@<TRIPOS>BOND
     1    34    33    2
     2   196   195    2
     3    33    32    1
     4   193   194    1
     5    53    54    1
     6   195   194    1
     7   194   197    1
     8    32    31    1
     9    32    35    1
    10    54    55    1
    11    54    57    1
    12    55    56    2
    13   197   198    1
    14    35    36    1
    15    57    58    1
    16   202   203    1
    17    37    38    1
    18   198   199    1
    19    45    46    2
    20    45    44    1
    21   205   204    2
    22   200   199    2
    23    38    39    1
    24    38    41    1
    25    58    59   ar
    26    58    60   ar
    27    39    40    2
    28    39    43   am
    29    30    29   ar
    30    30    28   ar
    31   199   201   am
    32    43    44    1
    33    29    27   ar
    34   173   172    1
    35   173   174    2
    36   204   203    1
    37    61    62    1
    38    44    47    1
    39   203   206    1
    40   172   175    1
    41   172   171    1
    42   206   207    1
    43   175   176    1
    44    41    42    1
    45    28    26   ar
    46   176   177    1
    47    64    63    2
    48    27    25   ar
    49     6     7    1
    50     6     5    1
    51    63    62    1
    52    62    65    1
    53   209   208   ar
    54    47    48    1
    55     7     1    1
    56     5     2    1
    57    70    71    2
    58    70    69    1
    59   181   182    2
    60   181   180    1
    61    26    25   ar
    62   207   208    1
    63   183   180    1
    64   183   184    1
    65    25    24    1
    66   177   178    1
    67    74    73   ar
    68   208   210   ar
    69    66    65    1
    70   164   165    2
    71   164   163    1
    72    22    23    2
    73    22    21    1
    74    69    68    1
    75    69    72    1
    76    65    67    1
    77    50    48   ar
    78    50    52   ar
    79    48    49   ar
    80   180   179    1
    81   163   166    1
    82   163   162    1
    83   166   167    1
    84     1     2    1
    85     2     3    1
    86   184   185   ar
    87   184   186   ar
    88     3     4    2
    89   185   187   ar
    90   170   168   ar
    91    24    21    1
    92    21    20    1
    93    73    72    1
    94    73    75   ar
    95    52    51   ar
    96    49    51   ar
    97   186   189   ar
    98   186   188   ar
    99   187   188   ar
   100   167   168    1
   101   168   169   ar
   102   189   191   ar
   103   188   190   ar
   104    91    89   ar
   105    91    92   ar
   106    89    87   ar
   107   124   122   ar
   108   124   123   ar
   109    93    92    1
   110   191   192   ar
   111    92    90   ar
   112    87    86    1
   113    87    88   ar
   114   190   192   ar
   115    86    83    1
   116   122   120   ar
   117   123   121   ar
   118    90    88   ar
   119     8     9    1
   120    11    10    2
   121    12     9    1
   122    12    13    1
   123    85    84    2
   124   113   112   ar
   125   113   111   ar
   126     9    10    1
   127   120   119   ar
   128   121   119   ar
   129    83    82    1
   130    83    84    1
   131    82    78   am
   132    84    94   am
   133    76    77    1
   134    80    81    1
   135    80    77    1
   136   112   110   ar
   137   119   118    1
   138   134   133   ar
   139   134   132   ar
   140   111   109   ar
   141    13    15   ar
   142    13    14   ar
   143    97    96    2
   144    15    17   ar
   145   101   100    1
   146   101   102    1
   147    94    95    1
   148   100    96   am
   149   133   131   ar
   150    96    95    1
   151    77    78    1
   152    78    79    2
   153    95    98    1
   154    14    16   ar
   155    17    18   ar
   156   132   130   ar
   157   110   109   ar
   158   109   108    1
   159   118   115    1
   160   102   104   am
   161   102   103    2
   162   131   130   ar
   163   104   105    1
   164   117   116    2
   165   107   106    2
   166   115   116    1
   167   115   114    1
   168    16    18   ar
   169    18    19    1
   170   130   129    1
   171    98    99    1
   172   116   125   am
   173   108   105    1
   174   105   106    1
   175   125   126    1
   176   129   126    1
   177   126   127    1
   178   160   159    2
   179   127   135   am
   180   127   128    2
   181   156   157    2
   182   156   155    1
   183   150   149    2
   184   135   136    1
   185   161   159   am
   186   159   158    1
   187   155   158    1
   188   155   154    1
   189   152   153    1
   190   152   151    1
   191   138   137    2
   192   149   154   am
   193   149   148    1
   194   153   147    1
   195   141   139    1
   196   136   137    1
   197   136   139    1
   198   137   142   am
   199   147   148    1
   200   147   144   am
   201   139   140    1
   202   151   148    1
   203   145   144    2
   204   144   143    1
   205   142   143    1
   206   143   146    1
