@<TRIPOS>MOLECULE
tmp/4flnC00.pdb
 158 151 0 0 0
SMALL
GASTEIGER

@<TRIPOS>ATOM
      1  N         19.9440    5.1950   28.0700 N.3   144  ASP144     -0.1239
      2  CA        21.0230    5.7370   28.8910 C.3   144  ASP144      0.1674
      3  C         22.3410    5.6330   28.1610 C.2   144  ASP144      0.2266
      4  O         22.8280    4.5310   27.8810 O.2   144  ASP144     -0.2867
      5  CB        21.1170    5.0250   30.2430 C.3   144  ASP144      0.1410
      6  CG        20.1080    5.5430   31.2510 C.2   144  ASP144      0.3668
      7  OD1       19.3510    4.7110   31.8040 O.co2 144  ASP144     -0.2456
      8  OD2       20.0790    6.7740   31.4940 O.co2 144  ASP144     -0.2456
      9  N         20.5650   -3.8380   25.7460 N.3   208  CYS208     -0.1221
     10  CA        20.6310   -3.8370   27.1980 C.3   208  CYS208      0.1808
     11  C         20.7830   -5.2500   27.7860 C.2   208  CYS208      0.2601
     12  O         20.4860   -6.2680   27.1420 O.2   208  CYS208     -0.2717
     13  CB        19.3940   -3.1630   27.7890 C.3   208  CYS208      0.0970
     14  SG        17.8900   -4.1620   27.6530 S.3   208  CYS208     -0.0800
     15  N         21.2450   -5.2960   29.0290 N.am  209  LEU209     -0.1965
     16  CA        21.4140   -6.5510   29.7390 C.3   209  LEU209      0.1728
     17  C         20.0720   -7.0830   30.2530 C.2   209  LEU209      0.2617
     18  O         19.8720   -8.2960   30.3600 O.2   209  LEU209     -0.2715
     19  CB        22.3930   -6.3520   30.8900 C.3   209  LEU209      0.0311
     20  CG        22.9790   -7.6170   31.5000 C.3   209  LEU209      0.0022
     21  CD1       23.4710   -8.5480   30.4060 C.3   209  LEU209      0.0001
     22  CD2       24.0970   -7.2220   32.4380 C.3   209  LEU209      0.0001
     23  N         19.1560   -6.1640   30.5530 N.am  210  GLY210     -0.1940
     24  CA        17.8230   -6.5190   31.0070 C.3   210  GLY210      0.2014
     25  C         17.7990   -6.9950   32.4420 C.2   210  GLY210      0.2639
     26  O         17.1940   -8.0120   32.7600 O.2   210  GLY210     -0.2714
     27  N         18.4600   -6.2550   33.3180 N.am  211  VAL211     -0.1963
     28  CA        18.6630   -6.7300   34.6710 C.3   211  VAL211      0.1727
     29  C         18.5790   -5.5710   35.6660 C.2   211  VAL211      0.2616
     30  O         19.1340   -4.5020   35.4300 O.2   211  VAL211     -0.2715
     31  CB        20.0390   -7.4430   34.7590 C.3   211  VAL211      0.0290
     32  CG1       21.1630   -6.4220   34.9530 C.3   211  VAL211      0.0023
     33  CG2       20.0530   -8.5200   35.8470 C.3   211  VAL211      0.0023
     34  N         17.8790   -5.7770   36.7770 N.am  212  LEU212     -0.1963
     35  CA        17.8020   -4.7550   37.8200 C.3   212  LEU212      0.1728
     36  C         18.8790   -5.0460   38.8470 C.2   212  LEU212      0.2616
     37  O         19.0000   -6.1780   39.3120 O.2   212  LEU212     -0.2715
     38  CB        16.4300   -4.7720   38.4950 C.3   212  LEU212      0.0311
     39  CG        15.8120   -3.4260   38.8970 C.3   212  LEU212      0.0022
     40  CD1       14.8320   -3.6460   40.0300 C.3   212  LEU212      0.0001
     41  CD2       16.8620   -2.3960   39.3000 C.3   212  LEU212      0.0001
     42  N         19.6620   -4.0360   39.2060 N.am  213  LEU213     -0.1963
     43  CA        20.8580   -4.2840   40.0140 C.3   213  LEU213      0.1728
     44  C         20.8620   -3.5480   41.3400 C.2   213  LEU213      0.2616
     45  O         20.3510   -2.4340   41.4410 O.2   213  LEU213     -0.2715
     46  CB        22.1150   -3.9070   39.2290 C.3   213  LEU213      0.0311
     47  CG        22.3220   -4.6430   37.9060 C.3   213  LEU213      0.0022
     48  CD1       23.5090   -4.0560   37.1620 C.3   213  LEU213      0.0001
     49  CD2       22.5000   -6.1400   38.1510 C.3   213  LEU213      0.0001
     50  N         21.4480   -4.1670   42.3590 N.am  214  GLN214     -0.1963
     51  CA        21.6250   -3.4850   43.6370 C.3   214  GLN214      0.1733
     52  C         23.1080   -3.2450   43.9200 C.2   214  GLN214      0.2616
     53  O         23.9670   -4.0540   43.5520 O.2   214  GLN214     -0.2715
     54  CB        20.9570   -4.2570   44.7860 C.3   214  GLN214      0.0408
     55  CG        21.0470   -3.5470   46.1410 C.3   214  GLN214      0.0908
     56  CD        20.2240   -4.2100   47.2420 C.2   214  GLN214      0.2608
     57  OE1       19.3440   -5.0310   46.9810 O.2   214  GLN214     -0.2717
     58  NE2       20.5120   -3.8440   48.4860 N.am  214  GLN214     -0.0878
     59  N         23.4110   -2.1180   44.5530 N.am  215  LYS215     -0.1977
     60  CA        24.7770   -1.8390   44.9760 C.3   215  LYS215      0.1596
     61  C         24.9990   -2.4880   46.3300 C.2   215  LYS215      0.2287
     62  O         24.1240   -2.4130   47.1950 O.2   215  LYS215     -0.2864
     63  CB        25.0160   -0.3290   45.1020 C.3   215  LYS215      0.0298
     64  CG        24.8300    0.4690   43.8160 C.3   215  LYS215      0.0038
     65  CD        25.4440    1.8600   43.9410 C.3   215  LYS215      0.0206
     66  CE        24.9480    2.5920   45.1870 C.3   215  LYS215      0.1093
     67  NZ        25.5860    3.9370   45.3530 N.3   215  LYS215     -0.1314
     68  N         18.5930   -8.0630   41.3380 N.3   236  ARG236     -0.1231
     69  CA        17.2450   -8.0300   41.8870 C.3   236  ARG236      0.1694
     70  C         16.1670   -8.5690   40.9540 C.2   236  ARG236      0.2591
     71  O         15.2550   -9.2650   41.3940 O.2   236  ARG236     -0.2718
     72  CB        16.9190   -6.6260   42.3720 C.3   236  ARG236      0.0321
     73  CG        17.8490   -6.1610   43.4870 C.3   236  ARG236      0.0489
     74  CD        17.5950   -6.9350   44.7800 C.3   236  ARG236      0.2205
     75  NE        17.7860   -8.3740   44.6210 N.pl3 236  ARG236     -0.0865
     76  CZ        17.4330   -9.2800   45.5260 C.cat 236  ARG236      0.5346
     77  NH1       16.8630   -8.8950   46.6590 N.pl3 236  ARG236      0.1354
     78  NH2       17.6440  -10.5720   45.2960 N.pl3 236  ARG236      0.1354
     79  N         16.2680   -8.2300   39.6700 N.am  237  ARG237     -0.1980
     80  CA        15.2820   -8.6650   38.6790 C.3   237  ARG237      0.1597
     81  C         15.8930   -8.9310   37.3020 C.2   237  ARG237      0.2287
     82  O         16.9460   -8.3960   36.9580 O.2   237  ARG237     -0.2864
     83  CB        14.1430   -7.6490   38.5680 C.3   237  ARG237      0.0334
     84  CG        13.1990   -7.5870   39.7580 C.3   237  ARG237      0.0492
     85  CD        12.0180   -6.6600   39.4420 C.3   237  ARG237      0.2205
     86  NE        10.9590   -7.3730   38.7190 N.pl3 237  ARG237     -0.0865
     87  CZ        10.3740   -6.9530   37.6060 C.cat 237  ARG237      0.5346
     88  NH1       10.7220   -5.8120   37.0340 N.pl3 237  ARG237      0.1354
     89  NH2        9.4110   -7.6810   37.0660 N.pl3 237  ARG237      0.1354
     90  N         14.6340   -9.3160   33.1440 N.3   239  GLU239     -0.1245
     91  CA        13.5600   -9.1930   32.1620 C.3   239  GLU239      0.1567
     92  C         13.3520  -10.4570   31.3390 C.2   239  GLU239      0.2260
     93  O         14.3010  -11.0250   30.8160 O.2   239  GLU239     -0.2867
     94  CB        13.8030   -8.0070   31.2290 C.3   239  GLU239      0.0388
     95  CG        13.5780   -6.6580   31.8760 C.3   239  GLU239      0.1160
     96  CD        13.6420   -5.5290   30.8780 C.2   239  GLU239      0.3649
     97  OE1       13.8690   -5.8050   29.6790 O.co2 239  GLU239     -0.2457
     98  OE2       13.4630   -4.3670   31.2940 O.co2 239  GLU239     -0.2457
     99  N         28.3860    1.3650   35.3020 N.3   278  PHE278     -0.1227
    100  CA        28.4000    0.0640   34.6340 C.3   278  PHE278      0.1736
    101  C         27.6530    0.0310   33.2970 C.2   278  PHE278      0.2595
    102  O         28.1110   -0.5940   32.3340 O.2   278  PHE278     -0.2718
    103  CB        27.8420   -0.9910   35.5990 C.3   278  PHE278      0.0547
    104  CG        27.6850   -2.3670   35.0020 C.ar  278  PHE278     -0.0202
    105  CD1       28.7740   -3.0520   34.4970 C.ar  278  PHE278     -0.0042
    106  CD2       26.4470   -2.9910   34.9920 C.ar  278  PHE278     -0.0042
    107  CE1       28.6210   -4.3220   33.9600 C.ar  278  PHE278     -0.0003
    108  CE2       26.2930   -4.2600   34.4630 C.ar  278  PHE278     -0.0003
    109  CZ        27.3800   -4.9250   33.9440 C.ar  278  PHE278     -0.0000
    110  N         26.5130    0.7120   33.2360 N.am  279  ARG279     -0.1980
    111  CA        25.7010    0.7310   32.0230 C.3   279  ARG279      0.1597
    112  C         26.4930    1.1970   30.8060 C.2   279  ARG279      0.2287
    113  O         26.1400    0.8870   29.6650 O.2   279  ARG279     -0.2864
    114  CB        24.4830    1.6350   32.2070 C.3   279  ARG279      0.0334
    115  CG        23.5080    1.1670   33.2680 C.3   279  ARG279      0.0492
    116  CD        22.6210    2.3150   33.7110 C.3   279  ARG279      0.2205
    117  NE        23.4080    3.3670   34.3430 N.pl3 279  ARG279     -0.0865
    118  CZ        22.9480    4.5830   34.5940 C.cat 279  ARG279      0.5346
    119  NH1       21.7040    4.8890   34.2590 N.pl3 279  ARG279      0.1354
    120  NH2       23.7300    5.4900   35.1710 N.pl3 279  ARG279      0.1354
    121  N         27.6040   -1.6290   28.5050 N.3   282  ILE282     -0.1245
    122  CA        26.5590   -2.3010   27.7620 C.3   282  ILE282      0.1561
    123  C         26.1250   -1.4440   26.5790 C.2   282  ILE282      0.2260
    124  O         25.6820   -1.9600   25.5470 O.2   282  ILE282     -0.2867
    125  CB        25.3640   -2.5870   28.6730 C.3   282  ILE282      0.0252
    126  CG1       25.8410   -3.3230   29.9270 C.3   282  ILE282      0.0019
    127  CG2       24.3070   -3.3790   27.9260 C.3   282  ILE282      0.0019
    128  CD1       24.7720   -3.5220   30.9670 C.3   282  ILE282      0.0001
    129  N         16.1400   -2.9420   24.4070 N.3   311  ARG311     -0.1245
    130  CA        15.0880   -3.1380   25.4070 C.3   311  ARG311      0.1563
    131  C         13.7020   -3.2690   24.7890 C.2   311  ARG311      0.2260
    132  O         13.3120   -2.4410   23.9720 O.2   311  ARG311     -0.2867
    133  CB        15.0870   -1.9820   26.4060 C.3   311  ARG311      0.0307
    134  CG        14.2870   -2.2460   27.6650 C.3   311  ARG311      0.0489
    135  CD        14.9790   -1.6190   28.8610 C.3   311  ARG311      0.2205
    136  NE        14.3680   -2.0250   30.1200 N.pl3 311  ARG311     -0.0865
    137  CZ        14.1490   -1.2060   31.1420 C.cat 311  ARG311      0.5346
    138  NH1       14.4940    0.0740   31.0520 N.pl3 311  ARG311      0.1354
    139  NH2       13.5870   -1.6690   32.2530 N.pl3 311  ARG311      0.1354
    140  N          5.9870    0.8050   36.0710 N.3   360  TYR360     -0.1241
    141  CA         6.6140   -0.2440   36.8610 C.3   360  TYR360      0.1605
    142  C          6.8590   -1.5210   36.0480 C.2   360  TYR360      0.2264
    143  O          8.0060   -1.9210   35.8320 O.2   360  TYR360     -0.2867
    144  CB         5.7250   -0.5880   38.0630 C.3   360  TYR360      0.0534
    145  CG         5.9760    0.2180   39.3230 C.ar  360  TYR360     -0.0201
    146  CD1        6.1810   -0.4210   40.5430 C.ar  360  TYR360     -0.0009
    147  CD2        6.0010    1.6150   39.3000 C.ar  360  TYR360     -0.0009
    148  CE1        6.4090    0.2990   41.7030 C.ar  360  TYR360      0.0417
    149  CE2        6.2280    2.3490   40.4620 C.ar  360  TYR360      0.0417
    150  CZ         6.4300    1.6810   41.6610 C.ar  360  TYR360      0.1957
    151  OH         6.6600    2.3860   42.8230 O.3   360  TYR360     -0.2866
    152  N          6.9260   -4.9460   33.4790 N.3   362  VAL362     -0.1245
    153  CA         7.7420   -5.2820   32.3260 C.3   362  VAL362      0.1561
    154  C          6.9770   -6.2440   31.4450 C.2   362  VAL362      0.2260
    155  O          6.0480   -6.9090   31.9010 O.2   362  VAL362     -0.2867
    156  CB         9.0380   -6.0010   32.7390 C.3   362  VAL362      0.0252
    157  CG1        9.7850   -5.2060   33.7920 C.3   362  VAL362      0.0019
    158  CG2        8.7180   -7.3970   33.2480 C.3   362  VAL362      0.0019
@<TRIPOS>BOND
     1   132   131    2
     2   129   130    1
     3   131   130    1
     4   130   133    1
     5   124   123    2
     6     9    10    1
     7   133   134    1
     8   123   122    1
     9    12    11    2
    10    10    11    1
    11    10    13    1
    12    14    13    1
    13   134   135    1
    14   122   121    1
    15   122   125    1
    16    11    15   am
    17     4     3    2
    18   127   125    1
    19     1     2    1
    20     3     2    1
    21   125   126    1
    22   135   136    1
    23     2     5    1
    24    15    16    1
    25   113   112    2
    26    97    96   ar
    27    16    17    1
    28    16    19    1
    29   126   128    1
    30   136   137    2
    31     5     6    1
    32    17    18    2
    33    17    23   am
    34    21    20    1
    35    23    24    1
    36   112   111    1
    37    93    92    2
    38    96    98   ar
    39    96    95    1
    40    19    20    1
    41    24    25    1
    42   138   137    1
    43   137   139    1
    44    94    95    1
    45    94    91    1
    46     6     8   ar
    47     6     7   ar
    48    92    91    1
    49   154   155    2
    50   154   153    1
    51    20    22    1
    52   111   114    1
    53   111   110    1
    54    91    90    1
    55   114   115    1
    56   153   156    1
    57   153   152    1
    58   102   101    2
    59    25    26    2
    60    25    27   am
    61   156   158    1
    62   156   157    1
    63   110   101   am
    64   115   116    1
    65   101   100    1
    66    27    28    1
    67   116   117    1
    68   109   107   ar
    69   109   108   ar
    70   107   105   ar
    71   119   118    1
    72   117   118    2
    73   108   106   ar
    74   105   104   ar
    75   118   120    1
    76   100    99    1
    77   100   103    1
    78    28    31    1
    79    28    29    1
    80    31    32    1
    81    31    33    1
    82   106   104   ar
    83   104   103    1
    84    30    29    2
    85    29    34   am
    86   143   142    2
    87   142   141    1
    88   140   141    1
    89    34    35    1
    90   141   144    1
    91    82    81    2
    92    88    87    1
    93    89    87    1
    94    48    47    1
    95    81    80    1
    96    87    86    2
    97    35    38    1
    98    35    36    1
    99    47    49    1
   100    47    46    1
   101   144   145    1
   102    38    39    1
   103    83    80    1
   104    83    84    1
   105    80    79    1
   106    86    85    1
   107    36    42   am
   108    36    37    2
   109    39    41    1
   110    39    40    1
   111    42    43    1
   112    46    43    1
   113   147   145   ar
   114   147   149   ar
   115   145   146   ar
   116    85    84    1
   117    79    70   am
   118    43    44    1
   119   149   150   ar
   120   146   148   ar
   121    70    71    2
   122    70    69    1
   123    68    69    1
   124    44    45    2
   125    44    50   am
   126   150   148   ar
   127   150   151    1
   128    69    72    1
   129    50    51    1
   130    72    73    1
   131    73    74    1
   132    53    52    2
   133    51    52    1
   134    51    54    1
   135    64    65    1
   136    64    63    1
   137    52    59   am
   138    65    66    1
   139    59    60    1
   140    75    74    1
   141    75    76    2
   142    54    55    1
   143    60    63    1
   144    60    61    1
   145    66    67    1
   146    78    76    1
   147    76    77    1
   148    55    56    1
   149    61    62    2
   150    57    56    2
   151    56    58   am
