@<TRIPOS>MOLECULE
tmp/4floA01.pdb
 115 112 0 0 0
SMALL
GASTEIGER

@<TRIPOS>ATOM
      1  N         38.1550   47.0520    5.1790 N.3    63  MET63      -0.1245
      2  CA        37.8320   47.2160    6.5940 C.3    63  MET63       0.1570
      3  C         38.0210   45.9050    7.3520 C.2    63  MET63       0.2261
      4  O         38.6390   45.8750    8.4190 O.2    63  MET63      -0.2867
      5  CB        36.4080   47.7430    6.7780 C.3    63  MET63       0.0387
      6  CG        36.0910   48.1550    8.2070 C.3    63  MET63       0.0595
      7  SD        34.4820   48.9580    8.3420 S.3    63  MET63      -0.1393
      8  CE        34.7800   50.5170    7.5120 C.3    63  MET63       0.0692
      9  N         40.8770   44.8620   10.2970 N.3    67  GLN67      -0.1245
     10  CA        40.4710   44.1730   11.5290 C.3    67  GLN67       0.1566
     11  C         41.2010   42.8510   11.7000 C.2    67  GLN67       0.2260
     12  O         41.6960   42.5500   12.7860 O.2    67  GLN67      -0.2867
     13  CB        38.9840   43.8510   11.5120 C.3    67  GLN67       0.0367
     14  CG        38.0460   45.0210   11.6680 C.3    67  GLN67       0.0905
     15  CD        36.6160   44.5660   11.4910 C.2    67  GLN67       0.2608
     16  OE1       36.0750   43.8300   12.3230 O.2    67  GLN67      -0.2717
     17  NE2       36.0040   44.9740   10.3890 N.am   67  GLN67      -0.0878
     18  N         29.0380   39.7770   23.0970 N.3   153  ARG153     -0.1245
     19  CA        30.2330   40.0610   23.9160 C.3   153  ARG153      0.1563
     20  C         30.0150   39.8530   25.4140 C.2   153  ARG153      0.2260
     21  O         30.9330   39.4420   26.1330 O.2   153  ARG153     -0.2867
     22  CB        30.7250   41.4980   23.6830 C.3   153  ARG153      0.0307
     23  CG        30.9510   41.8790   22.2260 C.3   153  ARG153      0.0489
     24  CD        31.9120   40.9230   21.5390 C.3   153  ARG153      0.2205
     25  NE        32.0970   41.2310   20.1210 N.pl3 153  ARG153     -0.0865
     26  CZ        33.0700   42.0000   19.6350 C.cat 153  ARG153      0.5346
     27  NH1       33.9560   42.5650   20.4520 N.pl3 153  ARG153      0.1354
     28  NH2       33.1550   42.2100   18.3270 N.pl3 153  ARG153      0.1354
     29  N         21.6380   45.7830   17.1480 N.3   194  TRP194     -0.1241
     30  CA        21.5050   45.8680   15.6840 C.3   194  TRP194      0.1605
     31  C         20.0750   45.7840   15.2360 C.2   194  TRP194      0.2264
     32  O         19.6540   46.5350   14.3510 O.2   194  TRP194     -0.2867
     33  CB        22.3010   44.7780   14.9710 C.3   194  TRP194      0.0550
     34  CG        23.7610   44.6520   15.3530 C.ar  194  TRP194      0.0003
     35  CD1       24.5400   45.5430   16.0960 C.ar  194  TRP194      0.0946
     36  CD2       24.6750   43.5680   14.9800 C.ar  194  TRP194      0.0152
     37  NE1       25.8220   45.0850   16.2150 N.ar  194  TRP194     -0.2442
     38  CE2       25.9730   43.9040   15.5700 C.ar  194  TRP194      0.0810
     39  CE3       24.5470   42.3840   14.2570 C.ar  194  TRP194      0.0012
     40  CZ2       27.0830   43.0790   15.4280 C.ar  194  TRP194      0.0191
     41  CZ3       25.6750   41.5640   14.1140 C.ar  194  TRP194      0.0001
     42  CH2       26.9130   41.9050   14.6890 C.ar  194  TRP194      0.0015
     43  N         22.8540   53.5030    9.7780 N.3   204  LEU204     -0.1231
     44  CA        23.9900   52.6140    9.9890 C.3   204  LEU204      0.1693
     45  C         23.5750   51.1360    9.9690 C.2   204  LEU204      0.2592
     46  O         24.3500   50.2810    9.5510 O.2   204  LEU204     -0.2718
     47  CB        24.7270   52.9510   11.2900 C.3   204  LEU204      0.0284
     48  CG        26.0000   52.1700   11.6440 C.3   204  LEU204      0.0019
     49  CD1       27.1070   52.3920   10.6160 C.3   204  LEU204      0.0001
     50  CD2       26.4790   52.5370   13.0430 C.3   204  LEU204      0.0001
     51  N         22.3580   50.8370   10.4040 N.am  205  PHE205     -0.1976
     52  CA        21.9010   49.4460   10.3960 C.3   205  PHE205      0.1639
     53  C         20.8440   49.1210    9.3250 C.2   205  PHE205      0.2290
     54  O         20.0940   48.1390    9.4380 O.2   205  PHE205     -0.2864
     55  CB        21.5200   48.9920   11.8110 C.3   205  PHE205      0.0560
     56  CG        22.7190   48.8030   12.7030 C.ar  205  PHE205     -0.0200
     57  CD1       23.2330   49.8670   13.4410 C.ar  205  PHE205     -0.0042
     58  CD2       23.3700   47.5730   12.7610 C.ar  205  PHE205     -0.0042
     59  CE1       24.3520   49.7040   14.2400 C.ar  205  PHE205     -0.0003
     60  CE2       24.4950   47.4040   13.5550 C.ar  205  PHE205     -0.0003
     61  CZ        24.9850   48.4700   14.3010 C.ar  205  PHE205     -0.0000
     62  N         20.1050   45.2670    7.6770 N.3   208  PHE208     -0.1241
     63  CA        20.7620   44.2770    8.5280 C.3   208  PHE208      0.1605
     64  C         19.9030   43.0310    8.7380 C.2   208  PHE208      0.2264
     65  O         20.4070   41.9780    9.1240 O.2   208  PHE208     -0.2867
     66  CB        21.1990   44.8900    9.8680 C.3   208  PHE208      0.0534
     67  CG        22.6790   45.1300    9.9680 C.ar  208  PHE208     -0.0203
     68  CD1       23.3100   46.0560    9.1380 C.ar  208  PHE208     -0.0042
     69  CD2       23.4450   44.4330   10.8930 C.ar  208  PHE208     -0.0042
     70  CE1       24.6840   46.2760    9.2310 C.ar  208  PHE208     -0.0003
     71  CE2       24.8160   44.6430   10.9890 C.ar  208  PHE208     -0.0003
     72  CZ        25.4370   45.5620   10.1580 C.ar  208  PHE208     -0.0000
     73  N         27.9710   44.4100    4.6970 N.3   263  TRP263     -0.1241
     74  CA        28.2760   44.8960    6.0440 C.3   263  TRP263      0.1605
     75  C         27.8920   43.9350    7.1400 C.2   263  TRP263      0.2264
     76  O         28.5230   43.9070    8.1980 O.2   263  TRP263     -0.2867
     77  CB        27.6840   46.2850    6.2640 C.3   263  TRP263      0.0550
     78  CG        28.2760   47.2820    5.3010 C.ar  263  TRP263      0.0003
     79  CD1       27.6460   47.9090    4.2240 C.ar  263  TRP263      0.0946
     80  CD2       29.6670   47.7560    5.2580 C.ar  263  TRP263      0.0152
     81  NE1       28.5170   48.7340    3.5620 N.ar  263  TRP263     -0.2442
     82  CE2       29.7470   48.6870    4.1240 C.ar  263  TRP263      0.0810
     83  CE3       30.8070   47.5220    6.0220 C.ar  263  TRP263      0.0012
     84  CZ2       30.9260   49.3430    3.7930 C.ar  263  TRP263      0.0191
     85  CZ3       31.9890   48.1920    5.6790 C.ar  263  TRP263      0.0001
     86  CH2       32.0440   49.0800    4.5890 C.ar  263  TRP263      0.0015
     87  N         30.8490   41.4230    7.3130 N.3   266  ARG266     -0.1231
     88  CA        31.9240   42.0680    8.0560 C.3   266  ARG266      0.1694
     89  C         31.6410   42.0750    9.5670 C.2   266  ARG266      0.2591
     90  O         32.5170   41.7300   10.3630 O.2   266  ARG266     -0.2718
     91  CB        32.1800   43.4780    7.4980 C.3   266  ARG266      0.0321
     92  CG        33.2130   44.3170    8.2360 C.3   266  ARG266      0.0489
     93  CD        32.5130   45.2330    9.2230 C.3   266  ARG266      0.2205
     94  NE        33.4390   46.1070    9.9240 N.pl3 266  ARG266     -0.0865
     95  CZ        33.0940   46.9790   10.8680 C.cat 266  ARG266      0.5346
     96  NH1       34.0270   47.7270   11.4300 N.pl3 266  ARG266      0.1354
     97  NH2       31.8280   47.1150   11.2420 N.pl3 266  ARG266      0.1354
     98  N         30.4100   42.4310    9.9390 N.am  267  ALA267     -0.1980
     99  CA        29.9900   42.4670   11.3350 C.3   267  ALA267      0.1597
    100  C         30.1960   41.1120   12.0050 C.2   267  ALA267      0.2287
    101  O         30.7730   41.0240   13.0910 O.2   267  ALA267     -0.2864
    102  CB        28.5340   42.8960   11.4420 C.3   267  ALA267      0.0319
    103  N         33.8280   40.0940   12.3370 N.3   270  GLY270     -0.1210
    104  CA        34.3690   40.7400   13.5360 C.3   270  GLY270      0.1956
    105  C         34.0390   39.9620   14.8010 C.2   270  GLY270      0.2611
    106  O         34.8760   39.8310   15.6960 O.2   270  GLY270     -0.2717
    107  N         32.8130   39.4470   14.8730 N.am  271  GLU271     -0.1979
    108  CA        32.3850   38.5870   15.9800 C.3   271  GLU271      0.1602
    109  C         33.1730   37.2800   16.0140 C.2   271  GLU271      0.2287
    110  O         33.5550   36.8080   17.0910 O.2   271  GLU271     -0.2864
    111  CB        30.8790   38.3000   15.8940 C.3   271  GLU271      0.0415
    112  CG        30.0130   39.5460   16.0800 C.3   271  GLU271      0.1163
    113  CD        30.4120   40.3420   17.3120 C.2   271  GLU271      0.3649
    114  OE1       30.5810   39.7300   18.3890 O.co2 271  GLU271     -0.2457
    115  OE2       30.5730   41.5770   17.2040 O.co2 271  GLU271     -0.2457
@<TRIPOS>BOND
     1    81    82   ar
     2    81    79   ar
     3    84    82   ar
     4    84    86   ar
     5    82    80   ar
     6    79    78   ar
     7    86    85   ar
     8    73    74    1
     9     1     2    1
    10    80    78   ar
    11    80    83   ar
    12    78    77    1
    13    85    83   ar
    14    74    77    1
    15    74    75    1
    16     2     5    1
    17     2     3    1
    18     5     6    1
    19    75    76    2
    20    87    88    1
    21     3     4    2
    22    91    88    1
    23    91    92    1
    24     8     7    1
    25    62    63    1
    26    88    89    1
    27     6     7    1
    28    92    93    1
    29    63    64    1
    30    63    66    1
    31    64    65    2
    32    68    70   ar
    33    68    67   ar
    34    93    94    1
    35    70    72   ar
    36    53    54    2
    37    53    52    1
    38    46    45    2
    39    89    98   am
    40    89    90    2
    41    43    44    1
    42    66    67    1
    43    94    95    2
    44    98    99    1
    45    67    69   ar
    46    45    44    1
    47    45    51   am
    48    44    47    1
    49    72    71   ar
    50     9    10    1
    51    17    15   am
    52    52    51    1
    53    52    55    1
    54    49    48    1
    55    95    97    1
    56    95    96    1
    57    69    71   ar
    58    47    48    1
    59    99   102    1
    60    99   100    1
    61    15    14    1
    62    15    16    2
    63    13    10    1
    64    13    14    1
    65    10    11    1
    66    48    50    1
    67    11    12    2
    68    55    56    1
    69   100   101    2
    70   103   104    1
    71    56    58   ar
    72    56    57   ar
    73    58    60   ar
    74    57    59   ar
    75   104   105    1
    76    60    61   ar
    77    41    39   ar
    78    41    42   ar
    79    59    61   ar
    80    39    36   ar
    81    32    31    2
    82    42    40   ar
    83   105   107   am
    84   105   106    2
    85   107   108    1
    86    33    34    1
    87    33    30    1
    88    36    34   ar
    89    36    38   ar
    90    31    30    1
    91    34    35   ar
    92    40    38   ar
    93    38    37   ar
    94    30    29    1
    95   111   108    1
    96   111   112    1
    97   108   109    1
    98   109   110    2
    99   112   113    1
   100    35    37   ar
   101   115   113   ar
   102   113   114   ar
   103    28    26    1
   104    26    25    2
   105    26    27    1
   106    25    24    1
   107    24    23    1
   108    23    22    1
   109    18    19    1
   110    22    19    1
   111    19    20    1
   112    20    21    2
