@<TRIPOS>MOLECULE
tmp/4flpA00.pdb
 136 132 0 0 0
SMALL
GASTEIGER

@<TRIPOS>ATOM
      1  N          2.2760   -8.8980  -25.6290 N.3    22  TRP22      -0.1228
      2  CA         1.9520   -8.3090  -26.9200 C.3    22  TRP22       0.1722
      3  C          3.1620   -7.7160  -27.6910 C.2    22  TRP22       0.2437
      4  O          3.1450   -7.7120  -28.8810 O.2    22  TRP22      -0.2733
      5  CB         0.7680   -7.3090  -26.8330 C.3    22  TRP22       0.0563
      6  CG         0.9650   -6.1680  -25.9650 C.ar   22  TRP22       0.0003
      7  CD1        0.5930   -6.0630  -24.6770 C.ar   22  TRP22       0.0946
      8  CD2        1.5580   -4.9240  -26.3100 C.ar   22  TRP22       0.0152
      9  NE1        0.9800   -4.8670  -24.1630 N.ar   22  TRP22      -0.2442
     10  CE2        1.5860   -4.1440  -25.1470 C.ar   22  TRP22       0.0810
     11  CE3        2.1360   -4.4210  -27.4600 C.ar   22  TRP22       0.0012
     12  CZ2        2.1250   -2.8660  -25.1200 C.ar   22  TRP22       0.0191
     13  CZ3        2.6520   -3.1450  -27.4210 C.ar   22  TRP22       0.0001
     14  CH2        2.6470   -2.3950  -26.2830 C.ar   22  TRP22       0.0015
     15  N          4.1800   -7.1940  -27.0050 N.am   23  PRO23      -0.2718
     16  CA         5.3080   -6.6510  -27.7600 C.3    23  PRO23       0.1535
     17  C          6.1580   -7.7580  -28.3400 C.2    23  PRO23       0.2598
     18  O          6.9670   -7.5090  -29.2170 O.2    23  PRO23      -0.2715
     19  CB         6.1180   -5.8940  -26.6980 C.3    23  PRO23       0.0310
     20  CG         5.1290   -5.5970  -25.6190 C.3    23  PRO23       0.0237
     21  CD         4.2640   -6.8280  -25.5860 C.3    23  PRO23       0.0939
     22  N          5.9420   -8.9830  -27.8630 N.am   24  PHE24      -0.1974
     23  CA         6.7710  -10.1180  -28.2070 C.3    24  PHE24       0.1639
     24  C          6.0590  -11.1250  -29.0950 C.2    24  PHE24       0.2290
     25  O          6.6440  -12.1600  -29.4910 O.2    24  PHE24      -0.2864
     26  CB         7.2370  -10.8050  -26.9190 C.3    24  PHE24       0.0560
     27  CG         7.8620   -9.8640  -25.9310 C.ar   24  PHE24      -0.0200
     28  CD1        9.1650   -9.4650  -26.0840 C.ar   24  PHE24      -0.0042
     29  CD2        7.1470   -9.3810  -24.8450 C.ar   24  PHE24      -0.0042
     30  CE1        9.7650   -8.5900  -25.1770 C.ar   24  PHE24      -0.0003
     31  CE2        7.7320   -8.4950  -23.9620 C.ar   24  PHE24      -0.0003
     32  CZ         9.0560   -8.1140  -24.1310 C.ar   24  PHE24      -0.0000
     33  N          5.0920  -10.6370  -32.3050 N.3    26  ARG26      -0.1245
     34  CA         5.6050  -10.5960  -33.6780 C.3    26  ARG26       0.1563
     35  C          7.0380  -10.0600  -33.6810 C.2    26  ARG26       0.2260
     36  O          7.4830   -9.4160  -32.7210 O.2    26  ARG26      -0.2867
     37  CB         4.7480   -9.6820  -34.5660 C.3    26  ARG26       0.0307
     38  CG         3.3030  -10.1540  -34.8670 C.3    26  ARG26       0.0489
     39  CD         3.2470  -11.3270  -35.8390 C.3    26  ARG26       0.2205
     40  NE         1.8840  -11.6640  -36.2710 N.pl3  26  ARG26      -0.0865
     41  CZ         0.9890  -12.3580  -35.5590 C.cat  26  ARG26       0.5346
     42  NH1        1.2650  -12.8100  -34.3370 N.pl3  26  ARG26       0.1354
     43  NH2       -0.2100  -12.5990  -36.0780 N.pl3  26  ARG26       0.1354
     44  N          9.9750   -7.4110  -34.3230 N.3    28  VAL28      -0.1231
     45  CA         9.9610   -5.9530  -34.1580 C.3    28  VAL28       0.1692
     46  C          9.8200   -5.3770  -35.5610 C.2    28  VAL28       0.2592
     47  O         10.5350   -5.7920  -36.4870 O.2    28  VAL28      -0.2718
     48  CB        11.2760   -5.4260  -33.5440 C.3    28  VAL28       0.0266
     49  CG1       11.3770   -3.9170  -33.5970 C.3    28  VAL28       0.0020
     50  CG2       11.4470   -5.8840  -32.1400 C.3    28  VAL28       0.0020
     51  N          8.8870   -4.4420  -35.7180 N.am   29  ASP29      -0.1974
     52  CA         8.6480   -3.7990  -36.9750 C.3    29  ASP29       0.1709
     53  C          9.3910   -2.5050  -36.8460 C.2    29  ASP29       0.2293
     54  O          8.8390   -1.5730  -36.3080 O.2    29  ASP29      -0.2864
     55  CB         7.1560   -3.5160  -37.1760 C.3    29  ASP29       0.1436
     56  CG         6.8400   -2.8760  -38.5470 C.2    29  ASP29       0.3671
     57  OD1        7.7410   -2.2470  -39.1620 O.co2  29  ASP29      -0.2456
     58  OD2        5.6650   -3.0020  -39.0210 O.co2  29  ASP29      -0.2456
     59  N          7.9850    1.3020  -35.7710 N.3    33  LEU33      -0.1245
     60  CA         8.4100    1.7790  -34.4590 C.3    33  LEU33       0.1561
     61  C          9.5100    2.8120  -34.6000 C.2    33  LEU33       0.2260
     62  O          9.9580    3.3560  -33.6050 O.2    33  LEU33      -0.2867
     63  CB         8.9350    0.6300  -33.6610 C.3    33  LEU33       0.0270
     64  CG         7.9350   -0.4700  -33.3070 C.3    33  LEU33       0.0019
     65  CD1        8.6490   -1.4400  -32.2750 C.3    33  LEU33       0.0001
     66  CD2        6.7210    0.1520  -32.7110 C.3    33  LEU33       0.0001
     67  N         12.7330    2.4430  -35.4630 N.3    35  LEU35      -0.1245
     68  CA        14.0050    2.0180  -34.8250 C.3    35  LEU35       0.1561
     69  C         14.9870    1.5570  -35.9260 C.2    35  LEU35       0.2260
     70  O         15.1650    0.3500  -36.1800 O.2    35  LEU35      -0.2867
     71  CB        13.7650    0.9080  -33.7910 C.3    35  LEU35       0.0270
     72  CG        12.6960    1.1560  -32.7070 C.3    35  LEU35       0.0019
     73  CD1       12.5050   -0.0920  -31.8070 C.3    35  LEU35       0.0001
     74  CD2       12.9570    2.4080  -31.8640 C.3    35  LEU35       0.0001
     75  N         17.6610   -0.9700  -34.8620 N.3    38  TYR38      -0.1241
     76  CA        17.3220   -2.1700  -34.0820 C.3    38  TYR38       0.1605
     77  C         17.9730   -3.4380  -34.5990 C.2    38  TYR38       0.2264
     78  O         18.5650   -4.1960  -33.8280 O.2    38  TYR38      -0.2867
     79  CB        15.8000   -2.3670  -33.9720 C.3    38  TYR38       0.0534
     80  CG        15.4450   -3.5790  -33.1550 C.ar   38  TYR38      -0.0201
     81  CD1       15.2650   -3.4940  -31.8100 C.ar   38  TYR38      -0.0009
     82  CD2       15.3420   -4.8190  -33.7290 C.ar   38  TYR38      -0.0009
     83  CE1       14.9710   -4.5870  -31.0390 C.ar   38  TYR38       0.0417
     84  CE2       15.0430   -5.9360  -32.9480 C.ar   38  TYR38       0.0417
     85  CZ        14.8600   -5.8080  -31.6010 C.ar   38  TYR38       0.1957
     86  OH        14.5620   -6.9080  -30.8010 O.3    38  TYR38      -0.2866
     87  N         15.7090   -7.9440  -25.5070 N.3    77  CYS77      -0.1235
     88  CA        15.0040   -6.7930  -24.9320 C.3    77  CYS77       0.1677
     89  C         15.9400   -5.9600  -23.9870 C.2    77  CYS77       0.2270
     90  O         15.9690   -4.7140  -24.0160 O.2    77  CYS77      -0.2867
     91  CB        13.8180   -7.3260  -24.1690 C.3    77  CYS77       0.0956
     92  SG        12.7010   -6.1140  -23.7200 S.3    77  CYS77      -0.0801
     93  N         18.7410   -4.0700  -25.9880 N.3    80  TYR80      -0.1227
     94  CA        18.3250   -2.8680  -26.7630 C.3    80  TYR80       0.1736
     95  C         17.8140   -1.6980  -25.8870 C.2    80  TYR80       0.2595
     96  O         18.0820   -0.5170  -26.1670 O.2    80  TYR80      -0.2718
     97  CB        17.2780   -3.2220  -27.8450 C.3    80  TYR80       0.0548
     98  CG        16.9450   -2.0270  -28.7300 C.ar   80  TYR80      -0.0200
     99  CD1       15.8240   -1.2130  -28.4980 C.ar   80  TYR80      -0.0009
    100  CD2       17.7860   -1.6750  -29.7410 C.ar   80  TYR80      -0.0009
    101  CE1       15.5800   -0.1260  -29.2850 C.ar   80  TYR80       0.0417
    102  CE2       17.5560   -0.6040  -30.5100 C.ar   80  TYR80       0.0417
    103  CZ        16.4810    0.1760  -30.3020 C.ar   80  TYR80       0.1957
    104  OH        16.3530    1.2020  -31.1990 O.3    80  TYR80      -0.2866
    105  N         17.0910   -2.0480  -24.8280 N.am   81  ASN81      -0.1974
    106  CA        16.4270   -1.1020  -23.9350 C.3    81  ASN81       0.1688
    107  C         17.3020   -0.8010  -22.6850 C.2    81  ASN81       0.2292
    108  O         18.4780   -1.0860  -22.7300 O.2    81  ASN81      -0.2864
    109  CB        15.0630   -1.7130  -23.5990 C.3    81  ASN81       0.1181
    110  CG        14.1820   -1.7630  -24.8040 C.2    81  ASN81       0.2629
    111  OD1       13.7380   -0.7380  -25.2320 O.2    81  ASN81      -0.2716
    112  ND2       14.0330   -2.9360  -25.4320 N.am   81  ASN81      -0.0877
    113  N          9.5440    0.5030  -19.2350 N.3    86  ASP86      -0.1225
    114  CA         8.3310   -0.3130  -19.2050 C.3    86  ASP86       0.1805
    115  C          8.5460   -1.6620  -19.9200 C.2    86  ASP86       0.2597
    116  O          8.0300   -2.7040  -19.4760 O.2    86  ASP86      -0.2718
    117  CB         7.1620    0.4480  -19.8900 C.3    86  ASP86       0.1424
    118  CG         6.8110    1.7940  -19.1870 C.2    86  ASP86       0.3668
    119  OD1        7.0980    1.9450  -17.9830 O.co2  86  ASP86      -0.2456
    120  OD2        6.2050    2.6850  -19.8450 O.co2  86  ASP86      -0.2456
    121  N          9.2450   -1.6590  -21.0630 N.am   87  ILE87      -0.1980
    122  CA         9.3260   -2.8940  -21.8570 C.3    87  ILE87       0.1595
    123  C         10.1890   -3.9230  -21.0920 C.2    87  ILE87       0.2287
    124  O          9.9260   -5.1370  -21.1270 O.2    87  ILE87      -0.2864
    125  CB         9.8070   -2.6400  -23.2780 C.3    87  ILE87       0.0276
    126  CG1        9.5870   -3.8920  -24.1760 C.3    87  ILE87       0.0022
    127  CG2       11.2970   -2.1910  -23.3060 C.3    87  ILE87       0.0022
    128  CD1        8.2250   -4.3780  -24.2720 C.3    87  ILE87       0.0001
    129  N          8.0670   -5.5400  -18.3460 N.3    90  MET90      -0.1245
    130  CA         7.2320   -6.5560  -18.9420 C.3    90  MET90       0.1570
    131  C          8.0480   -7.8460  -19.1980 C.2    90  MET90       0.2261
    132  O          7.6100   -8.9550  -18.9270 O.2    90  MET90      -0.2867
    133  CB         6.6080   -6.0260  -20.2440 C.3    90  MET90       0.0387
    134  CG         5.5800   -4.8860  -20.0310 C.3    90  MET90       0.0595
    135  SD         5.1540   -3.9860  -21.5470 S.3    90  MET90      -0.1393
    136  CE         4.0820   -5.1480  -22.2940 C.3    90  MET90       0.0692
@<TRIPOS>BOND
     1    57    56   ar
     2    58    56   ar
     3    56    55    1
     4    55    52    1
     5    52    53    1
     6    52    51    1
     7    53    54    2
     8    47    46    2
     9    40    39    1
    10    40    41    2
    11    70    69    2
    12    43    41    1
    13    69    68    1
    14    39    38    1
    15    59    60    1
    16    51    46   am
    17    46    45    1
    18    41    42    1
    19    67    68    1
    20    38    37    1
    21    75    76    1
    22    68    71    1
    23    61    60    1
    24    61    62    2
    25    77    76    1
    26    77    78    2
    27    37    34    1
    28    60    63    1
    29    44    45    1
    30    45    48    1
    31    76    79    1
    32    79    80    1
    33    71    72    1
    34    82    80   ar
    35    82    84   ar
    36    35    34    1
    37    35    36    2
    38    34    33    1
    39    63    64    1
    40    49    48    1
    41    48    50    1
    42    64    66    1
    43    64    65    1
    44    80    81   ar
    45    84    85   ar
    46    72    74    1
    47    72    73    1
    48    81    83   ar
    49    85    83   ar
    50    85    86    1
    51   104   103    1
    52   102   103   ar
    53   102   100   ar
    54   103   101   ar
    55   100    98   ar
    56    25    24    2
    57   101    99   ar
    58    18    17    2
    59    24    23    1
    60     4     3    2
    61    98    99   ar
    62    98    97    1
    63    17    22   am
    64    17    16    1
    65    23    22    1
    66    23    26    1
    67    97    94    1
    68    16    15    1
    69    16    19    1
    70     3    15   am
    71     3     2    1
    72    11    13   ar
    73    11     8   ar
    74    13    14   ar
    75    15    21    1
    76     2     5    1
    77     2     1    1
    78    26    27    1
    79     5     6    1
    80    94    93    1
    81    94    95    1
    82    19    20    1
    83     8     6   ar
    84     8    10   ar
    85    14    12   ar
    86    96    95    2
    87    28    27   ar
    88    28    30   ar
    89     6     7   ar
    90    27    29   ar
    91    95   105   am
    92    20    21    1
    93    87    88    1
    94   112   110   am
    95   111   110    2
    96    30    32   ar
    97    10    12   ar
    98    10     9   ar
    99    88    91    1
   100    88    89    1
   101    29    31   ar
   102   105   106    1
   103   110   109    1
   104     7     9   ar
   105   128   126    1
   106   126   125    1
   107    91    92    1
   108    32    31   ar
   109    90    89    2
   110   106   109    1
   111   106   107    1
   112   127   125    1
   113   125   122    1
   114   108   107    2
   115   136   135    1
   116   122   123    1
   117   122   121    1
   118   135   134    1
   119   124   123    2
   120   121   115   am
   121   133   134    1
   122   133   130    1
   123   115   116    2
   124   115   114    1
   125   117   114    1
   126   117   118    1
   127   120   118   ar
   128   113   114    1
   129   131   130    1
   130   131   132    2
   131   118   119   ar
   132   130   129    1
