@<TRIPOS>MOLECULE
tmp/4flqA02.pdb
 111 108 0 0 0
SMALL
GASTEIGER

@<TRIPOS>ATOM
      1  N         39.0750   46.7300    5.3950 N.3    63  MET63      -0.1245
      2  CA        38.7530   46.8540    6.8050 C.3    63  MET63       0.1570
      3  C         38.8600   45.5150    7.5350 C.2    63  MET63       0.2261
      4  O         39.4660   45.4490    8.6000 O.2    63  MET63      -0.2867
      5  CB        37.3590   47.4380    6.9580 C.3    63  MET63       0.0387
      6  CG        36.9730   47.7800    8.3820 C.3    63  MET63       0.0595
      7  SD        35.2940   48.4310    8.4180 S.3    63  MET63      -0.1393
      8  CE        35.5470   50.0220    7.6120 C.3    63  MET63       0.0692
      9  N         41.7500   44.3400   10.4840 N.3    67  GLN67      -0.1245
     10  CA        41.4060   43.6950   11.7570 C.3    67  GLN67       0.1566
     11  C         42.0730   42.3300   11.9110 C.2    67  GLN67       0.2260
     12  O         42.6410   42.0340   12.9600 O.2    67  GLN67      -0.2867
     13  CB        39.9020   43.4850   11.8920 C.3    67  GLN67       0.0367
     14  CG        39.0550   44.7310   12.0220 C.3    67  GLN67       0.0905
     15  CD        37.5820   44.3800   11.9790 C.2    67  GLN67       0.2608
     16  OE1       37.0730   43.6390   12.8310 O.2    67  GLN67      -0.2717
     17  NE2       36.8920   44.8910   10.9690 N.am   67  GLN67      -0.0878
     18  N         29.9610   39.1060   22.8410 N.3   153  ARG153     -0.1245
     19  CA        31.1170   39.4330   23.6820 C.3   153  ARG153      0.1563
     20  C         30.8190   39.3900   25.1840 C.2   153  ARG153      0.2260
     21  O         31.7290   39.1960   25.9950 O.2   153  ARG153     -0.2867
     22  CB        31.6840   40.8090   23.3100 C.3   153  ARG153      0.0307
     23  CG        31.8040   41.0320   21.8130 C.3   153  ARG153      0.0489
     24  CD        33.0510   41.8110   21.4450 C.3   153  ARG153      0.2205
     25  NE        33.2260   41.8330   19.9960 N.pl3 153  ARG153     -0.0865
     26  CZ        34.3360   42.2140   19.3760 C.cat 153  ARG153      0.5346
     27  NH1       35.3900   42.6160   20.0730 N.pl3 153  ARG153      0.1354
     28  NH2       34.3880   42.1940   18.0520 N.pl3 153  ARG153      0.1354
     29  N         22.3290   45.4880   17.1860 N.3   194  TRP194     -0.1241
     30  CA        22.1740   45.6430   15.7340 C.3   194  TRP194      0.1605
     31  C         20.7350   45.5760   15.3150 C.2   194  TRP194      0.2264
     32  O         20.3340   46.2420   14.3530 O.2   194  TRP194     -0.2867
     33  CB        22.9790   44.6060   14.9510 C.3   194  TRP194      0.0550
     34  CG        24.4370   44.4620   15.3300 C.ar  194  TRP194      0.0003
     35  CD1       25.2270   45.3360   16.0800 C.ar  194  TRP194      0.0946
     36  CD2       25.3350   43.3650   14.9590 C.ar  194  TRP194      0.0152
     37  NE1       26.5080   44.8610   16.1990 N.ar  194  TRP194     -0.2442
     38  CE2       26.6420   43.6840   15.5520 C.ar  194  TRP194      0.0810
     39  CE3       25.1940   42.1880   14.2260 C.ar  194  TRP194      0.0012
     40  CZ2       27.7410   42.8500   15.3970 C.ar  194  TRP194      0.0191
     41  CZ3       26.3100   41.3570   14.0770 C.ar  194  TRP194      0.0001
     42  CH2       27.5510   41.6820   14.6480 C.ar  194  TRP194      0.0015
     43  N         23.8020   53.3950    9.8910 N.3   204  LEU204     -0.1231
     44  CA        24.9740   52.5460   10.0880 C.3   204  LEU204      0.1693
     45  C         24.6010   51.0550   10.0760 C.2   204  LEU204      0.2592
     46  O         25.4340   50.1960    9.7580 O.2   204  LEU204     -0.2718
     47  CB        25.7030   52.9130   11.3880 C.3   204  LEU204      0.0284
     48  CG        26.9920   52.1460   11.7450 C.3   204  LEU204      0.0019
     49  CD1       28.1300   52.4200   10.7590 C.3   204  LEU204      0.0001
     50  CD2       27.4310   52.4330   13.1790 C.3   204  LEU204      0.0001
     51  N         23.3500   50.7540   10.4110 N.am  205  PHE205     -0.1976
     52  CA        22.9010   49.3690   10.4730 C.3   205  PHE205      0.1639
     53  C         21.8020   49.0400    9.4710 C.2   205  PHE205      0.2290
     54  O         20.9950   48.1300    9.6920 O.2   205  PHE205     -0.2864
     55  CB        22.4810   49.0160   11.8980 C.3   205  PHE205      0.0560
     56  CG        23.6440   48.7970   12.8200 C.ar  205  PHE205     -0.0200
     57  CD1       24.0730   49.8090   13.6720 C.ar  205  PHE205     -0.0042
     58  CD2       24.3300   47.5820   12.8130 C.ar  205  PHE205     -0.0042
     59  CE1       25.1530   49.6100   14.5130 C.ar  205  PHE205     -0.0003
     60  CE2       25.4140   47.3800   13.6490 C.ar  205  PHE205     -0.0003
     61  CZ        25.8260   48.3950   14.5040 C.ar  205  PHE205     -0.0000
     62  N         20.9430   45.1850    7.8470 N.3   208  PHE208     -0.1241
     63  CA        21.5480   44.1670    8.6990 C.3   208  PHE208      0.1605
     64  C         20.6140   42.9730    8.8970 C.2   208  PHE208      0.2264
     65  O         21.0590   41.8810    9.2600 O.2   208  PHE208     -0.2867
     66  CB        22.0130   44.7620   10.0420 C.3   208  PHE208      0.0534
     67  CG        23.5050   44.9560   10.1310 C.ar  208  PHE208     -0.0203
     68  CD1       24.1670   45.8370    9.2720 C.ar  208  PHE208     -0.0042
     69  CD2       24.2560   44.2440   11.0590 C.ar  208  PHE208     -0.0042
     70  CE1       25.5450   46.0020    9.3410 C.ar  208  PHE208     -0.0003
     71  CE2       25.6340   44.4050   11.1360 C.ar  208  PHE208     -0.0003
     72  CZ        26.2800   45.2830   10.2730 C.ar  208  PHE208     -0.0000
     73  N         28.7150   44.2040    4.7970 N.3   263  TRP263     -0.1241
     74  CA        29.0620   44.7200    6.1230 C.3   263  TRP263      0.1605
     75  C         28.5500   43.8370    7.2170 C.2   263  TRP263      0.2264
     76  O         29.0150   43.9290    8.3510 O.2   263  TRP263     -0.2867
     77  CB        28.5830   46.1630    6.3140 C.3   263  TRP263      0.0550
     78  CG        29.1930   47.1040    5.3070 C.ar  263  TRP263      0.0003
     79  CD1       28.5590   47.7250    4.2360 C.ar  263  TRP263      0.0946
     80  CD2       30.5990   47.5310    5.2170 C.ar  263  TRP263      0.0152
     81  NE1       29.4420   48.4940    3.5250 N.ar  263  TRP263     -0.2442
     82  CE2       30.6810   48.4220    4.0530 C.ar  263  TRP263      0.0810
     83  CE3       31.7500   47.2850    5.9620 C.ar  263  TRP263      0.0012
     84  CZ2       31.8730   49.0260    3.6680 C.ar  263  TRP263      0.0191
     85  CZ3       32.9460   47.8960    5.5650 C.ar  263  TRP263      0.0001
     86  CH2       33.0050   48.7470    4.4470 C.ar  263  TRP263      0.0015
     87  N         31.4580   41.3340    7.3340 N.3   266  ARG266     -0.1231
     88  CA        32.5250   41.9740    8.0900 C.3   266  ARG266      0.1694
     89  C         32.2550   41.9460    9.6020 C.2   266  ARG266      0.2591
     90  O         33.1340   41.5690   10.3930 O.2   266  ARG266     -0.2718
     91  CB        32.7090   43.4160    7.6080 C.3   266  ARG266      0.0321
     92  CG        34.1060   43.9680    7.8120 C.3   266  ARG266      0.0489
     93  CD        34.3800   44.2240    9.2760 C.3   266  ARG266      0.2205
     94  NE        33.6300   45.3730    9.7670 N.pl3 266  ARG266     -0.0865
     95  CZ        33.4210   45.6580   11.0530 C.cat 266  ARG266      0.5346
     96  NH1       33.8970   44.8660   12.0190 N.pl3 266  ARG266      0.1354
     97  NH2       32.7220   46.7440   11.3700 N.pl3 266  ARG266      0.1354
     98  N         31.0440   42.3470    9.9920 N.am  267  ALA267     -0.1980
     99  CA        30.6620   42.4020   11.3980 C.3   267  ALA267      0.1597
    100  C         30.7960   41.0300   12.0530 C.2   267  ALA267      0.2287
    101  O         31.3250   40.9090   13.1600 O.2   267  ALA267     -0.2864
    102  CB        29.2460   42.9290   11.5420 C.3   267  ALA267      0.0319
    103  N         33.4080   39.2690   14.9450 N.3   271  GLU271     -0.1245
    104  CA        32.9480   38.4960   16.0900 C.3   271  GLU271      0.1567
    105  C         33.6470   37.1300   16.1540 C.2   271  GLU271      0.2260
    106  O         33.8890   36.5880   17.2420 O.2   271  GLU271     -0.2867
    107  CB        31.4240   38.3390   16.0450 C.3   271  GLU271      0.0388
    108  CG        30.6520   39.6580   16.0610 C.3   271  GLU271      0.1160
    109  CD        30.9460   40.4960   17.2940 C.2   271  GLU271      0.3649
    110  OE1       30.4830   40.1200   18.3860 O.co2 271  GLU271     -0.2457
    111  OE2       31.6410   41.5290   17.1810 O.co2 271  GLU271     -0.2457
@<TRIPOS>BOND
     1    81    82   ar
     2    81    79   ar
     3    84    82   ar
     4    84    86   ar
     5    82    80   ar
     6    79    78   ar
     7    86    85   ar
     8    73    74    1
     9    80    78   ar
    10    80    83   ar
    11    78    77    1
    12     1     2    1
    13    85    83   ar
    14    74    77    1
    15    74    75    1
    16     2     5    1
    17     2     3    1
    18     5     6    1
    19    75    76    2
    20    87    88    1
    21     3     4    2
    22    91    92    1
    23    91    88    1
    24     8     7    1
    25    92    93    1
    26    62    63    1
    27    88    89    1
    28     6     7    1
    29    63    64    1
    30    63    66    1
    31    64    65    2
    32    68    70   ar
    33    68    67   ar
    34    93    94    1
    35    70    72   ar
    36    53    54    2
    37    53    52    1
    38    89    98   am
    39    89    90    2
    40    46    45    2
    41    94    95    2
    42    43    44    1
    43    98    99    1
    44    66    67    1
    45    45    44    1
    46    45    51   am
    47    44    47    1
    48    67    69   ar
    49    72    71   ar
    50    51    52    1
    51    52    55    1
    52     9    10    1
    53    49    48    1
    54    17    15   am
    55    95    97    1
    56    95    96    1
    57    69    71   ar
    58    47    48    1
    59    99   102    1
    60    99   100    1
    61    48    50    1
    62    10    13    1
    63    10    11    1
    64    13    14    1
    65    55    56    1
    66    11    12    2
    67    15    14    1
    68    15    16    2
    69   100   101    2
    70    58    56   ar
    71    58    60   ar
    72    56    57   ar
    73    60    61   ar
    74    57    59   ar
    75    41    39   ar
    76    41    42   ar
    77    39    36   ar
    78    32    31    2
    79    61    59   ar
    80    42    40   ar
    81   103   104    1
    82    33    34    1
    83    33    30    1
    84    36    34   ar
    85    36    38   ar
    86    31    30    1
    87    34    35   ar
    88    40    38   ar
    89    38    37   ar
    90    30    29    1
    91   107   108    1
    92   107   104    1
    93   108   109    1
    94    35    37   ar
    95   104   105    1
    96   105   106    2
    97   111   109   ar
    98   109   110   ar
    99    28    26    1
   100    26    25    2
   101    26    27    1
   102    25    24    1
   103    24    23    1
   104    23    22    1
   105    18    19    1
   106    22    19    1
   107    19    20    1
   108    20    21    2
