@<TRIPOS>MOLECULE
tmp/4flsA00.pdb
 205 195 0 0 0
SMALL
GASTEIGER

@<TRIPOS>ATOM
      1  N        -16.8880  -32.6200   22.8780 N.3   144  ASP144     -0.1239
      2  CA       -17.0800  -31.3450   22.1800 C.3   144  ASP144      0.1674
      3  C        -18.3390  -30.6480   22.7100 C.2   144  ASP144      0.2266
      4  O        -19.1860  -30.1890   21.9370 O.2   144  ASP144     -0.2867
      5  CB       -17.1530  -31.5640   20.6580 C.3   144  ASP144      0.1410
      6  CG       -17.1780  -30.2580   19.8610 C.2   144  ASP144      0.3668
      7  OD1      -16.7840  -29.2000   20.3960 O.co2 144  ASP144     -0.2456
      8  OD2      -17.5980  -30.2930   18.6820 O.co2 144  ASP144     -0.2456
      9  N        -21.4960  -32.0710   21.3360 N.3   147  TYR147     -0.1241
     10  CA       -21.6340  -32.0750   19.8800 C.3   147  TYR147      0.1605
     11  C        -21.1720  -33.3860   19.2210 C.2   147  TYR147      0.2264
     12  O        -21.3750  -33.5930   18.0230 O.2   147  TYR147     -0.2867
     13  CB       -21.0080  -30.8190   19.2440 C.3   147  TYR147      0.0534
     14  CG       -21.9560  -29.6320   19.2780 C.ar  147  TYR147     -0.0201
     15  CD1      -21.8530  -28.6570   20.2630 C.ar  147  TYR147     -0.0009
     16  CD2      -22.9810  -29.5090   18.3360 C.ar  147  TYR147     -0.0009
     17  CE1      -22.7400  -27.5820   20.3060 C.ar  147  TYR147      0.0417
     18  CE2      -23.8720  -28.4440   18.3720 C.ar  147  TYR147      0.0417
     19  CZ       -23.7480  -27.4800   19.3540 C.ar  147  TYR147      0.1957
     20  OH       -24.6320  -26.4190   19.3850 O.3   147  TYR147     -0.2866
     21  N        -22.4120  -35.2620   11.5560 N.3   187  HIS187     -0.1241
     22  CA       -21.5100  -36.2050   12.2000 C.3   187  HIS187      0.1621
     23  C        -22.0750  -36.7510   13.4740 C.2   187  HIS187      0.2264
     24  O        -22.8880  -36.0940   14.1180 O.2   187  HIS187     -0.2867
     25  CB       -20.1740  -35.5300   12.4900 C.3   187  HIS187      0.0745
     26  CG       -20.2990  -34.2150   13.2200 C.ar  187  HIS187      0.0817
     27  ND1      -20.4640  -33.0390   12.5750 N.ar  187  HIS187     -0.2268
     28  CD2      -20.2640  -33.9160   14.5820 C.ar  187  HIS187      0.1154
     29  CE1      -20.5470  -32.0420   13.4820 C.ar  187  HIS187      0.1986
     30  NE2      -20.4170  -32.5790   14.7080 N.ar  187  HIS187     -0.2212
     31  N        -10.3270  -26.8800    4.2870 N.3   226  ARG226     -0.1245
     32  CA       -10.0410  -25.8890    5.3100 C.3   226  ARG226      0.1563
     33  C         -9.9080  -26.6400    6.6390 C.2   226  ARG226      0.2260
     34  O        -10.5770  -27.6540    6.8500 O.2   226  ARG226     -0.2867
     35  CB       -11.1920  -24.8780    5.3410 C.3   226  ARG226      0.0307
     36  CG       -11.1450  -23.8170    6.4280 C.3   226  ARG226      0.0489
     37  CD       -12.1240  -22.6840    6.1340 C.3   226  ARG226      0.2205
     38  NE       -13.5380  -23.0840    6.1680 N.pl3 226  ARG226     -0.0865
     39  CZ       -14.3480  -22.9260    7.2190 C.cat 226  ARG226      0.5346
     40  NH1      -13.8900  -22.3960    8.3510 N.pl3 226  ARG226      0.1354
     41  NH2      -15.6190  -23.3050    7.1420 N.pl3 226  ARG226      0.1354
     42  N        -10.6280  -26.9950   10.4620 N.3   228  ILE228     -0.1231
     43  CA       -11.5750  -26.4750   11.4530 C.3   228  ILE228      0.1692
     44  C        -10.9830  -26.4260   12.8660 C.2   228  ILE228      0.2592
     45  O        -11.0140  -25.3850   13.5230 O.2   228  ILE228     -0.2718
     46  CB       -12.9300  -27.2330   11.4110 C.3   228  ILE228      0.0266
     47  CG1      -13.4840  -27.2790    9.9710 C.3   228  ILE228      0.0019
     48  CG2      -13.9340  -26.6130   12.3800 C.3   228  ILE228      0.0020
     49  CD1      -13.7130  -25.9320    9.2980 C.3   228  ILE228      0.0001
     50  N        -10.4400  -27.5480   13.3270 N.am  229  PHE229     -0.1976
     51  CA        -9.7410  -27.5800   14.6110 C.3   229  PHE229      0.1639
     52  C         -8.2790  -28.0060   14.4220 C.2   229  PHE229      0.2290
     53  O         -7.9140  -29.1300   14.7920 O.2   229  PHE229     -0.2864
     54  CB       -10.4460  -28.5180   15.6180 C.3   229  PHE229      0.0560
     55  CG       -11.8500  -28.1040   15.9880 C.ar  229  PHE229     -0.0200
     56  CD1      -12.1980  -26.7610   16.1240 C.ar  229  PHE229     -0.0042
     57  CD2      -12.8210  -29.0710   16.2460 C.ar  229  PHE229     -0.0042
     58  CE1      -13.4920  -26.3920   16.4770 C.ar  229  PHE229     -0.0003
     59  CE2      -14.1150  -28.7080   16.6010 C.ar  229  PHE229     -0.0003
     60  CZ       -14.4510  -27.3660   16.7150 C.ar  229  PHE229     -0.0000
     61  N        -14.2380  -32.3960   12.4570 N.3   250  PHE250     -0.1241
     62  CA       -14.0610  -31.7570   13.7520 C.3   250  PHE250      0.1605
     63  C        -13.0630  -32.5210   14.6080 C.2   250  PHE250      0.2264
     64  O        -11.9510  -32.7870   14.1490 O.2   250  PHE250     -0.2867
     65  CB       -15.4240  -31.5140   14.4080 C.3   250  PHE250      0.0534
     66  CG       -16.3330  -30.6680   13.5610 C.ar  250  PHE250     -0.0203
     67  CD1      -16.1460  -29.2880   13.4840 C.ar  250  PHE250     -0.0042
     68  CD2      -17.3350  -31.2520   12.7910 C.ar  250  PHE250     -0.0042
     69  CE1      -16.9610  -28.5000   12.6810 C.ar  250  PHE250     -0.0003
     70  CE2      -18.1550  -30.4680   11.9820 C.ar  250  PHE250     -0.0003
     71  CZ       -17.9710  -29.0910   11.9330 C.ar  250  PHE250     -0.0000
     72  N        -15.4180  -37.3080   16.3690 N.3   254  GLN254     -0.1245
     73  CA       -16.5900  -36.9380   15.5770 C.3   254  GLN254      0.1566
     74  C        -16.4110  -37.4000   14.1310 C.2   254  GLN254      0.2260
     75  O        -15.5340  -36.9180   13.4170 O.2   254  GLN254     -0.2867
     76  CB       -16.8640  -35.4330   15.6730 C.3   254  GLN254      0.0367
     77  CG       -17.3920  -35.0060   17.0350 C.3   254  GLN254      0.0905
     78  CD       -17.1620  -33.5350   17.3270 C.2   254  GLN254      0.2608
     79  OE1      -16.0150  -33.0750   17.3930 O.2   254  GLN254     -0.2717
     80  NE2      -18.2510  -32.7870   17.5160 N.am  254  GLN254     -0.0878
     81  N        -31.8060  -26.7120   15.1220 N.3   284  ARG284     -0.1245
     82  CA       -30.5900  -26.0570   14.6730 C.3   284  ARG284      0.1563
     83  C        -29.8190  -27.0830   13.8510 C.2   284  ARG284      0.2260
     84  O        -29.3180  -28.0690   14.3910 O.2   284  ARG284     -0.2867
     85  CB       -29.7750  -25.5910   15.8830 C.3   284  ARG284      0.0307
     86  CG       -28.5040  -24.8300   15.5530 C.3   284  ARG284      0.0489
     87  CD       -27.7550  -24.4700   16.8270 C.3   284  ARG284      0.2205
     88  NE       -26.4810  -23.8050   16.5550 N.pl3 284  ARG284     -0.0865
     89  CZ       -25.3510  -24.4290   16.2310 C.cat 284  ARG284      0.5346
     90  NH1      -25.3090  -25.7540   16.1320 N.pl3 284  ARG284      0.1354
     91  NH2      -24.2550  -23.7210   16.0070 N.pl3 284  ARG284      0.1354
     92  N        -26.8940  -28.3920   12.4710 N.3   286  ASP286     -0.1225
     93  CA       -25.4830  -28.1330   12.7520 C.3   286  ASP286      0.1805
     94  C        -24.5900  -28.5210   11.5780 C.2   286  ASP286      0.2597
     95  O        -24.6950  -29.6300   11.0340 O.2   286  ASP286     -0.2718
     96  CB       -25.0300  -28.8340   14.0370 C.3   286  ASP286      0.1424
     97  CG       -23.6380  -28.4010   14.4830 C.2   286  ASP286      0.3668
     98  OD1      -23.4650  -27.2340   14.8870 O.co2 286  ASP286     -0.2456
     99  OD2      -22.7090  -29.2320   14.4340 O.co2 286  ASP286     -0.2456
    100  N        -23.7150  -27.5860   11.2050 N.am  287  ALA287     -0.1979
    101  CA       -22.7510  -27.7690   10.1150 C.3   287  ALA287      0.1597
    102  C        -23.4170  -28.1910    8.8000 C.2   287  ALA287      0.2287
    103  O        -23.0320  -29.1900    8.1960 O.2   287  ALA287     -0.2864
    104  CB       -21.6370  -28.7370   10.5190 C.3   287  ALA287      0.0319
    105  N        -21.2620  -28.8590    5.3540 N.3   290  LYS290     -0.1245
    106  CA       -20.3000  -29.9480    5.2020 C.3   290  LYS290      0.1561
    107  C        -20.8820  -31.2890    4.7590 C.2   290  LYS290      0.2260
    108  O        -20.1240  -32.2310    4.5260 O.2   290  LYS290     -0.2867
    109  CB       -19.5290  -30.1500    6.5100 C.3   290  LYS290      0.0271
    110  CG       -19.3830  -28.8890    7.3460 C.3   290  LYS290      0.0035
    111  CD       -18.0310  -28.8260    8.0190 C.3   290  LYS290      0.0206
    112  CE       -17.1170  -27.8690    7.2730 C.3   290  LYS290      0.1093
    113  NZ       -17.1710  -26.4860    7.8210 N.3   290  LYS290     -0.1314
    114  N        -27.0250  -23.2700   10.5780 N.3   328  GLN328     -0.1231
    115  CA       -25.7740  -22.9280   11.2360 C.3   328  GLN328      0.1698
    116  C        -24.6690  -23.0200   10.1830 C.2   328  GLN328      0.2592
    117  O        -24.1650  -24.1180    9.8960 O.2   328  GLN328     -0.2718
    118  CB       -25.5060  -23.8850   12.4120 C.3   328  GLN328      0.0381
    119  CG       -24.0390  -24.0530   12.8250 C.3   328  GLN328      0.0905
    120  CD       -23.4230  -22.8070   13.4650 C.2   328  GLN328      0.2608
    121  OE1      -24.1040  -21.8050   13.6900 O.2   328  GLN328     -0.2717
    122  NE2      -22.1320  -22.8780   13.7780 N.am  328  GLN328     -0.0878
    123  N        -24.3230  -21.8770    9.5930 N.am  329  ALA329     -0.1966
    124  CA       -23.2650  -21.8030    8.5860 C.3   329  ALA329      0.1728
    125  C        -22.3290  -20.6220    8.8400 C.2   329  ALA329      0.2616
    126  O        -22.7310  -19.4640    8.7040 O.2   329  ALA329     -0.2715
    127  CB       -23.8600  -21.7270    7.1840 C.3   329  ALA329      0.0334
    128  N        -21.0850  -20.9270    9.2110 N.am  330  ILE330     -0.1977
    129  CA       -20.0630  -19.9030    9.4530 C.3   330  ILE330      0.1596
    130  C        -19.0810  -19.8730    8.2730 C.2   330  ILE330      0.2287
    131  O        -17.9560  -20.3630    8.3550 O.2   330  ILE330     -0.2864
    132  CB       -19.3450  -20.1070   10.8150 C.3   330  ILE330      0.0276
    133  CG1      -20.3500  -20.4190   11.9490 C.3   330  ILE330      0.0022
    134  CG2      -18.4630  -18.9090   11.1540 C.3   330  ILE330      0.0022
    135  CD1      -21.4670  -19.4050   12.1540 C.3   330  ILE330      0.0001
    136  N        -22.3220  -20.0070   22.1390 N.3   392  HIS392     -0.1226
    137  CA       -21.4730  -21.0410   22.7330 C.3   392  HIS392      0.1752
    138  C        -20.1440  -21.1620   22.0290 C.2   392  HIS392      0.2596
    139  O        -19.1900  -21.7380   22.5760 O.2   392  HIS392     -0.2718
    140  CB       -22.1890  -22.3790   22.6770 C.3   392  HIS392      0.0759
    141  CG       -22.4120  -22.8910   21.2690 C.ar  392  HIS392      0.0818
    142  ND1      -23.2320  -22.2750   20.3920 N.ar  392  HIS392     -0.2268
    143  CD2      -21.8850  -23.9990   20.6020 C.ar  392  HIS392      0.1154
    144  CE1      -23.2300  -22.9490   19.2270 C.ar  392  HIS392      0.1986
    145  NE2      -22.4100  -24.0050   19.3570 N.ar  392  HIS392     -0.2212
    146  N        -20.0730  -20.6300   20.8070 N.am  393  ASP393     -0.1960
    147  CA       -18.8690  -20.7260   19.9820 C.3   393  ASP393      0.1840
    148  C        -17.9240  -19.5380   20.1000 C.2   393  ASP393      0.2622
    149  O        -18.2660  -18.4720   20.6330 O.2   393  ASP393     -0.2715
    150  CB       -19.2360  -20.9050   18.4970 C.3   393  ASP393      0.1450
    151  CG       -19.4540  -22.3630   18.1090 C.2   393  ASP393      0.3671
    152  OD1      -19.0120  -23.2690   18.8540 O.co2 393  ASP393     -0.2456
    153  OD2      -20.0720  -22.6010   17.0450 O.co2 393  ASP393     -0.2456
    154  N        -16.7260  -19.7590   19.5730 N.am  394  ASP394     -0.1971
    155  CA       -15.7630  -18.7240   19.2530 C.3   394  ASP394      0.1709
    156  C        -16.3070  -17.7640   18.1920 C.2   394  ASP394      0.2293
    157  O        -17.2630  -18.0820   17.4650 O.2   394  ASP394     -0.2864
    158  CB       -14.5130  -19.3870   18.6890 C.3   394  ASP394      0.1436
    159  CG       -14.8230  -20.2850   17.4990 C.2   394  ASP394      0.3671
    160  OD1      -15.6700  -21.1910   17.6320 O.co2 394  ASP394     -0.2456
    161  OD2      -14.2280  -20.0880   16.4240 O.co2 394  ASP394     -0.2456
    162  N         -8.4240  -18.8560   20.0350 N.3   436  PHE436     -0.1241
    163  CA        -8.9810  -20.1690   19.7270 C.3   436  PHE436      0.1605
    164  C         -8.6460  -20.5800   18.2950 C.2   436  PHE436      0.2264
    165  O         -9.0090  -19.8950   17.3320 O.2   436  PHE436     -0.2867
    166  CB       -10.4970  -20.2110   19.9760 C.3   436  PHE436      0.0534
    167  CG       -11.1200  -21.5600   19.7230 C.ar  436  PHE436     -0.0203
    168  CD1      -10.9160  -22.6170   20.6070 C.ar  436  PHE436     -0.0042
    169  CD2      -11.9150  -21.7740   18.6000 C.ar  436  PHE436     -0.0042
    170  CE1      -11.4890  -23.8580   20.3720 C.ar  436  PHE436     -0.0003
    171  CE2      -12.5000  -23.0110   18.3660 C.ar  436  PHE436     -0.0003
    172  CZ       -12.2830  -24.0540   19.2510 C.ar  436  PHE436     -0.0000
    173  N         -9.3680  -17.5190   15.7850 N.3   446  ARG446     -0.1245
    174  CA       -10.6680  -17.1230   16.3220 C.3   446  ARG446      0.1563
    175  C        -10.5560  -16.6470   17.7770 C.2   446  ARG446      0.2260
    176  O         -9.4780  -16.7110   18.3710 O.2   446  ARG446     -0.2867
    177  CB       -11.6870  -18.2580   16.1810 C.3   446  ARG446      0.0307
    178  CG       -12.0700  -18.5610   14.7410 C.3   446  ARG446      0.0489
    179  CD       -11.4740  -19.8710   14.2520 C.3   446  ARG446      0.2205
    180  NE       -12.2310  -21.0240   14.7350 N.pl3 446  ARG446     -0.0865
    181  CZ       -12.0390  -22.2750   14.3270 C.cat 446  ARG446      0.5346
    182  NH1      -11.1050  -22.5510   13.4210 N.pl3 446  ARG446      0.1354
    183  NH2      -12.7790  -23.2570   14.8310 N.pl3 446  ARG446      0.1354
    184  N        -13.0760  -22.3230   24.1700 N.3   509  ARG509     -0.1245
    185  CA       -14.4870  -21.9220   24.1320 C.3   509  ARG509      0.1563
    186  C        -15.1380  -22.0680   25.5030 C.2   509  ARG509      0.2260
    187  O        -16.0740  -21.3390   25.8330 O.2   509  ARG509     -0.2867
    188  CB       -15.2720  -22.7290   23.0970 C.3   509  ARG509      0.0307
    189  CG       -14.9720  -22.3430   21.6600 C.3   509  ARG509      0.0489
    190  CD       -15.7430  -23.2220   20.7010 C.3   509  ARG509      0.2205
    191  NE       -15.2900  -24.6080   20.7600 N.pl3 509  ARG509     -0.0865
    192  CZ       -15.7750  -25.5840   20.0010 C.cat 509  ARG509      0.5346
    193  NH1      -16.7460  -25.3400   19.1270 N.pl3 509  ARG509      0.1354
    194  NH2      -15.2920  -26.8110   20.1210 N.pl3 509  ARG509      0.1354
    195  N        -18.1990  -20.3310   28.5760 N.3   513  ARG513     -0.1245
    196  CA       -19.3170  -21.1960   28.9500 C.3   513  ARG513      0.1563
    197  C        -19.3870  -21.4170   30.4740 C.2   513  ARG513      0.2260
    198  O        -19.3260  -22.5570   30.9460 O.2   513  ARG513     -0.2867
    199  CB       -19.2190  -22.5310   28.2110 C.3   513  ARG513      0.0307
    200  CG       -19.2430  -22.4320   26.6900 C.3   513  ARG513      0.0489
    201  CD       -18.7640  -23.7430   26.0920 C.3   513  ARG513      0.2205
    202  NE       -18.7290  -23.7560   24.6320 N.pl3 513  ARG513     -0.0865
    203  CZ       -18.3190  -24.7980   23.9130 C.cat 513  ARG513      0.5346
    204  NH1      -17.9120  -25.9110   24.5220 N.pl3 513  ARG513      0.1354
    205  NH2      -18.3180  -24.7380   22.5860 N.pl3 513  ARG513      0.1354
@<TRIPOS>BOND
     1    31    32    1
     2   108   107    2
     3   107   106    1
     4   106   105    1
     5   106   109    1
     6    32    35    1
     7    32    33    1
     8    35    36    1
     9    37    38    1
    10    37    36    1
    11    38    39    2
    12   109   110    1
    13    33    34    2
    14    41    39    1
    15   127   124    1
    16    39    40    1
    17   112   113    1
    18   112   111    1
    19   110   111    1
    20   103   102    2
    21   130   131    2
    22   130   129    1
    23   124   125    1
    24   124   123    1
    25   126   125    2
    26   102   101    1
    27   125   128   am
    28   128   129    1
    29    49    47    1
    30   129   132    1
    31   123   116   am
    32   117   116    2
    33    47    46    1
    34   101   104    1
    35   101   100    1
    36   116   115    1
    37    42    43    1
    38   114   115    1
    39   132   134    1
    40   132   133    1
    41    95    94    2
    42   100    94   am
    43   115   118    1
    44    46    43    1
    45    46    48    1
    46    43    44    1
    47    21    22    1
    48    94    93    1
    49    71    70   ar
    50    71    69   ar
    51   133   135    1
    52    70    68   ar
    53    22    25    1
    54    22    23    1
    55   118   119    1
    56    61    62    1
    57    92    93    1
    58    25    26    1
    59    27    26   ar
    60    27    29   ar
    61    69    67   ar
    62    93    96    1
    63    68    66   ar
    64   119   120    1
    65    44    50   am
    66    44    45    2
    67    26    28   ar
    68    50    51    1
    69    75    74    2
    70   182   181    1
    71   120   121    2
    72   120   122   am
    73    23    24    2
    74    29    30   ar
    75    67    66   ar
    76    66    65    1
    77    62    65    1
    78    62    63    1
    79    83    84    2
    80    83    82    1
    81    96    97    1
    82    74    73    1
    83    64    63    2
    84   179   180    1
    85   179   178    1
    86   181   180    2
    87   181   183    1
    88    52    51    1
    89    52    53    2
    90    99    97   ar
    91    97    98   ar
    92    28    30   ar
    93    51    54    1
    94    82    81    1
    95    82    85    1
    96   178   177    1
    97    86    85    1
    98    86    87    1
    99    73    76    1
   100    73    72    1
   101    54    55    1
   102    76    77    1
   103   173   174    1
   104    55    56   ar
   105    55    57   ar
   106    91    89    1
   107    56    58   ar
   108    90    89    1
   109   177   174    1
   110    89    88    2
   111    57    59   ar
   112   174   175    1
   113   161   159   ar
   114    58    60   ar
   115    88    87    1
   116    59    60   ar
   117    77    78    1
   118   153   151   ar
   119    78    79    2
   120    78    80   am
   121   165   164    2
   122   157   156    2
   123   159   160   ar
   124   159   158    1
   125   175   176    2
   126    12    11    2
   127   151   150    1
   128   151   152   ar
   129   156   155    1
   130   164   163    1
   131    16    18   ar
   132    16    14   ar
   133   171   169   ar
   134   171   172   ar
   135    18    19   ar
   136   150   147    1
   137   169   167   ar
   138     8     6   ar
   139   158   155    1
   140   193   192    1
   141    11    10    1
   142   144   145   ar
   143   144   142   ar
   144    13    14    1
   145    13    10    1
   146   172   170   ar
   147   155   154    1
   148    14    15   ar
   149    19    20    1
   150    19    17   ar
   151   145   143   ar
   152   154   148   am
   153   167   166    1
   154   167   168   ar
   155   163   166    1
   156   163   162    1
   157     6     7   ar
   158     6     5    1
   159    10     9    1
   160   147   148    1
   161   147   146    1
   162   192   194    1
   163   192   191    2
   164   148   149    2
   165    15    17   ar
   166   170   168   ar
   167   142   141   ar
   168   143   141   ar
   169     5     2    1
   170   190   191    1
   171   190   189    1
   172   146   138   am
   173   141   140    1
   174   189   188    1
   175     4     3    2
   176   138   139    2
   177   138   137    1
   178   136   137    1
   179     2     3    1
   180     2     1    1
   181   205   203    1
   182   140   137    1
   183   188   185    1
   184   203   204    1
   185   203   202    2
   186   185   184    1
   187   185   186    1
   188   202   201    1
   189   186   187    2
   190   201   200    1
   191   200   199    1
   192   199   196    1
   193   195   196    1
   194   196   197    1
   195   197   198    2
