@<TRIPOS>MOLECULE
tmp/4flsA01.pdb
 113 113 0 0 0
SMALL
GASTEIGER

@<TRIPOS>ATOM
      1  N         -5.6520  -27.3850   16.0300 N.3   231  ASP231     -0.1239
      2  CA        -5.0680  -27.8000   17.3190 C.3   231  ASP231      0.1674
      3  C         -5.1530  -29.3110   17.4860 C.2   231  ASP231      0.2266
      4  O         -4.2350  -29.9380   18.0060 O.2   231  ASP231     -0.2867
      5  CB        -5.8070  -27.1520   18.5030 C.3   231  ASP231      0.1410
      6  CG        -5.3060  -25.7480   18.8440 C.2   231  ASP231      0.3668
      7  OD1       -4.6040  -25.1020   18.0290 O.co2 231  ASP231     -0.2456
      8  OD2       -5.6450  -25.2810   19.9570 O.co2 231  ASP231     -0.2456
      9  N         -3.7630   -7.8650   23.2100 N.3   425  ARG425     -0.1245
     10  CA        -2.3730   -7.7550   22.7780 C.3   425  ARG425      0.1563
     11  C         -2.1490   -6.3960   22.1090 C.2   425  ARG425      0.2260
     12  O         -1.1050   -6.1610   21.4890 O.2   425  ARG425     -0.2867
     13  CB        -2.0010   -8.8930   21.8160 C.3   425  ARG425      0.0307
     14  CG        -2.1660  -10.2970   22.3760 C.3   425  ARG425      0.0489
     15  CD        -1.1480  -11.2550   21.7680 C.3   425  ARG425      0.2205
     16  NE        -1.5760  -12.6570   21.8190 N.pl3 425  ARG425     -0.0865
     17  CZ        -1.5410  -13.4350   22.9030 C.cat 425  ARG425      0.5346
     18  NH1       -1.1040  -12.9640   24.0670 N.pl3 425  ARG425      0.1354
     19  NH2       -1.9540  -14.6950   22.8240 N.pl3 425  ARG425      0.1354
     20  N         -9.6000  -14.7790   24.8590 N.3   434  VAL434     -0.1231
     21  CA        -8.4830  -15.7240   24.7030 C.3   434  VAL434      0.1678
     22  C         -8.4940  -16.3530   23.2920 C.2   434  VAL434      0.2434
     23  O         -9.5590  -16.5470   22.7140 O.2   434  VAL434     -0.2733
     24  CB        -8.4030  -16.7570   25.8840 C.3   434  VAL434      0.0265
     25  CG1       -9.5700  -16.6180   26.8560 C.3   434  VAL434      0.0020
     26  CG2       -8.2700  -18.1930   25.4000 C.3   434  VAL434      0.0020
     27  N         -7.3060  -16.6340   22.7190 N.am  435  PRO435     -0.2718
     28  CA        -7.2560  -17.1870   21.3570 C.3   435  PRO435      0.1535
     29  C         -7.8920  -18.5740   21.2200 C.2   435  PRO435      0.2599
     30  O         -7.9000  -19.3590   22.1770 O.2   435  PRO435     -0.2715
     31  CB        -5.7530  -17.2760   21.0690 C.3   435  PRO435      0.0310
     32  CG        -5.1230  -16.2970   21.9980 C.3   435  PRO435      0.0237
     33  CD        -5.9550  -16.3670   23.2430 C.3   435  PRO435      0.0939
     34  N         -8.4240  -18.8560   20.0350 N.am  436  PHE436     -0.1960
     35  CA        -8.9810  -20.1690   19.7270 C.3   436  PHE436      0.1771
     36  C         -8.6460  -20.5800   18.2950 C.2   436  PHE436      0.2619
     37  O         -9.0090  -19.8950   17.3320 O.2   436  PHE436     -0.2715
     38  CB       -10.4970  -20.2110   19.9760 C.3   436  PHE436      0.0574
     39  CG       -11.1200  -21.5600   19.7230 C.ar  436  PHE436     -0.0200
     40  CD1      -10.9160  -22.6170   20.6070 C.ar  436  PHE436     -0.0042
     41  CD2      -11.9150  -21.7740   18.6000 C.ar  436  PHE436     -0.0042
     42  CE1      -11.4890  -23.8580   20.3720 C.ar  436  PHE436     -0.0003
     43  CE2      -12.5000  -23.0110   18.3660 C.ar  436  PHE436     -0.0003
     44  CZ       -12.2830  -24.0540   19.2510 C.ar  436  PHE436     -0.0000
     45  N         -7.9310  -21.6990   18.1860 N.am  437  GLN437     -0.1963
     46  CA        -7.5000  -22.2850   16.9110 C.3   437  GLN437      0.1733
     47  C         -6.6530  -21.3400   16.0650 C.2   437  GLN437      0.2616
     48  O         -6.9720  -21.0580   14.9070 O.2   437  GLN437     -0.2715
     49  CB        -8.6850  -22.8440   16.1040 C.3   437  GLN437      0.0408
     50  CG        -9.5610  -23.8410   16.8440 C.3   437  GLN437      0.0908
     51  CD        -8.8350  -25.1120   17.2470 C.2   437  GLN437      0.2608
     52  OE1       -7.9490  -25.5930   16.5380 O.2   437  GLN437     -0.2717
     53  NE2       -9.2140  -25.6650   18.3950 N.am  437  GLN437     -0.0878
     54  N         -5.5740  -20.8430   16.6590 N.am  438  TYR438     -0.1974
     55  CA        -4.5530  -20.1370   15.9020 C.3   438  TYR438      0.1639
     56  C         -3.8730  -21.1330   14.9650 C.2   438  TYR438      0.2290
     57  O         -3.2650  -22.1060   15.4060 O.2   438  TYR438     -0.2864
     58  CB        -3.5210  -19.4720   16.8270 C.3   438  TYR438      0.0560
     59  CG        -2.3430  -18.8980   16.0710 C.ar  438  TYR438     -0.0198
     60  CD1       -2.5080  -17.8080   15.2200 C.ar  438  TYR438     -0.0009
     61  CD2       -1.0680  -19.4630   16.1840 C.ar  438  TYR438     -0.0009
     62  CE1       -1.4410  -17.2860   14.5060 C.ar  438  TYR438      0.0417
     63  CE2        0.0100  -18.9470   15.4750 C.ar  438  TYR438      0.0417
     64  CZ        -0.1860  -17.8580   14.6370 C.ar  438  TYR438      0.1957
     65  OH         0.8630  -17.3260   13.9250 O.3   438  TYR438     -0.2866
     66  N        -11.3090  -22.3460   33.5380 N.3   498  TRP498     -0.1227
     67  CA       -11.8600  -23.2560   32.5230 C.3   498  TRP498      0.1737
     68  C        -10.9630  -24.4240   32.1910 C.2   498  TRP498      0.2596
     69  O        -11.4460  -25.5420   31.9920 O.2   498  TRP498     -0.2718
     70  CB       -12.2550  -22.4970   31.2510 C.3   498  TRP498      0.0564
     71  CG       -11.0940  -21.8880   30.4920 C.ar  498  TRP498      0.0003
     72  CD1      -10.5810  -20.6010   30.6130 C.ar  498  TRP498      0.0946
     73  CD2      -10.2630  -22.5300   29.4590 C.ar  498  TRP498      0.0152
     74  NE1       -9.5270  -20.4090   29.7560 N.ar  498  TRP498     -0.2442
     75  CE2       -9.2800  -21.5220   29.0390 C.ar  498  TRP498      0.0810
     76  CE3      -10.2320  -23.7920   28.8660 C.ar  498  TRP498      0.0012
     77  CZ2       -8.3200  -21.7870   28.0720 C.ar  498  TRP498      0.0191
     78  CZ3       -9.2550  -24.0500   27.8970 C.ar  498  TRP498      0.0001
     79  CH2       -8.3260  -23.0720   27.5080 C.ar  498  TRP498      0.0015
     80  N         -9.6520  -24.1770   32.1470 N.am  499  SER499     -0.1952
     81  CA        -8.6840  -25.1980   31.7380 C.3   499  SER499      0.1924
     82  C         -8.2550  -26.1390   32.8600 C.2   499  SER499      0.2314
     83  O         -7.4680  -27.0530   32.6190 O.2   499  SER499     -0.2863
     84  CB        -7.4540  -24.5610   31.0840 C.3   499  SER499      0.2116
     85  OG        -6.6600  -23.8800   32.0390 O.3   499  SER499     -0.2180
     86  N         -9.4050  -28.3430   28.8210 N.3   505  SER505     -0.1202
     87  CA        -8.1580  -27.5660   28.6800 C.3   505  SER505      0.2020
     88  C         -7.6540  -27.3290   27.2470 C.2   505  SER505      0.2619
     89  O         -6.8580  -26.4190   27.0170 O.2   505  SER505     -0.2717
     90  CB        -7.0430  -28.1990   29.5160 C.3   505  SER505      0.2103
     91  OG        -6.7540  -29.5020   29.0520 O.3   505  SER505     -0.2182
     92  N         -8.1090  -28.1410   26.2950 N.am  506  ASP506     -0.1959
     93  CA        -7.6770  -28.0120   24.9000 C.3   506  ASP506      0.1840
     94  C         -8.6710  -27.2360   24.0290 C.2   506  ASP506      0.2622
     95  O         -8.4800  -27.1290   22.8190 O.2   506  ASP506     -0.2715
     96  CB        -7.3830  -29.3950   24.2920 C.3   506  ASP506      0.1450
     97  CG        -8.6370  -30.2490   24.1150 C.2   506  ASP506      0.3671
     98  OD1       -9.6970  -29.9530   24.7200 O.co2 506  ASP506     -0.2456
     99  OD2       -8.5600  -31.2360   23.3550 O.co2 506  ASP506     -0.2456
    100  N         -9.7270  -26.7110   24.6550 N.am  507  ASP507     -0.1957
    101  CA       -10.8020  -25.9900   23.9640 C.3   507  ASP507      0.1840
    102  C        -11.1720  -24.7450   24.7760 C.2   507  ASP507      0.2622
    103  O        -11.9470  -24.8230   25.7350 O.2   507  ASP507     -0.2715
    104  CB       -12.0260  -26.9100   23.7780 C.3   507  ASP507      0.1450
    105  CG       -13.1230  -26.3010   22.8760 C.2   507  ASP507      0.3671
    106  OD1      -13.1580  -25.0700   22.6530 O.co2 507  ASP507     -0.2456
    107  OD2      -13.9760  -27.0720   22.3900 O.co2 507  ASP507     -0.2456
    108  N        -10.6180  -23.6010   24.3770 N.am  508  SER508     -0.1950
    109  CA       -10.8070  -22.3360   25.1010 C.3   508  SER508      0.1924
    110  C        -12.2210  -21.7460   25.0120 C.2   508  SER508      0.2314
    111  O        -12.5260  -20.7720   25.6970 O.2   508  SER508     -0.2863
    112  CB        -9.7850  -21.2930   24.6390 C.3   508  SER508      0.2116
    113  OG       -10.1370  -20.7520   23.3760 O.3   508  SER508     -0.2180
@<TRIPOS>BOND
     1    65    64    1
     2    62    64   ar
     3    62    60   ar
     4    64    63   ar
     5    48    47    2
     6    56    57    2
     7    56    55    1
     8    60    59   ar
     9    63    61   ar
    10    55    54    1
    11    55    58    1
    12     1     2    1
    13    47    54   am
    14    47    46    1
    15    59    61   ar
    16    59    58    1
    17    49    50    1
    18    49    46    1
    19    52    51    2
    20    50    51    1
    21    46    45    1
    22    51    53   am
    23     2     3    1
    24     2     5    1
    25    37    36    2
    26     3     4    2
    27     7     6   ar
    28    45    36   am
    29    36    35    1
    30    43    41   ar
    31    43    44   ar
    32     5     6    1
    33    41    39   ar
    34     6     8   ar
    35    44    42   ar
    36    39    38    1
    37    39    40   ar
    38    35    38    1
    39    35    34    1
    40    34    29   am
    41    42    40   ar
    42    31    28    1
    43    31    32    1
    44    29    28    1
    45    29    30    2
    46    28    27    1
    47    12    11    2
    48    15    16    1
    49    15    14    1
    50    13    14    1
    51    13    10    1
    52    16    17    2
    53    32    33    1
    54    11    10    1
    55   107   105   ar
    56   106   105   ar
    57    23    22    2
    58    27    33    1
    59    27    22   am
    60    10     9    1
    61    95    94    2
    62    19    17    1
    63   105   104    1
    64    17    18    1
    65    22    21    1
    66    99    97   ar
    67   113   112    1
    68   104   101    1
    69   101   100    1
    70   101   102    1
    71    94   100   am
    72    94    93    1
    73    97    96    1
    74    97    98   ar
    75    96    93    1
    76   108   102   am
    77   108   109    1
    78   112   109    1
    79    21    20    1
    80    21    24    1
    81   102   103    2
    82    93    92    1
    83   110   109    1
    84   110   111    2
    85    26    24    1
    86    24    25    1
    87    92    88   am
    88    89    88    2
    89    88    87    1
    90    79    78   ar
    91    79    77   ar
    92    78    76   ar
    93    77    75   ar
    94    87    86    1
    95    87    90    1
    96    76    73   ar
    97    75    73   ar
    98    75    74   ar
    99    91    90    1
   100    73    71   ar
   101    74    72   ar
   102    71    72   ar
   103    71    70    1
   104    84    81    1
   105    84    85    1
   106    70    67    1
   107    81    80    1
   108    81    82    1
   109    69    68    2
   110    80    68   am
   111    68    67    1
   112    67    66    1
   113    83    82    2
