@<TRIPOS>MOLECULE
tmp/4flvA00.pdb
 100 98 0 0 0
SMALL
GASTEIGER

@<TRIPOS>ATOM
      1  N         -3.7640  -43.9320   20.3980 N.3     8  ALA8       -0.1231
      2  CA        -3.5640  -44.9370   19.3580 C.3     8  ALA8        0.1694
      3  C         -3.5850  -44.2710   18.0020 C.2     8  ALA8        0.2592
      4  O         -4.3350  -43.3170   17.8000 O.2     8  ALA8       -0.2718
      5  CB        -4.6450  -46.0220   19.4300 C.3     8  ALA8        0.0304
      6  N         -2.7710  -44.7860   17.0730 N.am    9  ASP9       -0.1960
      7  CA        -2.7200  -44.3390   15.6820 C.3     9  ASP9        0.1840
      8  C         -2.2340  -45.5150   14.8050 C.2     9  ASP9        0.2622
      9  O         -2.0690  -46.6350   15.3000 O.2     9  ASP9       -0.2715
     10  CB        -1.8320  -43.0830   15.5560 C.3     9  ASP9        0.1450
     11  CG        -0.3220  -43.2630   15.5680 C.2     9  ASP9        0.3671
     12  OD1        0.3940  -42.2810   15.2770 O.co2   9  ASP9       -0.2456
     13  OD2        0.1460  -44.3700   15.8990 O.co2   9  ASP9       -0.2456
     14  N         -2.0010  -45.2660   13.5240 N.am   10  TYR10      -0.1960
     15  CA        -1.4000  -46.2480   12.6510 C.3    10  TYR10       0.1771
     16  C         -0.3350  -45.5850   11.7880 C.2    10  TYR10       0.2619
     17  O         -0.3790  -44.3820   11.5100 O.2    10  TYR10      -0.2715
     18  CB        -2.4250  -47.0260   11.8120 C.3    10  TYR10       0.0574
     19  CG        -2.9090  -46.3330   10.5510 C.ar   10  TYR10      -0.0198
     20  CD1       -2.2450  -46.5040    9.3330 C.ar   10  TYR10      -0.0009
     21  CD2       -4.0790  -45.5880   10.5510 C.ar   10  TYR10      -0.0009
     22  CE1       -2.7000  -45.8920    8.1670 C.ar   10  TYR10       0.0417
     23  CE2       -4.5390  -44.9590    9.3900 C.ar   10  TYR10       0.0417
     24  CZ        -3.8340  -45.0980    8.2020 C.ar   10  TYR10       0.1957
     25  OH        -4.2960  -44.4990    7.0490 O.3    10  TYR10      -0.2866
     26  N          0.6590  -46.3860   11.4240 N.am   11  ILE11      -0.1963
     27  CA         1.7680  -46.0490   10.5300 C.3    11  ILE11       0.1727
     28  C          1.6720  -47.0690    9.3980 C.2    11  ILE11       0.2616
     29  O          0.9540  -48.0730    9.5360 O.2    11  ILE11      -0.2715
     30  CB         3.1600  -46.0190   11.2400 C.3    11  ILE11       0.0290
     31  CG1        3.5420  -47.3990   11.8280 C.3    11  ILE11       0.0022
     32  CG2        3.2090  -44.9170   12.3010 C.3    11  ILE11       0.0023
     33  CD1        5.0320  -47.6120   12.1390 C.3    11  ILE11       0.0001
     34  N          2.3260  -46.7840    8.2720 N.am   12  THR12      -0.1951
     35  CA         2.3410  -47.6870    7.1260 C.3    12  THR12       0.1897
     36  C          3.7820  -48.1510    6.9860 C.2    12  THR12       0.2313
     37  O          4.7030  -47.3260    7.0350 O.2    12  THR12      -0.2863
     38  CB         1.7790  -46.9830    5.8870 C.3    12  THR12       0.1794
     39  OG1        0.4490  -46.5780    6.1490 O.3    12  THR12      -0.2208
     40  CG2        1.8080  -47.8360    4.6640 C.3    12  THR12       0.0378
     41  N         -5.2900  -51.8450    3.2360 N.3    92  HIS92      -0.1241
     42  CA        -4.9420  -50.5770    3.8580 C.3    92  HIS92       0.1621
     43  C         -6.1710  -49.6850    4.1550 C.2    92  HIS92       0.2264
     44  O         -7.0720  -49.6280    3.3210 O.2    92  HIS92      -0.2867
     45  CB        -3.9990  -49.8480    2.9000 C.3    92  HIS92       0.0745
     46  CG        -3.2140  -48.7580    3.5340 C.ar   92  HIS92       0.0817
     47  ND1       -3.7590  -47.5110    3.7470 N.ar   92  HIS92      -0.2268
     48  CD2       -1.9470  -48.7690    4.0010 C.ar   92  HIS92       0.1154
     49  CE1       -2.8050  -46.7990    4.3180 C.ar   92  HIS92       0.1986
     50  NE2       -1.6970  -47.5170    4.4900 N.ar   92  HIS92      -0.2212
     51  N         -6.6440  -46.6050    3.7270 N.3    94  GLN94      -0.1245
     52  CA        -6.8400  -45.6680    2.6400 C.3    94  GLN94       0.1566
     53  C         -7.5020  -46.3340    1.4030 C.2    94  GLN94       0.2260
     54  O         -7.9510  -45.6160    0.4990 O.2    94  GLN94      -0.2867
     55  CB        -5.5230  -44.9530    2.3150 C.3    94  GLN94       0.0367
     56  CG        -5.1630  -43.9070    3.3800 C.3    94  GLN94       0.0905
     57  CD        -6.1110  -42.7310    3.3260 C.2    94  GLN94       0.2608
     58  OE1       -6.1730  -41.9870    2.3430 O.2    94  GLN94      -0.2717
     59  NE2       -6.9120  -42.5730    4.3520 N.am   94  GLN94      -0.0878
     60  N        -12.4460  -44.0810   11.5180 N.3   118  PRO118     -0.2102
     61  CA       -10.9650  -44.1300   11.3920 C.3   118  PRO118      0.1504
     62  C        -10.3560  -45.3970   11.9950 C.2   118  PRO118      0.2576
     63  O        -10.8370  -45.8900   13.0190 O.2   118  PRO118     -0.2718
     64  CB       -10.5010  -42.8760   12.1250 C.3   118  PRO118      0.0282
     65  CG       -11.6890  -41.9870   12.1610 C.3   118  PRO118      0.0208
     66  CD       -12.8800  -42.8770   12.2600 C.3   118  PRO118      0.0893
     67  N         -9.3460  -45.9540   11.3100 N.am  119  PHE119     -0.1963
     68  CA        -8.6890  -47.2110   11.6420 C.3   119  PHE119      0.1771
     69  C         -8.3020  -47.3360   13.1200 C.2   119  PHE119      0.2619
     70  O         -8.6110  -48.3570   13.7310 O.2   119  PHE119     -0.2715
     71  CB        -7.4620  -47.4040   10.7480 C.3   119  PHE119      0.0574
     72  CG        -6.9290  -48.8110   10.6350 C.ar  119  PHE119     -0.0200
     73  CD1       -5.5540  -49.0530   10.5740 C.ar  119  PHE119     -0.0042
     74  CD2       -7.7900  -49.8870   10.5380 C.ar  119  PHE119     -0.0042
     75  CE1       -5.0620  -50.3480   10.4420 C.ar  119  PHE119     -0.0003
     76  CE2       -7.2940  -51.1730   10.3620 C.ar  119  PHE119     -0.0003
     77  CZ        -5.9390  -51.3950   10.3260 C.ar  119  PHE119     -0.0000
     78  N         -7.6400  -46.3240   13.6910 N.am  120  ALA120     -0.1977
     79  CA        -7.2320  -46.3500   15.0960 C.3   120  ALA120      0.1597
     80  C         -8.4520  -46.3910   16.0500 C.2   120  ALA120      0.2287
     81  O         -8.3630  -47.0150   17.1050 O.2   120  ALA120     -0.2864
     82  CB        -6.3710  -45.1540   15.3970 C.3   120  ALA120      0.0319
     83  N          1.8880  -32.3820   14.2590 N.3   243  LYS243     -0.1245
     84  CA         1.0990  -32.5740   13.0410 C.3   243  LYS243      0.1561
     85  C         -0.2210  -31.7920   13.0720 C.2   243  LYS243      0.2260
     86  O         -1.0750  -32.0210   13.9310 O.2   243  LYS243     -0.2867
     87  CB         0.8460  -34.0700   12.7890 C.3   243  LYS243      0.0271
     88  CG         0.5380  -34.4030   11.3330 C.3   243  LYS243      0.0035
     89  CD         0.4260  -35.9100   11.1320 C.3   243  LYS243      0.0206
     90  CE        -0.1660  -36.2830    9.7960 C.3   243  LYS243      0.1093
     91  NZ        -1.6390  -36.4230    9.8720 N.3   243  LYS243     -0.1314
     92  N         -1.5270  -32.4050   16.7020 N.3   254  GLU254     -0.1245
     93  CA        -1.1830  -33.5760   17.4950 C.3   254  GLU254      0.1567
     94  C          0.3500  -33.7290   17.6350 C.2   254  GLU254      0.2260
     95  O          1.1070  -33.3220   16.7490 O.2   254  GLU254     -0.2867
     96  CB        -1.8130  -34.8690   16.9500 C.3   254  GLU254      0.0388
     97  CG        -1.6370  -35.1230   15.4700 C.3   254  GLU254      0.1160
     98  CD        -2.1450  -36.4780   15.0160 C.2   254  GLU254      0.3649
     99  OE1       -3.3820  -36.6540   14.9220 O.co2 254  GLU254     -0.2457
    100  OE2       -1.3010  -37.3670   14.7520 O.co2 254  GLU254     -0.2457
@<TRIPOS>BOND
     1    54    53    2
     2    53    52    1
     3    55    52    1
     4    55    56    1
     5    58    57    2
     6    52    51    1
     7    45    46    1
     8    45    42    1
     9    41    42    1
    10    44    43    2
    11    57    56    1
    12    57    59   am
    13    46    47   ar
    14    46    48   ar
    15    47    49   ar
    16    42    43    1
    17    48    50   ar
    18    49    50   ar
    19    40    38    1
    20    38    39    1
    21    38    35    1
    22    36    37    2
    23    36    35    1
    24    25    24    1
    25    35    34    1
    26    22    24   ar
    27    22    20   ar
    28    24    23   ar
    29    34    28   am
    30    20    19   ar
    31    23    21   ar
    32    28    29    2
    33    28    27    1
    34    90    91    1
    35    90    89    1
    36    77    76   ar
    37    77    75   ar
    38    76    74   ar
    39    75    73   ar
    40    27    30    1
    41    27    26    1
    42    74    72   ar
    43    21    19   ar
    44    19    18    1
    45    73    72   ar
    46    72    71    1
    47    71    68    1
    48    89    88    1
    49    30    31    1
    50    30    32    1
    51    67    68    1
    52    67    62   am
    53    88    87    1
    54    61    60    1
    55    61    62    1
    56    61    64    1
    57    26    16   am
    58    17    16    2
    59    60    66    1
    60    68    69    1
    61    16    15    1
    62    18    15    1
    63    31    33    1
    64    62    63    2
    65    64    65    1
    66    65    66    1
    67    15    14    1
    68    87    84    1
    69    84    85    1
    70    84    83    1
    71    85    86    2
    72    69    78   am
    73    69    70    2
    74    14     8   am
    75    78    79    1
    76   100    98   ar
    77     8     9    2
    78     8     7    1
    79    99    98   ar
    80    98    97    1
    81    79    82    1
    82    79    80    1
    83    12    11   ar
    84    97    96    1
    85    10    11    1
    86    10     7    1
    87    11    13   ar
    88     7     6    1
    89    80    81    2
    90    92    93    1
    91    95    94    2
    92    96    93    1
    93     6     3   am
    94    93    94    1
    95     4     3    2
    96     3     2    1
    97     2     5    1
    98     2     1    1
