@<TRIPOS>MOLECULE
tmp/4fm7A00.pdb
 178 169 0 0 0
SMALL
GASTEIGER

@<TRIPOS>ATOM
      1  N         32.1270   28.3150   37.3890 N.3    13  GLY13      -0.1210
      2  CA        31.5490   28.7330   38.6540 C.3    13  GLY13       0.1956
      3  C         31.6430   30.2330   38.9120 C.2    13  GLY13       0.2612
      4  O         31.4370   30.6630   40.0400 O.2    13  GLY13      -0.2717
      5  N         32.0350   31.0240   37.8980 N.am   14  GLN14      -0.1965
      6  CA        32.1590   32.4790   38.0870 C.3    14  GLN14       0.1733
      7  C         31.2450   33.2520   37.1530 C.2    14  GLN14       0.2616
      8  O         31.4140   34.4600   36.9790 O.2    14  GLN14      -0.2715
      9  CB        33.6040   32.9570   37.9690 C.3    14  GLN14       0.0408
     10  CG        34.5360   32.2140   38.9130 C.3    14  GLN14       0.0908
     11  CD        35.8420   32.9240   39.1090 C.2    14  GLN14       0.2608
     12  OE1       36.5360   33.3070   38.1600 O.2    14  GLN14      -0.2717
     13  NE2       36.2650   32.9890   40.3440 N.am   14  GLN14      -0.0878
     14  N         30.2310   32.5660   36.6700 N.am   15  GLY15      -0.1955
     15  CA        29.2140   33.1170   35.7860 C.3    15  GLY15       0.1869
     16  C         29.6520   33.2860   34.3450 C.2    15  GLY15       0.2309
     17  O         30.8480   33.2660   34.0140 O.2    15  GLY15      -0.2863
     18  N         28.2290   40.2600   33.3680 N.3    32  LEU32      -0.1245
     19  CA        27.5750   39.0160   33.8120 C.3    32  LEU32       0.1561
     20  C         26.1010   38.9590   33.3040 C.2    32  LEU32       0.2260
     21  O         25.3030   39.8640   33.5840 O.2    32  LEU32      -0.2867
     22  CB        27.5320   39.0170   35.3590 C.3    32  LEU32       0.0270
     23  CG        26.9220   37.7620   35.9790 C.3    32  LEU32       0.0019
     24  CD1       27.8830   36.6120   35.9050 C.3    32  LEU32       0.0001
     25  CD2       26.6000   37.9530   37.4530 C.3    32  LEU32       0.0001
     26  N         22.6360   37.7940   33.7380 N.3    34  ASP34      -0.1239
     27  CA        21.8920   37.3900   34.9200 C.3    34  ASP34       0.1674
     28  C         20.4090   37.3970   34.7470 C.2    34  ASP34       0.2266
     29  O         19.7930   38.4500   34.8280 O.2    34  ASP34      -0.2867
     30  CB        22.3000   38.2410   36.1500 C.3    34  ASP34       0.1410
     31  CG        21.6910   37.7340   37.4390 C.2    34  ASP34       0.3668
     32  OD1       21.2680   36.5560   37.4640 O.co2  34  ASP34      -0.2456
     33  OD2       21.7150   38.4860   38.4550 O.co2  34  ASP34      -0.2456
     34  N         18.5180   36.2920   36.9080 N.3    36  GLY36      -0.1210
     35  CA        18.0880   36.3280   38.3040 C.3    36  GLY36       0.1956
     36  C         17.8870   37.7130   38.8820 C.2    36  GLY36       0.2612
     37  O         17.5950   37.8410   40.0730 O.2    36  GLY36      -0.2717
     38  N         18.1470   38.7580   38.0730 N.am   37  SER37      -0.1952
     39  CA        18.0250   40.1460   38.5440 C.3    37  SER37       0.1924
     40  C         17.5900   41.0290   37.4030 C.2    37  SER37       0.2314
     41  O         17.5140   40.5700   36.2740 O.2    37  SER37      -0.2863
     42  CB        19.3240   40.6430   39.1790 C.3    37  SER37       0.2116
     43  OG        20.3300   40.7750   38.1960 O.3    37  SER37      -0.2180
     44  N         22.0120   41.9650   49.0600 N.3    73  TYR73      -0.1227
     45  CA        21.6420   40.5640   48.9660 C.3    73  TYR73       0.1736
     46  C         22.2280   39.8590   50.1710 C.2    73  TYR73       0.2596
     47  O         23.0250   40.4460   50.9240 O.2    73  TYR73      -0.2718
     48  CB        22.1490   39.8870   47.6880 C.3    73  TYR73       0.0548
     49  CG        21.7790   40.5660   46.3940 C.ar   73  TYR73      -0.0200
     50  CD1       20.5540   40.3200   45.7830 C.ar   73  TYR73      -0.0009
     51  CD2       22.6790   41.4120   45.7470 C.ar   73  TYR73      -0.0009
     52  CE1       20.2520   40.8560   44.5320 C.ar   73  TYR73       0.0417
     53  CE2       22.3620   42.0130   44.5370 C.ar   73  TYR73       0.0417
     54  CZ        21.1520   41.7240   43.9240 C.ar   73  TYR73       0.1957
     55  OH        20.8240   42.3390   42.7430 O.3    73  TYR73      -0.2866
     56  N         21.8710   38.5770   50.3220 N.am   74  THR74      -0.1939
     57  CA        22.3790   37.7250   51.3850 C.3    74  THR74       0.2028
     58  C         23.8970   37.6010   51.3220 C.2    74  THR74       0.2642
     59  O         24.5560   37.7510   52.3620 O.2    74  THR74      -0.2714
     60  CB        21.6830   36.3690   51.2720 C.3    74  THR74       0.1808
     61  OG1       20.3040   36.6070   51.5010 O.3    74  THR74      -0.2208
     62  CG2       22.1820   35.3760   52.2810 C.3    74  THR74       0.0379
     63  N         24.4480   37.3220   50.1340 N.am   75  GLN75      -0.1963
     64  CA        25.8810   37.1050   49.9630 C.3    75  GLN75       0.1733
     65  C         26.7400   38.2960   49.5300 C.2    75  GLN75       0.2617
     66  O         27.9510   38.1540   49.3990 O.2    75  GLN75      -0.2715
     67  CB        26.1510   35.9060   49.0400 C.3    75  GLN75       0.0408
     68  CG        25.5210   34.5790   49.5000 C.3    75  GLN75       0.0908
     69  CD        26.0260   34.0640   50.8300 C.2    75  GLN75       0.2608
     70  OE1       25.2730   33.9670   51.8050 O.2    75  GLN75      -0.2717
     71  NE2       27.3030   33.7040   50.8990 N.am   75  GLN75      -0.0878
     72  N         26.1340   39.4440   49.3110 N.am   76  GLY76      -0.1940
     73  CA        26.8660   40.6040   48.8350 C.3    76  GLY76       0.2014
     74  C         25.9700   41.7990   48.6040 C.2    76  GLY76       0.2638
     75  O         24.7610   41.7550   48.8810 O.2    76  GLY76      -0.2714
     76  N         26.5810   42.8910   48.1090 N.am   77  LYS77      -0.1977
     77  CA        25.8660   44.1360   47.9320 C.3    77  LYS77       0.1596
     78  C         26.6490   45.0820   47.0410 C.2    77  LYS77       0.2287
     79  O         27.8520   44.9180   46.7950 O.2    77  LYS77      -0.2864
     80  CB        25.6180   44.7950   49.3300 C.3    77  LYS77       0.0298
     81  CG        25.1050   46.2380   49.3480 C.3    77  LYS77       0.0038
     82  CD        26.0760   47.1840   50.0780 C.3    77  LYS77       0.0206
     83  CE        27.1260   47.8480   49.2070 C.3    77  LYS77       0.1093
     84  NZ        28.2860   48.3530   49.9930 N.3    77  LYS77      -0.1314
     85  N         31.5540   42.0210   48.3110 N.3   109  LYS109     -0.1231
     86  CA        31.3870   40.6090   47.9000 C.3   109  LYS109      0.1693
     87  C         30.5370   40.4800   46.6560 C.2   109  LYS109      0.2592
     88  O         29.8500   39.4680   46.4660 O.2   109  LYS109     -0.2718
     89  CB        30.8240   39.7570   49.0450 C.3   109  LYS109      0.0285
     90  CG        31.8120   39.5500   50.1880 C.3   109  LYS109      0.0035
     91  CD        31.1120   38.9420   51.3950 C.3   109  LYS109      0.0206
     92  CE        31.9510   39.0400   52.6460 C.3   109  LYS109      0.1093
     93  NZ        32.0570   40.4450   53.1420 N.3   109  LYS109     -0.1314
     94  N         30.5870   41.5080   45.7960 N.am  110  PHE110     -0.1976
     95  CA        29.8240   41.4970   44.5630 C.3   110  PHE110      0.1639
     96  C         30.7270   41.0440   43.4050 C.2   110  PHE110      0.2290
     97  O         30.4290   40.0260   42.7840 O.2   110  PHE110     -0.2864
     98  CB        29.1490   42.8310   44.2840 C.3   110  PHE110      0.0560
     99  CG        28.2080   42.7520   43.0880 C.ar  110  PHE110     -0.0200
    100  CD1       26.9620   42.1430   43.2010 C.ar  110  PHE110     -0.0042
    101  CD2       28.5840   43.2630   41.8540 C.ar  110  PHE110     -0.0042
    102  CE1       26.1060   42.0500   42.0840 C.ar  110  PHE110     -0.0003
    103  CE2       27.7270   43.1780   40.7470 C.ar  110  PHE110     -0.0003
    104  CZ        26.5060   42.5550   40.8730 C.ar  110  PHE110     -0.0000
    105  N         34.0300   39.3070   41.7150 N.3   112  ILE112     -0.1245
    106  CA        34.8190   38.0990   41.9810 C.3   112  ILE112      0.1561
    107  C         36.2060   38.2560   41.3630 C.2   112  ILE112      0.2260
    108  O         36.3270   38.6710   40.2120 O.2   112  ILE112     -0.2867
    109  CB        34.1310   36.8180   41.4310 C.3   112  ILE112      0.0252
    110  CG1       32.6180   36.7210   41.7680 C.3   112  ILE112      0.0019
    111  CG2       34.8660   35.5780   41.9350 C.3   112  ILE112      0.0019
    112  CD1       31.9270   35.5370   40.9950 C.3   112  ILE112      0.0001
    113  N         34.7460   39.9210   34.6380 N.3   117  TRP117     -0.1241
    114  CA        33.5380   40.7080   34.4040 C.3   117  TRP117      0.1605
    115  C         33.4480   41.8840   35.3980 C.2   117  TRP117      0.2264
    116  O         33.8780   41.7810   36.5660 O.2   117  TRP117     -0.2867
    117  CB        32.2480   39.8650   34.3090 C.3   117  TRP117      0.0550
    118  CG        31.8950   39.0390   35.5000 C.ar  117  TRP117      0.0003
    119  CD1       31.9850   37.6830   35.5930 C.ar  117  TRP117      0.0946
    120  CD2       31.1810   39.4740   36.6660 C.ar  117  TRP117      0.0152
    121  NE1       31.4330   37.2540   36.7710 N.ar  117  TRP117     -0.2442
    122  CE2       30.9940   38.3410   37.4840 C.ar  117  TRP117      0.0810
    123  CE3       30.7800   40.7360   37.1560 C.ar  117  TRP117      0.0012
    124  CZ2       30.4010   38.4190   38.7430 C.ar  117  TRP117      0.0191
    125  CZ3       30.1780   40.8100   38.4040 C.ar  117  TRP117      0.0001
    126  CH2       29.9550   39.6640   39.1640 C.ar  117  TRP117      0.0015
    127  N         26.8800   43.8280   35.5940 N.3   120  ILE120     -0.1245
    128  CA        25.8240   42.8130   35.5550 C.3   120  ILE120      0.1561
    129  C         24.7100   43.2840   34.6360 C.2   120  ILE120      0.2260
    130  O         24.3480   44.4860   34.6570 O.2   120  ILE120     -0.2867
    131  CB        25.3560   42.5750   37.0350 C.3   120  ILE120      0.0252
    132  CG1       24.2970   41.4230   37.1620 C.3   120  ILE120      0.0019
    133  CG2       24.8820   43.8530   37.7130 C.3   120  ILE120      0.0019
    134  CD1       24.2140   40.8300   38.4760 C.3   120  ILE120      0.0001
    135  N         17.7420   30.8360   36.7520 N.3   224  ASP224     -0.1239
    136  CA        18.7640   31.8420   37.0240 C.3   224  ASP224      0.1674
    137  C         20.1380   31.5580   36.4420 C.2   224  ASP224      0.2266
    138  O         20.9180   30.8550   37.0650 O.2   224  ASP224     -0.2867
    139  CB        18.8650   32.0870   38.5520 C.3   224  ASP224      0.1410
    140  CG        19.7320   33.2700   38.8710 C.2   224  ASP224      0.3668
    141  OD1       20.1900   33.9450   37.9110 O.co2 224  ASP224     -0.2456
    142  OD2       20.0500   33.4640   40.0500 O.co2 224  ASP224     -0.2456
    143  N         22.6080   33.4450   36.5810 N.3   226  GLY226     -0.1210
    144  CA        23.5770   34.0590   37.4870 C.3   226  GLY226      0.1956
    145  C         23.9910   33.2220   38.6760 C.2   226  GLY226      0.2613
    146  O         24.8030   33.6730   39.4940 O.2   226  GLY226     -0.2717
    147  N         23.3760   32.0310   38.8400 N.am  227  THR227     -0.1938
    148  CA        23.6340   31.0920   39.9340 C.3   227  THR227      0.2028
    149  C         24.3040   29.8680   39.3280 C.2   227  THR227      0.2642
    150  O         23.9090   29.4240   38.2490 O.2   227  THR227     -0.2714
    151  CB        22.3250   30.7460   40.6810 C.3   227  THR227      0.1808
    152  OG1       21.8690   31.8960   41.3930 O.3   227  THR227     -0.2208
    153  CG2       22.4580   29.5760   41.6410 C.3   227  THR227      0.0379
    154  N         25.3490   29.3410   39.9870 N.am  228  THR228     -0.1950
    155  CA        26.0400   28.1690   39.4130 C.3   228  THR228      0.1897
    156  C         25.2510   26.8800   39.6340 C.2   228  THR228      0.2313
    157  O         25.1380   26.0470   38.7200 O.2   228  THR228     -0.2863
    158  CB        27.4410   28.0080   40.0790 C.3   228  THR228      0.1794
    159  OG1       28.1720   29.2250   39.9510 O.3   228  THR228     -0.2208
    160  CG2       28.2400   26.7990   39.5410 C.3   228  THR228      0.0378
    161  N         19.9400   24.7880   43.0490 N.3   231  ARG231     -0.1245
    162  CA        19.5920   25.0260   44.4460 C.3   231  ARG231      0.1563
    163  C         18.2180   24.4840   44.7370 C.2   231  ARG231      0.2260
    164  O         17.2870   24.8030   44.0180 O.2   231  ARG231     -0.2867
    165  CB        19.7190   26.5210   44.8180 C.3   231  ARG231      0.0307
    166  CG        21.1000   27.0940   44.4720 C.3   231  ARG231      0.0489
    167  CD        21.3190   28.5170   44.9740 C.3   231  ARG231      0.2205
    168  NE        21.2700   28.5570   46.4450 N.pl3 231  ARG231     -0.0865
    169  CZ        20.7250   29.5320   47.1620 C.cat 231  ARG231      0.5346
    170  NH1       20.7070   29.4580   48.4870 N.pl3 231  ARG231      0.1354
    171  NH2       20.1930   30.5910   46.5620 N.pl3 231  ARG231      0.1354
    172  N         15.1450   30.0650   49.9000 N.3   325  THR325     -0.1218
    173  CA        14.4000   30.9630   49.0350 C.3   325  THR325      0.1862
    174  C         13.9110   30.2960   47.7640 C.2   325  THR325      0.2287
    175  O         13.7480   30.9730   46.7520 O.2   325  THR325     -0.2866
    176  CB        15.1710   32.2730   48.7170 C.3   325  THR325      0.1770
    177  OG1       16.2960   31.9790   47.8770 O.3   325  THR325     -0.2211
    178  CG2       15.5750   33.0570   49.9610 C.3   325  THR325      0.0375
@<TRIPOS>BOND
     1    20    21    2
     2    20    19    1
     3    18    19    1
     4    26    27    1
     5    19    22    1
     6    17    16    2
     7   117   114    1
     8   117   118    1
     9    16    15    1
    10   114   113    1
    11   114   115    1
    12   129   130    2
    13   129   128    1
    14    28    29    2
    15    28    27    1
    16    27    30    1
    17    22    23    1
    18   115   116    2
    19   118   119   ar
    20   118   120   ar
    21   128   127    1
    22   128   131    1
    23   119   121   ar
    24    15    14    1
    25    24    23    1
    26    23    25    1
    27    30    31    1
    28    41    40    2
    29   137   136    1
    30   137   138    2
    31   143   144    1
    32   120   123   ar
    33   120   122   ar
    34    14     7   am
    35   135   136    1
    36   121   122   ar
    37    34    35    1
    38     8     7    2
    39   136   139    1
    40   131   132    1
    41   131   133    1
    42     7     6    1
    43   123   125   ar
    44   132   134    1
    45     1     2    1
    46    40    39    1
    47    31    32   ar
    48    31    33   ar
    49   122   124   ar
    50   144   145    1
    51     5     6    1
    52     5     3   am
    53   141   140   ar
    54     9     6    1
    55     9    10    1
    56    38    39    1
    57    38    36   am
    58    12    11    2
    59    43    42    1
    60   150   149    2
    61    35    36    1
    62   125   126   ar
    63    39    42    1
    64   139   140    1
    65     2     3    1
    66   145   147   am
    67   145   146    2
    68   157   156    2
    69   124   126   ar
    70   147   148    1
    71   140   142   ar
    72    36    37    2
    73     3     4    2
    74    10    11    1
    75    11    13   am
    76   149   148    1
    77   149   154   am
    78   155   156    1
    79   155   154    1
    80   155   158    1
    81   160   158    1
    82   148   151    1
    83   159   158    1
    84   108   107    2
    85   151   152    1
    86   151   153    1
    87   103   104   ar
    88   103   101   ar
    89   104   102   ar
    90   112   110    1
    91   107   106    1
    92   109   110    1
    93   109   111    1
    94   109   106    1
    95   105   106    1
    96   101    99   ar
    97   102   100   ar
    98    55    54    1
    99    97    96    2
   100   161   162    1
   101    99   100   ar
   102    99    98    1
   103    96    95    1
   104    54    52   ar
   105    54    53   ar
   106   164   163    2
   107    98    95    1
   108   162   163    1
   109   162   165    1
   110   166   165    1
   111   166   167    1
   112    52    50   ar
   113    53    51   ar
   114    95    94    1
   115   167   168    1
   116    51    49   ar
   117    50    49   ar
   118    94    87   am
   119    49    48    1
   120   168   169    2
   121    88    87    2
   122   171   169    1
   123    87    86    1
   124   175   174    2
   125    79    78    2
   126    78    77    1
   127   169   170    1
   128    48    45    1
   129   174   173    1
   130   177   176    1
   131    86    85    1
   132    86    89    1
   133    77    76    1
   134    77    80    1
   135    76    74   am
   136    74    73    1
   137    74    75    2
   138   176   173    1
   139   176   178    1
   140    73    72    1
   141    45    44    1
   142    45    46    1
   143   173   172    1
   144    67    68    1
   145    67    64    1
   146    89    90    1
   147    83    84    1
   148    83    82    1
   149    72    65   am
   150    80    81    1
   151    81    82    1
   152    66    65    2
   153    68    69    1
   154    65    64    1
   155    64    63    1
   156    63    58   am
   157    46    56   am
   158    46    47    2
   159    90    91    1
   160    56    57    1
   161    69    71   am
   162    69    70    2
   163    60    57    1
   164    60    61    1
   165    60    62    1
   166    58    57    1
   167    58    59    2
   168    91    92    1
   169    92    93    1
