@<TRIPOS>MOLECULE
tmp/4fmcF00.pdb
 102 99 0 0 0
SMALL
GASTEIGER

@<TRIPOS>ATOM
      1  N        -47.0350   50.6210  -18.3420 N.3     6  ASP6       -0.1225
      2  CA       -47.3620   49.2890  -18.8730 C.3     6  ASP6        0.1805
      3  C        -46.1930   48.2970  -18.7470 C.2     6  ASP6        0.2598
      4  O        -45.1350   48.6340  -18.2120 O.2     6  ASP6       -0.2718
      5  CB       -47.8430   49.3780  -20.3280 C.3     6  ASP6        0.1424
      6  CG       -49.2840   48.9260  -20.4970 C.2     6  ASP6        0.3668
      7  OD1      -50.1860   49.5220  -19.8690 O.co2   6  ASP6       -0.2456
      8  OD2      -49.5170   47.9680  -21.2650 O.co2   6  ASP6       -0.2456
      9  N        -46.3970   47.0760  -19.2400 N.am    7  SER7       -0.1938
     10  CA       -45.4150   46.0020  -19.1110 C.3     7  SER7        0.2055
     11  C        -44.2840   46.1020  -20.1410 C.2     7  SER7        0.2644
     12  O        -44.5340   46.1550  -21.3450 O.2     7  SER7       -0.2714
     13  CB       -46.1140   44.6500  -19.2330 C.3     7  SER7        0.2130
     14  OG       -45.2330   43.5990  -18.8960 O.3     7  SER7       -0.2179
     15  N        -43.0440   46.1300  -19.6580 N.am    8  GLY8       -0.1939
     16  CA       -41.8650   46.0640  -20.5220 C.3     8  GLY8        0.2014
     17  C        -41.5820   47.3050  -21.3570 C.2     8  GLY8        0.2639
     18  O        -41.3090   47.1960  -22.5600 O.2     8  GLY8       -0.2714
     19  N        -41.6170   48.4800  -20.7230 N.am    9  VAL9       -0.1963
     20  CA       -41.5160   49.7570  -21.4530 C.3     9  VAL9        0.1727
     21  C        -40.3660   50.7160  -21.0510 C.2     9  VAL9        0.2617
     22  O        -40.3640   51.8810  -21.4560 O.2     9  VAL9       -0.2715
     23  CB       -42.8780   50.5100  -21.4620 C.3     9  VAL9        0.0290
     24  CG1      -43.9150   49.7400  -22.2800 C.3     9  VAL9        0.0023
     25  CG2      -43.3760   50.7550  -20.0450 C.3     9  VAL9        0.0023
     26  N        -39.3940   50.2290  -20.2770 N.am   10  GLY10      -0.1940
     27  CA       -38.2090   51.0200  -19.9030 C.3    10  GLY10       0.2014
     28  C        -38.3240   51.8410  -18.6290 C.2    10  GLY10       0.2639
     29  O        -37.8600   52.9810  -18.5900 O.2    10  GLY10      -0.2714
     30  N        -38.9230   51.2590  -17.5860 N.am   11  LYS11      -0.1963
     31  CA       -39.1870   51.9830  -16.3370 C.3    11  LYS11       0.1728
     32  C        -38.2020   51.6560  -15.2130 C.2    11  LYS11       0.2617
     33  O        -37.8820   52.5280  -14.4000 O.2    11  LYS11      -0.2715
     34  CB       -40.6120   51.7330  -15.8510 C.3    11  LYS11       0.0311
     35  CG       -41.6630   51.6480  -16.9440 C.3    11  LYS11       0.0038
     36  CD       -43.0850   51.8040  -16.3840 C.3    11  LYS11       0.0206
     37  CE       -43.3970   50.8620  -15.2110 C.3    11  LYS11       0.1093
     38  NZ       -43.4440   49.4140  -15.5820 N.3    11  LYS11      -0.1314
     39  N        -37.7490   50.4000  -15.1600 N.am   12  SER12      -0.1936
     40  CA       -36.7310   49.9660  -14.1950 C.3    12  SER12       0.2055
     41  C        -35.3670   50.5580  -14.5450 C.2    12  SER12       0.2643
     42  O        -34.6610   51.0570  -13.6680 O.2    12  SER12      -0.2714
     43  CB       -36.6370   48.4360  -14.1320 C.3    12  SER12       0.2130
     44  OG       -37.7980   47.8570  -13.5580 O.3    12  SER12      -0.2179
     45  N        -35.0130   50.4960  -15.8310 N.am   13  CYS13      -0.1967
     46  CA       -33.7730   51.0810  -16.3440 C.3    13  CYS13       0.1712
     47  C        -33.8980   52.6020  -16.5370 C.2    13  CYS13       0.2296
     48  O        -32.9520   53.2560  -17.0000 O.2    13  CYS13      -0.2864
     49  CB       -33.3390   50.3840  -17.6520 C.3    13  CYS13       0.0983
     50  SG       -34.4990   50.5560  -19.0290 S.3    13  CYS13      -0.0798
     51  N        -28.3740   52.7200  -17.2410 N.3    21  TYR21      -0.1227
     52  CA       -29.0530   51.9350  -18.2680 C.3    21  TYR21       0.1736
     53  C        -28.4040   50.5640  -18.5040 C.2    21  TYR21       0.2596
     54  O        -27.1840   50.4080  -18.3970 O.2    21  TYR21      -0.2718
     55  CB       -29.1300   52.7240  -19.5830 C.3    21  TYR21       0.0548
     56  CG       -29.8380   51.9970  -20.7090 C.ar   21  TYR21      -0.0200
     57  CD1      -31.2330   52.0060  -20.8070 C.ar   21  TYR21      -0.0009
     58  CD2      -29.1130   51.2970  -21.6770 C.ar   21  TYR21      -0.0009
     59  CE1      -31.8860   51.3370  -21.8400 C.ar   21  TYR21       0.0417
     60  CE2      -29.7550   50.6250  -22.7100 C.ar   21  TYR21       0.0417
     61  CZ       -31.1380   50.6500  -22.7860 C.ar   21  TYR21       0.1957
     62  OH       -31.7690   49.9850  -23.8090 O.3    21  TYR21      -0.2866
     63  N        -29.2500   49.5840  -18.8210 N.am   22  THR22      -0.1953
     64  CA       -28.8410   48.2250  -19.1980 C.3    22  THR22       0.1897
     65  C        -29.9540   47.5720  -20.0310 C.2    22  THR22       0.2313
     66  O        -31.0040   48.1920  -20.2570 O.2    22  THR22      -0.2863
     67  CB       -28.5320   47.3500  -17.9560 C.3    22  THR22       0.1794
     68  OG1      -28.1030   46.0500  -18.3780 O.3    22  THR22      -0.2208
     69  CG2      -29.7670   47.2040  -17.0570 C.3    22  THR22       0.0378
     70  N        -31.8000   42.3700  -16.5420 N.3    23  TYR23      -0.1241
     71  CA       -32.4610   42.0990  -15.2710 C.3    23  TYR23       0.1605
     72  C        -33.8430   41.4910  -15.4880 C.2    23  TYR23       0.2264
     73  O        -34.5530   41.8570  -16.4240 O.2    23  TYR23      -0.2867
     74  CB       -32.5740   43.3790  -14.4420 C.3    23  TYR23       0.0534
     75  CG       -33.2600   44.5360  -15.1230 C.ar   23  TYR23      -0.0201
     76  CD1      -34.6490   44.6640  -15.0720 C.ar   23  TYR23      -0.0009
     77  CD2      -32.5410   45.5160  -15.7990 C.ar   23  TYR23      -0.0009
     78  CE1      -35.2970   45.7200  -15.6890 C.ar   23  TYR23       0.0417
     79  CE2      -33.1740   46.5790  -16.4160 C.ar   23  TYR23       0.0417
     80  CZ       -34.5490   46.6730  -16.3510 C.ar   23  TYR23       0.1957
     81  OH       -35.1970   47.7170  -16.9760 O.3    23  TYR23      -0.2866
     82  N        -37.7120   40.6720  -15.3920 N.3    25  SER25      -0.1202
     83  CA       -38.8870   41.5590  -15.3930 C.3    25  SER25       0.2020
     84  C        -39.2910   41.8980  -13.9600 C.2    25  SER25       0.2619
     85  O        -39.1550   41.0740  -13.0570 O.2    25  SER25      -0.2717
     86  CB       -40.0390   40.8580  -16.1140 C.3    25  SER25       0.2103
     87  OG       -39.7180   40.6600  -17.4820 O.3    25  SER25      -0.2182
     88  N        -39.7770   43.1240  -13.7690 N.am   26  THR26      -0.1952
     89  CA       -40.2090   43.5970  -12.4590 C.3    26  THR26       0.1897
     90  C        -41.3830   42.7570  -11.9940 C.2    26  THR26       0.2313
     91  O        -42.4580   42.7800  -12.5970 O.2    26  THR26      -0.2863
     92  CB       -40.6110   45.0950  -12.4610 C.3    26  THR26       0.1794
     93  OG1      -39.6270   45.8730  -13.1630 O.3    26  THR26      -0.2208
     94  CG2      -40.7400   45.6160  -11.0410 C.3    26  THR26       0.0378
     95  N        -41.1950   51.7210   -8.7270 N.3    35  ASP35      -0.1239
     96  CA       -41.4000   51.0930  -10.0460 C.3    35  ASP35       0.1674
     97  C        -42.3890   49.9330   -9.9450 C.2    35  ASP35       0.2266
     98  O        -42.2970   49.1090   -9.0390 O.2    35  ASP35      -0.2867
     99  CB       -40.0550   50.6210  -10.6370 C.3    35  ASP35       0.1410
    100  CG       -40.1970   49.9330  -11.9990 C.2    35  ASP35       0.3668
    101  OD1      -41.0970   50.2920  -12.7880 O.co2  35  ASP35      -0.2456
    102  OD2      -39.3860   49.0290  -12.2820 O.co2  35  ASP35      -0.2456
@<TRIPOS>BOND
     1    62    61    1
     2    61    60   ar
     3    61    59   ar
     4    60    58   ar
     5    18    17    2
     6    24    23    1
     7    59    57   ar
     8    58    56   ar
     9    23    20    1
    10    23    25    1
    11    22    21    2
    12    20    21    1
    13    20    19    1
    14    17    19   am
    15    17    16    1
    16    12    11    2
    17     8     6   ar
    18    21    26   am
    19    57    56   ar
    20    56    55    1
    21    16    15    1
    22     6     5    1
    23     6     7   ar
    24     5     2    1
    25    26    27    1
    26    66    65    2
    27    11    15   am
    28    11    10    1
    29    65    64    1
    30    27    28    1
    31    55    52    1
    32     9    10    1
    33     9     3   am
    34    13    10    1
    35    13    14    1
    36    64    63    1
    37    64    67    1
    38    50    49    1
    39     2     3    1
    40     2     1    1
    41    63    53   am
    42     3     4    2
    43    28    29    2
    44    28    30   am
    45    53    54    2
    46    53    52    1
    47    68    67    1
    48    52    51    1
    49    67    69    1
    50    49    46    1
    51    30    31    1
    52    87    86    1
    53    48    47    2
    54    81    80    1
    55    35    36    1
    56    35    34    1
    57    70    71    1
    58    47    46    1
    59    73    72    2
    60    79    80   ar
    61    79    77   ar
    62    36    37    1
    63    80    78   ar
    64    46    45    1
    65    31    34    1
    66    31    32    1
    67    86    83    1
    68    45    41   am
    69    77    75   ar
    70    78    76   ar
    71    38    37    1
    72    72    71    1
    73    83    82    1
    74    83    84    1
    75    71    74    1
    76    32    39   am
    77    32    33    2
    78    39    40    1
    79    75    76   ar
    80    75    74    1
    81    41    40    1
    82    41    42    2
    83    40    43    1
    84    43    44    1
    85    84    88   am
    86    84    85    2
    87    88    89    1
    88    93    92    1
    89   101   100   ar
    90    91    90    2
    91    92    89    1
    92    92    94    1
    93    89    90    1
    94   102   100   ar
    95   100    99    1
    96    99    96    1
    97    96    97    1
    98    96    95    1
    99    97    98    2
