@<TRIPOS>MOLECULE
tmp/4fmjM00.pdb
 106 107 0 0 0
SMALL
GASTEIGER

@<TRIPOS>ATOM
      1  N          4.0150    8.9120   75.7440 N.3    37  TRP37      -0.1241
      2  CA         4.7740    7.9320   76.5220 C.3    37  TRP37       0.1605
      3  C          4.1380    6.5420   76.4570 C.2    37  TRP37       0.2264
      4  O          4.4340    5.6680   77.2790 O.2    37  TRP37      -0.2867
      5  CB         4.9810    8.3910   77.9740 C.3    37  TRP37       0.0550
      6  CG         5.9270    9.5570   78.0690 C.ar   37  TRP37       0.0003
      7  CD1        5.6210   10.8340   78.4570 C.ar   37  TRP37       0.0946
      8  CD2        7.3270    9.5620   77.7430 C.ar   37  TRP37       0.0152
      9  NE1        6.7410   11.6320   78.3950 N.ar   37  TRP37      -0.2442
     10  CE2        7.8020   10.8800   77.9570 C.ar   37  TRP37       0.0810
     11  CE3        8.2230    8.5880   77.2920 C.ar   37  TRP37       0.0012
     12  CZ2        9.1420   11.2460   77.7380 C.ar   37  TRP37       0.0191
     13  CZ3        9.5580    8.9540   77.0710 C.ar   37  TRP37       0.0001
     14  CH2        9.9980   10.2720   77.2910 C.ar   37  TRP37       0.0015
     15  N          6.6320    3.7380   81.1380 N.3    41  THR41      -0.1203
     16  CA         6.1240    4.2230   82.4160 C.3    41  THR41       0.1994
     17  C          6.3140    5.7360   82.4960 C.2    41  THR41       0.2618
     18  O          6.7980    6.3590   81.5470 O.2    41  THR41      -0.2717
     19  CB         6.8880    3.6000   83.5980 C.3    41  THR41       0.1784
     20  OG1        8.2980    3.9060   83.4870 O.3    41  THR41      -0.2211
     21  CG2        6.6800    2.0960   83.6430 C.3    41  THR41       0.0376
     22  N          5.9540    6.3170   83.6400 N.am   42  TYR42      -0.1961
     23  CA         6.3830    7.6650   83.9920 C.3    42  TYR42       0.1771
     24  C          7.6860    7.5150   84.7490 C.2    42  TYR42       0.2619
     25  O          8.2510    6.4120   84.7940 O.2    42  TYR42      -0.2715
     26  CB         5.3220    8.3690   84.8310 C.3    42  TYR42       0.0574
     27  CG         4.2580    9.0910   84.0290 C.ar   42  TYR42      -0.0198
     28  CD1        3.9620    8.7190   82.7130 C.ar   42  TYR42      -0.0009
     29  CD2        3.5330   10.1460   84.5920 C.ar   42  TYR42      -0.0009
     30  CE1        2.9850    9.3860   81.9750 C.ar   42  TYR42       0.0417
     31  CE2        2.5490   10.8130   83.8670 C.ar   42  TYR42       0.0417
     32  CZ         2.2780   10.4270   82.5580 C.ar   42  TYR42       0.1957
     33  OH         1.3040   11.0850   81.8240 O.3    42  TYR42      -0.2866
     34  N          8.1840    8.5970   85.3400 N.am   43  ASP43      -0.1971
     35  CA         9.4880    8.5410   86.0090 C.3    43  ASP43       0.1709
     36  C          9.4140    7.7740   87.3270 C.2    43  ASP43       0.2293
     37  O          8.5430    8.0370   88.1620 O.2    43  ASP43      -0.2864
     38  CB        10.0730    9.9400   86.2130 C.3    43  ASP43       0.1436
     39  CG        10.2590   10.7000   84.8960 C.2    43  ASP43       0.3671
     40  OD1        9.7610   11.8360   84.7950 O.co2  43  ASP43      -0.2456
     41  OD2       10.8750   10.1620   83.9510 O.co2  43  ASP43      -0.2456
     42  N         18.0840    9.5910   71.2240 N.3    98  TYR98      -0.1227
     43  CA        16.8380   10.2120   71.6620 C.3    98  TYR98       0.1736
     44  C         17.1760   11.6180   72.1920 C.2    98  TYR98       0.2595
     45  O         18.1730   11.7860   72.9010 O.2    98  TYR98      -0.2718
     46  CB        16.1630    9.3620   72.7400 C.3    98  TYR98       0.0548
     47  CG        15.0910   10.0880   73.5360 C.ar   98  TYR98      -0.0200
     48  CD1       13.8630   10.4130   72.9600 C.ar   98  TYR98      -0.0009
     49  CD2       15.3070   10.4430   74.8700 C.ar   98  TYR98      -0.0009
     50  CE1       12.8770   11.0760   73.6890 C.ar   98  TYR98       0.0417
     51  CE2       14.3320   11.0970   75.6070 C.ar   98  TYR98       0.0417
     52  CZ        13.1190   11.4190   75.0100 C.ar   98  TYR98       0.1957
     53  OH        12.1440   12.0750   75.7350 O.3    98  TYR98      -0.2866
     54  N         16.3670   12.6190   71.8400 N.am   99  TRP99      -0.1962
     55  CA        16.7590   14.0210   72.0580 C.3    99  TRP99       0.1771
     56  C         17.0230   14.3980   73.5110 C.2    99  TRP99       0.2619
     57  O         17.8020   15.3140   73.7850 O.2    99  TRP99      -0.2715
     58  CB        15.7680   14.9960   71.4120 C.3    99  TRP99       0.0590
     59  CG        14.4340   15.0850   72.0930 C.ar   99  TRP99       0.0006
     60  CD1       13.3000   14.4050   71.7620 C.ar   99  TRP99       0.0946
     61  CD2       14.0880   15.9280   73.2050 C.ar   99  TRP99       0.0152
     62  NE1       12.2760   14.7510   72.6080 N.ar   99  TRP99      -0.2442
     63  CE2       12.7320   15.6870   73.5020 C.ar   99  TRP99       0.0810
     64  CE3       14.8010   16.8480   73.9880 C.ar   99  TRP99       0.0012
     65  CZ2       12.0630   16.3400   74.5470 C.ar   99  TRP99       0.0191
     66  CZ3       14.1450   17.4920   75.0200 C.ar   99  TRP99       0.0001
     67  CH2       12.7800   17.2380   75.2910 C.ar   99  TRP99       0.0015
     68  N         16.3780   13.6910   74.4320 N.am  100  ASP100     -0.1971
     69  CA        16.5400   13.9470   75.8650 C.3   100  ASP100      0.1709
     70  C         17.2460   12.7920   76.5960 C.2   100  ASP100      0.2293
     71  O         17.0270   12.5720   77.7870 O.2   100  ASP100     -0.2864
     72  CB        15.1740   14.2570   76.5070 C.3   100  ASP100      0.1436
     73  CG        15.2960   15.0100   77.8250 C.2   100  ASP100      0.3671
     74  OD1       16.2150   15.8400   77.9720 O.co2 100  ASP100     -0.2456
     75  OD2       14.4620   14.7740   78.7210 O.co2 100  ASP100     -0.2456
     76  N         16.8640    9.5860   80.9850 N.3   247  LYS247     -0.1231
     77  CA        16.7250   11.0040   80.6140 C.3   247  LYS247      0.1693
     78  C         17.8540   11.9080   81.1400 C.2   247  LYS247      0.2593
     79  O         18.5200   11.5770   82.1230 O.2   247  LYS247     -0.2718
     80  CB        15.3550   11.5110   81.0460 C.3   247  LYS247      0.0285
     81  CG        14.2280   10.6520   80.4790 C.3   247  LYS247      0.0035
     82  CD        12.9230   10.8600   81.2240 C.3   247  LYS247      0.0206
     83  CE        11.7970   10.0720   80.5770 C.3   247  LYS247      0.1093
     84  NZ        10.5060   10.3370   81.2770 N.3   247  LYS247     -0.1314
     85  N         18.0590   13.0390   80.4590 N.am  248  THR248     -0.1939
     86  CA        19.1080   14.0350   80.7710 C.3   248  THR248      0.2028
     87  C         19.1860   14.4230   82.2500 C.2   248  THR248      0.2642
     88  O         20.2790   14.4590   82.8430 O.2   248  THR248     -0.2714
     89  CB        18.8890   15.3370   79.9670 C.3   248  THR248      0.1808
     90  OG1       18.5320   15.0160   78.6150 O.3   248  THR248     -0.2208
     91  CG2       20.1440   16.2140   79.9730 C.3   248  THR248      0.0379
     92  N         18.0260   14.7030   82.8430 N.am  249  SER249     -0.1949
     93  CA        17.9750   15.1730   84.2230 C.3   249  SER249      0.1924
     94  C         18.4070   14.1220   85.2530 C.2   249  SER249      0.2314
     95  O         18.6660   14.4590   86.4190 O.2   249  SER249     -0.2863
     96  CB        16.5760   15.7010   84.5520 C.3   249  SER249      0.2116
     97  OG        15.6170   14.6720   84.4590 O.3   249  SER249     -0.2180
     98  N         16.3620   11.3480   85.5520 N.3   251  LYS251     -0.1245
     99  CA        15.1390   10.5460   85.6560 C.3   251  LYS251      0.1561
    100  C         15.1560    9.3110   84.7480 C.2   251  LYS251      0.2260
    101  O         15.9440    9.2480   83.7950 O.2   251  LYS251     -0.2867
    102  CB        13.9140   11.4140   85.3900 C.3   251  LYS251      0.0271
    103  CG        13.5190   12.1840   86.6260 C.3   251  LYS251      0.0035
    104  CD        12.4590   13.2210   86.3650 C.3   251  LYS251      0.0206
    105  CE        12.2550   14.0570   87.6320 C.3   251  LYS251      0.1093
    106  NZ        11.2250   15.1000   87.4340 N.3   251  LYS251     -0.1314
@<TRIPOS>BOND
     1    42    43    1
     2    58    55    1
     3    58    59    1
     4    43    44    1
     5    43    46    1
     6    60    59   ar
     7    60    62   ar
     8    54    55    1
     9    54    44   am
    10    55    56    1
    11    59    61   ar
    12    44    45    2
    13    62    63   ar
    14    46    47    1
    15    48    47   ar
    16    48    50   ar
    17    61    63   ar
    18    61    64   ar
    19    63    65   ar
    20    56    57    2
    21    56    68   am
    22    47    49   ar
    23    50    52   ar
    24    64    66   ar
    25    68    69    1
    26    65    67   ar
    27    49    51   ar
    28    52    51   ar
    29    52    53    1
    30    66    67   ar
    31     1     2    1
    32    69    72    1
    33    69    70    1
    34     3     2    1
    35     3     4    2
    36    72    73    1
    37     2     5    1
    38    70    71    2
    39    13    14   ar
    40    13    11   ar
    41    14    12   ar
    42    11     8   ar
    43    12    10   ar
    44     8    10   ar
    45     8     6   ar
    46    73    74   ar
    47    73    75   ar
    48    10     9   ar
    49     5     6    1
    50     6     7   ar
    51     9     7   ar
    52    90    89    1
    53    89    91    1
    54    89    86    1
    55    85    86    1
    56    85    78   am
    57    81    80    1
    58    81    82    1
    59    83    82    1
    60    83    84    1
    61    77    76    1
    62    77    80    1
    63    77    78    1
    64    86    87    1
    65    15    16    1
    66    78    79    2
    67    18    17    2
    68    33    32    1
    69    30    32   ar
    70    30    28   ar
    71    87    92   am
    72    87    88    2
    73    16    17    1
    74    16    19    1
    75    17    22   am
    76    32    31   ar
    77    28    27   ar
    78    92    93    1
    79    20    19    1
    80    19    21    1
    81    22    23    1
    82   101   100    2
    83    31    29   ar
    84    41    39   ar
    85    23    24    1
    86    23    26    1
    87    27    29   ar
    88    27    26    1
    89    93    96    1
    90    93    94    1
    91    97    96    1
    92   100    99    1
    93    24    25    2
    94    24    34   am
    95    40    39   ar
    96    39    38    1
    97    94    95    2
    98    34    35    1
    99   102    99    1
   100   102   103    1
   101    98    99    1
   102    35    38    1
   103    35    36    1
   104   104   103    1
   105   104   105    1
   106    36    37    2
   107   106   105    1
