@<TRIPOS>MOLECULE
tmp/4fmnA00.pdb
 120 117 0 0 0
SMALL
GASTEIGER

@<TRIPOS>ATOM
      1  N         67.0840  -12.0510   25.4360 N.3     6  ASN6       -0.1225
      2  CA        67.4320  -13.2570   26.1920 C.3     6  ASN6        0.1785
      3  C         66.2020  -13.8490   26.8750 C.2     6  ASN6        0.2597
      4  O         66.2220  -15.0220   27.2400 O.2     6  ASN6       -0.2718
      5  CB        68.4930  -12.9180   27.2680 C.3     6  ASN6        0.1169
      6  CG        69.3800  -14.0760   27.6730 C.2     6  ASN6        0.2627
      7  OD1       69.5770  -15.0630   26.9380 O.2     6  ASN6       -0.2716
      8  ND2       69.9740  -13.9610   28.8550 N.am    6  ASN6       -0.0877
      9  N         65.1420  -13.0230   27.0690 N.am    7  LEU7       -0.1966
     10  CA        63.9140  -13.3280   27.8170 C.3     7  LEU7        0.1728
     11  C         63.1390  -14.5590   27.4470 C.2     7  LEU7        0.2616
     12  O         62.7770  -14.6860   26.2830 O.2     7  LEU7       -0.2715
     13  CB        62.9480  -12.1590   27.8290 C.3     7  LEU7        0.0311
     14  CG        63.1490  -11.0990   28.8460 C.3     7  LEU7        0.0022
     15  CD1       62.0610  -10.0140   28.6920 C.3     7  LEU7        0.0001
     16  CD2       63.1760  -11.6680   30.2170 C.3     7  LEU7        0.0001
     17  N         62.7830  -15.4080   28.4540 N.am    8  THR8       -0.1951
     18  CA        61.9520  -16.5960   28.2540 C.3     8  THR8        0.1897
     19  C         60.5090  -16.2370   27.9160 C.2     8  THR8        0.2313
     20  O         59.8870  -16.9760   27.1710 O.2     8  THR8       -0.2863
     21  CB        62.0170  -17.6290   29.4020 C.3     8  THR8        0.1794
     22  OG1       63.3710  -17.9320   29.6730 O.3     8  THR8       -0.2208
     23  CG2       61.3260  -18.9250   29.0410 C.3     8  THR8        0.0378
     24  N         56.2730    1.6910   36.5840 N.3   119  MET119     -0.1245
     25  CA        56.8020    0.7970   35.5750 C.3   119  MET119      0.1570
     26  C         57.4540    1.5400   34.4070 C.2   119  MET119      0.2261
     27  O         57.7210    0.9240   33.3780 O.2   119  MET119     -0.2867
     28  CB        55.6710   -0.1050   35.0710 C.3   119  MET119      0.0387
     29  CG        55.1310   -1.0090   36.1410 C.3   119  MET119      0.0595
     30  SD        56.3330   -2.2980   36.6810 S.3   119  MET119     -0.1393
     31  CE        56.5360   -1.7650   38.4320 C.3   119  MET119      0.0692
     32  N         60.5480    2.7180   33.9600 N.3   121  SER121     -0.1202
     33  CA        61.8920    2.2690   33.5560 C.3   121  SER121      0.2020
     34  C         61.8060    1.1410   32.5040 C.2   121  SER121      0.2618
     35  O         62.4690    1.2330   31.4670 O.2   121  SER121     -0.2717
     36  CB        62.7060    1.8100   34.7600 C.3   121  SER121      0.2103
     37  OG        62.9970    2.8730   35.6570 O.3   121  SER121     -0.2182
     38  N         60.9450    0.1110   32.7430 N.am  122  MET122     -0.1979
     39  CA        60.7280   -0.9990   31.8160 C.3   122  MET122      0.1605
     40  C         59.9260   -0.5600   30.5730 C.2   122  MET122      0.2287
     41  O         60.2680   -0.9880   29.4740 O.2   122  MET122     -0.2864
     42  CB        60.0500   -2.1700   32.5670 C.3   122  MET122      0.0413
     43  CG        59.4660   -3.2830   31.7070 C.3   122  MET122      0.0598
     44  SD        57.6670   -3.2110   31.4310 S.3   122  MET122     -0.1393
     45  CE        57.0960   -3.7790   33.0070 C.3   122  MET122      0.0692
     46  N         62.5300    1.0810   28.4450 N.3   125  GLU125     -0.1231
     47  CA        63.5670    0.1460   28.0040 C.3   125  GLU125      0.1699
     48  C         63.1070   -0.8680   26.9310 C.2   125  GLU125      0.2592
     49  O         63.7280   -0.9730   25.8660 O.2   125  GLU125     -0.2718
     50  CB        64.1820   -0.5600   29.2270 C.3   125  GLU125      0.0402
     51  CG        65.3240   -1.5110   28.8900 C.3   125  GLU125      0.1161
     52  CD        65.7780   -2.3830   30.0390 C.2   125  GLU125      0.3649
     53  OE1       65.6940   -1.9130   31.1920 O.co2 125  GLU125     -0.2457
     54  OE2       66.2570   -3.5130   29.7900 O.co2 125  GLU125     -0.2457
     55  N         61.9980   -1.5760   27.2290 N.am  126  TYR126     -0.1976
     56  CA        61.3920   -2.6380   26.4340 C.3   126  TYR126      0.1639
     57  C         60.4830   -2.1550   25.3180 C.2   126  TYR126      0.2290
     58  O         60.4760   -2.7750   24.2470 O.2   126  TYR126     -0.2864
     59  CB        60.5780   -3.5810   27.3360 C.3   126  TYR126      0.0560
     60  CG        61.3440   -4.4290   28.3540 C.ar  126  TYR126     -0.0198
     61  CD1       62.7440   -4.4690   28.3580 C.ar  126  TYR126     -0.0009
     62  CD2       60.6670   -5.2660   29.2460 C.ar  126  TYR126     -0.0009
     63  CE1       63.4450   -5.2720   29.2580 C.ar  126  TYR126      0.0417
     64  CE2       61.3610   -6.0690   30.1580 C.ar  126  TYR126      0.0417
     65  CZ        62.7510   -6.0490   30.1740 C.ar  126  TYR126      0.1957
     66  OH        63.4700   -6.8450   31.0400 O.3   126  TYR126     -0.2866
     67  N         49.9530   -6.4910   35.5050 N.3   175  TRP175     -0.1227
     68  CA        51.3140   -6.1090   35.9080 C.3   175  TRP175      0.1737
     69  C         52.0240   -7.1290   36.8210 C.2   175  TRP175      0.2595
     70  O         53.2550   -7.0720   36.9400 O.2   175  TRP175     -0.2718
     71  CB        51.2970   -4.7450   36.5820 C.3   175  TRP175      0.0564
     72  CG        50.9040   -3.6270   35.6650 C.ar  175  TRP175      0.0003
     73  CD1       49.6680   -3.0630   35.5480 C.ar  175  TRP175      0.0946
     74  CD2       51.7430   -2.9650   34.6970 C.ar  175  TRP175      0.0152
     75  NE1       49.6830   -2.0820   34.5780 N.ar  175  TRP175     -0.2442
     76  CE2       50.9460   -1.9980   34.0410 C.ar  175  TRP175      0.0810
     77  CE3       53.0940   -3.0920   34.3180 C.ar  175  TRP175      0.0012
     78  CZ2       51.4580   -1.1540   33.0460 C.ar  175  TRP175      0.0191
     79  CZ3       53.5910   -2.2650   33.3170 C.ar  175  TRP175      0.0001
     80  CH2       52.7840   -1.2930   32.7160 C.ar  175  TRP175      0.0015
     81  N         51.2660   -8.0530   37.4500 N.am  176  GLU176     -0.1965
     82  CA        51.8480   -9.0390   38.3590 C.3   176  GLU176      0.1733
     83  C         52.6100  -10.2010   37.7290 C.2   176  GLU176      0.2616
     84  O         53.5880  -10.6520   38.3310 O.2   176  GLU176     -0.2715
     85  CB        50.8610   -9.4960   39.4620 C.3   176  GLU176      0.0429
     86  CG        50.4780   -8.3930   40.4430 C.3   176  GLU176      0.1163
     87  CD        51.6300   -7.5810   41.0120 C.2   176  GLU176      0.3649
     88  OE1       51.8300   -6.4310   40.5510 O.co2 176  GLU176     -0.2457
     89  OE2       52.3480   -8.1040   41.8990 O.co2 176  GLU176     -0.2457
     90  N         52.1970  -10.6680   36.5380 N.am  177  ASP177     -0.1957
     91  CA        52.8310  -11.8050   35.8780 C.3   177  ASP177      0.1840
     92  C         53.6420  -11.3260   34.6780 C.2   177  ASP177      0.2621
     93  O         53.0510  -10.7440   33.7740 O.2   177  ASP177     -0.2715
     94  CB        51.7330  -12.7970   35.4480 C.3   177  ASP177      0.1450
     95  CG        52.2410  -14.0510   34.7670 C.2   177  ASP177      0.3671
     96  OD1       52.6110  -14.9990   35.4760 O.co2 177  ASP177     -0.2456
     97  OD2       52.2740  -14.0800   33.5230 O.co2 177  ASP177     -0.2456
     98  N         54.9760  -11.5790   34.6610 N.am  178  GLU178     -0.1977
     99  CA        55.9010  -11.1800   33.5790 C.3   178  GLU178      0.1602
    100  C         55.3920  -11.4090   32.1500 C.2   178  GLU178      0.2287
    101  O         55.3640  -10.4610   31.3630 O.2   178  GLU178     -0.2864
    102  CB        57.3210  -11.7660   33.7550 C.3   178  GLU178      0.0415
    103  CG        58.3040  -11.2870   32.6910 C.3   178  GLU178      0.1163
    104  CD        59.6380  -11.9860   32.6300 C.2   178  GLU178      0.3649
    105  OE1       60.2690  -12.2230   33.6920 O.co2 178  GLU178     -0.2457
    106  OE2       60.0380  -12.3130   31.4920 O.co2 178  GLU178     -0.2457
    107  N         51.9320   -9.5850   31.5450 N.3   181  CYS181     -0.1221
    108  CA        52.1900   -8.1520   31.5430 C.3   181  CYS181      0.1808
    109  C         52.7530   -7.7400   30.1730 C.2   181  CYS181      0.2601
    110  O         52.1970   -6.8600   29.5350 O.2   181  CYS181     -0.2717
    111  CB        53.1340   -7.7790   32.6800 C.3   181  CYS181      0.0970
    112  SG        53.6570   -6.0490   32.6600 S.3   181  CYS181     -0.0800
    113  N         53.8250   -8.4020   29.7280 N.am  182  LEU182     -0.1979
    114  CA        54.5010   -8.1770   28.4520 C.3   182  LEU182      0.1596
    115  C         53.5750   -8.3500   27.2510 C.2   182  LEU182      0.2287
    116  O         53.5580   -7.4920   26.3670 O.2   182  LEU182     -0.2864
    117  CB        55.7830   -9.0220   28.3350 C.3   182  LEU182      0.0297
    118  CG        56.9870   -8.7020   29.3250 C.3   182  LEU182      0.0022
    119  CD1       58.2900   -9.3090   28.8500 C.3   182  LEU182      0.0001
    120  CD2       57.1520   -7.2120   29.7040 C.3   182  LEU182      0.0001
@<TRIPOS>BOND
     1    58    57    2
     2    57    56    1
     3     1     2    1
     4    49    48    2
     5     2     3    1
     6     2     5    1
     7    12    11    2
     8   116   115    2
     9    56    55    1
    10    56    59    1
    11     3     9   am
    12     3     4    2
    13    48    55   am
    14    48    47    1
    15     7     6    2
    16     9    10    1
    17    20    19    2
    18   115   114    1
    19     5     6    1
    20    59    60    1
    21    11    10    1
    22    11    17   am
    23     6     8   am
    24    10    13    1
    25    13    14    1
    26    19    18    1
    27    47    46    1
    28    47    50    1
    29    18    17    1
    30    18    21    1
    31   117   114    1
    32   117   118    1
    33    60    61   ar
    34    60    62   ar
    35    61    63   ar
    36   114   113    1
    37    15    14    1
    38    14    16    1
    39   119   118    1
    40    51    50    1
    41    51    52    1
    42    23    21    1
    43    62    64   ar
    44    63    65   ar
    45   118   120    1
    46    21    22    1
    47    41    40    2
    48   110   109    2
    49   113   109   am
    50    54    52   ar
    51    52    53   ar
    52    64    65   ar
    53   109   108    1
    54    65    66    1
    55    40    39    1
    56   101   100    2
    57    44    43    1
    58    44    45    1
    59    35    34    2
    60   106   104   ar
    61   108   107    1
    62   108   111    1
    63    43    42    1
    64    39    42    1
    65    39    38    1
    66   100    99    1
    67    34    38   am
    68    34    33    1
    69   104   103    1
    70   104   105   ar
    71   112   111    1
    72   103   102    1
    73    80    78   ar
    74    80    79   ar
    75    78    76   ar
    76    79    77   ar
    77    27    26    2
    78    97    95   ar
    79    33    32    1
    80    33    36    1
    81    99   102    1
    82    99    98    1
    83    93    92    2
    84    76    75   ar
    85    76    74   ar
    86    77    74   ar
    87    26    25    1
    88    75    73   ar
    89    98    92   am
    90    92    91    1
    91    74    72   ar
    92    36    37    1
    93    95    94    1
    94    95    96   ar
    95    28    25    1
    96    28    29    1
    97    94    91    1
    98    67    68    1
    99    73    72   ar
   100    25    24    1
   101    72    71    1
   102    91    90    1
   103    68    71    1
   104    68    69    1
   105    29    30    1
   106    90    83   am
   107    30    31    1
   108    69    70    2
   109    69    81   am
   110    81    82    1
   111    83    84    2
   112    83    82    1
   113    82    85    1
   114    85    86    1
   115    86    87    1
   116    88    87   ar
   117    87    89   ar
