@<TRIPOS>MOLECULE
tmp/4fmwA00.pdb
 183 175 0 0 0
SMALL
GASTEIGER

@<TRIPOS>ATOM
      1  N         16.4370   27.4120   46.8350 N.3    90  TYR90      -0.1227
      2  CA        15.9410   26.4450   47.8060 C.3    90  TYR90       0.1736
      3  C         14.5720   26.8740   48.2950 C.2    90  TYR90       0.2595
      4  O         14.4300   27.9590   48.8600 O.2    90  TYR90      -0.2718
      5  CB        16.9120   26.2640   48.9910 C.3    90  TYR90       0.0548
      6  CG        16.9080   24.8610   49.5680 C.ar   90  TYR90      -0.0200
      7  CD1       18.0570   24.0760   49.5510 C.ar   90  TYR90      -0.0009
      8  CD2       15.7450   24.3050   50.1000 C.ar   90  TYR90      -0.0009
      9  CE1       18.0560   22.7790   50.0670 C.ar   90  TYR90       0.0417
     10  CE2       15.7240   22.9990   50.5880 C.ar   90  TYR90       0.0417
     11  CZ        16.8840   22.2430   50.5790 C.ar   90  TYR90       0.1957
     12  OH        16.8690   20.9690   51.0820 O.3    90  TYR90      -0.2866
     13  N         13.5600   26.0250   48.0790 N.am   91  LEU91      -0.1966
     14  CA        12.2050   26.3150   48.5400 C.3    91  LEU91       0.1728
     15  C         12.1320   26.0060   50.0280 C.2    91  LEU91       0.2617
     16  O         12.5150   24.9140   50.4370 O.2    91  LEU91      -0.2715
     17  CB        11.1500   25.5040   47.7550 C.3    91  LEU91       0.0311
     18  CG        11.0500   25.7670   46.2410 C.3    91  LEU91       0.0022
     19  CD1       10.2860   24.6570   45.5560 C.3    91  LEU91       0.0001
     20  CD2       10.4050   27.1220   45.9420 C.3    91  LEU91       0.0001
     21  N         11.7170   26.9910   50.8410 N.am   92  THR92      -0.1937
     22  CA        11.6000   26.8500   52.3020 C.3    92  THR92       0.2028
     23  C         10.5880   27.8450   52.8590 C.2    92  THR92       0.2643
     24  O         10.6300   29.0220   52.5160 O.2    92  THR92      -0.2714
     25  CB        12.9790   26.9340   53.0260 C.3    92  THR92       0.1808
     26  OG1       12.7720   27.0250   54.4400 O.3    92  THR92      -0.2208
     27  CG2       13.8570   28.1000   52.5430 C.3    92  THR92       0.0379
     28  N          9.7000   27.3620   53.7480 N.am   93  SER93      -0.1935
     29  CA         8.6460   28.1440   54.4130 C.3    93  SER93       0.2055
     30  C          9.1980   29.2590   55.3200 C.2    93  SER93       0.2643
     31  O          8.4830   30.2200   55.6110 O.2    93  SER93      -0.2714
     32  CB         7.7550   27.2180   55.2370 C.3    93  SER93       0.2130
     33  OG         8.5250   26.4990   56.1890 O.3    93  SER93      -0.2179
     34  N         10.4590   29.1170   55.7690 N.am   94  ASP94      -0.1971
     35  CA        11.1190   30.0540   56.6750 C.3    94  ASP94       0.1709
     36  C         11.8780   31.1820   55.9470 C.2    94  ASP94       0.2293
     37  O         12.3560   32.1070   56.6100 O.2    94  ASP94      -0.2864
     38  CB        12.0440   29.2930   57.6360 C.3    94  ASP94       0.1436
     39  CG        11.3040   28.2390   58.4370 C.2    94  ASP94       0.3671
     40  OD1       10.4610   28.6170   59.2780 O.co2  94  ASP94      -0.2456
     41  OD2       11.5260   27.0380   58.1810 O.co2  94  ASP94      -0.2456
     42  N         13.5600   21.0720   47.0040 N.3   110  ILE110     -0.1231
     43  CA        12.6160   20.7000   48.0540 C.3   110  ILE110      0.1692
     44  C         13.4000   19.8010   49.0160 C.2   110  ILE110      0.2592
     45  O         14.0750   18.8670   48.5720 O.2   110  ILE110     -0.2718
     46  CB        11.3390   19.9810   47.5020 C.3   110  ILE110      0.0266
     47  CG1       10.6370   20.8230   46.4050 C.3   110  ILE110      0.0019
     48  CG2       10.3530   19.6410   48.6490 C.3   110  ILE110      0.0020
     49  CD1        9.5860   20.0290   45.5380 C.3   110  ILE110      0.0001
     50  N         13.3180   20.0970   50.3070 N.am  111  GLY111     -0.1957
     51  CA        13.9880   19.3040   51.3260 C.3   111  GLY111      0.1869
     52  C         13.3020   17.9690   51.5120 C.2   111  GLY111      0.2309
     53  O         12.1120   17.9290   51.8290 O.2   111  GLY111     -0.2863
     54  N         12.5480   15.7820   53.6270 N.3   113  LEU113     -0.1245
     55  CA        12.4170   15.6610   55.0720 C.3   113  LEU113      0.1561
     56  C         10.9630   15.6440   55.5280 C.2   113  LEU113      0.2260
     57  O         10.1590   16.4770   55.1060 O.2   113  LEU113     -0.2867
     58  CB        13.1790   16.8440   55.7320 C.3   113  LEU113      0.0270
     59  CG        13.2520   16.9250   57.2700 C.3   113  LEU113      0.0019
     60  CD1       14.1850   15.8620   57.8460 C.3   113  LEU113      0.0001
     61  CD2       13.7350   18.3000   57.7090 C.3   113  LEU113      0.0001
     62  N          9.6590   16.3210   58.6900 N.3   115  ASP115     -0.1239
     63  CA        10.0750   17.0610   59.8810 C.3   115  ASP115      0.1674
     64  C          9.2520   16.8450   61.1630 C.2   115  ASP115      0.2266
     65  O          9.8630   16.6530   62.2180 O.2   115  ASP115     -0.2867
     66  CB        10.1120   18.5660   59.5620 C.3   115  ASP115      0.1410
     67  CG        10.6930   19.4060   60.6910 C.2   115  ASP115      0.3668
     68  OD1       10.7570   18.9170   61.8430 O.co2 115  ASP115     -0.2456
     69  OD2       11.1060   20.5850   60.4350 O.co2 115  ASP115     -0.2456
     70  N          7.6610   19.3150   62.5210 N.3   117  ASN117     -0.1240
     71  CA         7.9950   20.6230   63.1170 C.3   117  ASN117      0.1653
     72  C          9.1280   20.5160   64.1800 C.2   117  ASN117      0.2266
     73  O          9.1800   21.3210   65.1180 O.2   117  ASN117     -0.2867
     74  CB         6.7430   21.3200   63.6840 C.3   117  ASN117      0.1155
     75  CG         5.8300   21.8520   62.6490 C.2   117  ASN117      0.2627
     76  OD1        6.2570   22.7540   61.9160 O.2   117  ASN117     -0.2716
     77  ND2        4.6560   21.3580   62.5320 N.am  117  ASN117     -0.0877
     78  N         12.6850   20.1410   63.1420 N.3   119  HIS119     -0.1226
     79  CA        13.8290   20.8480   62.5700 C.3   119  HIS119      0.1752
     80  C         13.3690   22.1530   61.9010 C.2   119  HIS119      0.2596
     81  O         13.5170   22.3240   60.6870 O.2   119  HIS119     -0.2718
     82  CB        14.5990   19.9380   61.5950 C.3   119  HIS119      0.0759
     83  CG        15.1770   18.7200   62.2410 C.ar  119  HIS119      0.0818
     84  ND1       14.5600   17.4870   62.1330 N.ar  119  HIS119     -0.2268
     85  CD2       16.2930   18.5880   62.9940 C.ar  119  HIS119      0.1154
     86  CE1       15.3240   16.6450   62.8100 C.ar  119  HIS119      0.1986
     87  NE2       16.3740   17.2640   63.3520 N.ar  119  HIS119     -0.2212
     88  N         12.7960   23.0710   62.7090 N.am  120  LYS120     -0.1966
     89  CA        12.2910   24.3650   62.2440 C.3   120  LYS120      0.1728
     90  C         13.4320   25.2730   61.7790 C.2   120  LYS120      0.2617
     91  O         14.3960   25.4870   62.5180 O.2   120  LYS120     -0.2715
     92  CB        11.4520   25.0480   63.3380 C.3   120  LYS120      0.0311
     93  CG        10.2720   24.2300   63.8470 C.3   120  LYS120      0.0038
     94  CD         9.0750   24.2750   62.9310 C.3   120  LYS120      0.0206
     95  CE         8.4860   25.6700   62.8810 C.3   120  LYS120      0.1093
     96  NZ         7.2830   25.6650   62.0080 N.3   120  LYS120     -0.1314
     97  N         13.3230   25.7530   60.5420 N.am  121  GLY121     -0.1940
     98  CA        14.3080   26.6320   59.9160 C.3   121  GLY121      0.2014
     99  C         15.5880   25.9610   59.4510 C.2   121  GLY121      0.2639
    100  O         16.5540   26.6600   59.1430 O.2   121  GLY121     -0.2714
    101  N         15.6030   24.6060   59.3680 N.am  122  LEU122     -0.1963
    102  CA        16.7810   23.8210   58.9680 C.3   122  LEU122      0.1728
    103  C         17.2090   24.0530   57.5100 C.2   122  LEU122      0.2616
    104  O         18.3840   24.3510   57.2820 O.2   122  LEU122     -0.2715
    105  CB        16.5630   22.3160   59.2340 C.3   122  LEU122      0.0311
    106  CG        17.7480   21.3750   58.9490 C.3   122  LEU122      0.0022
    107  CD1       18.8310   21.4860   60.0250 C.3   122  LEU122      0.0001
    108  CD2       17.2790   19.9490   58.8380 C.3   122  LEU122      0.0001
    109  N         16.2810   23.8970   56.5300 N.am  123  THR123     -0.1951
    110  CA        16.5920   24.0860   55.0990 C.3   123  THR123      0.1897
    111  C         16.9640   25.5380   54.7900 C.2   123  THR123      0.2313
    112  O         17.8230   25.7710   53.9430 O.2   123  THR123     -0.2863
    113  CB        15.4580   23.6020   54.1910 C.3   123  THR123      0.1794
    114  OG1       14.2450   24.2570   54.5520 O.3   123  THR123     -0.2208
    115  CG2       15.2830   22.0880   54.2220 C.3   123  THR123      0.0378
    116  N          9.9240   31.2560   49.7260 N.3   136  GLN136     -0.1231
    117  CA         8.7580   30.5360   50.2390 C.3   136  GLN136      0.1698
    118  C          7.6240   30.6370   49.2270 C.2   136  GLN136      0.2592
    119  O          7.5790   31.6010   48.4550 O.2   136  GLN136     -0.2718
    120  CB         8.3190   31.0530   51.6320 C.3   136  GLN136      0.0381
    121  CG         7.8160   32.4940   51.6800 C.3   136  GLN136      0.0905
    122  CD         7.0760   32.7750   52.9600 C.2   136  GLN136      0.2608
    123  OE1        5.8490   32.6710   53.0270 O.2   136  GLN136     -0.2717
    124  NE2        7.8030   33.1460   54.0030 N.am  136  GLN136     -0.0878
    125  N          6.7100   29.6480   49.2270 N.am  137  LEU137     -0.1980
    126  CA         5.5460   29.6510   48.3380 C.3   137  LEU137      0.1596
    127  C          4.6100   30.8090   48.7420 C.2   137  LEU137      0.2287
    128  O          4.5100   31.1000   49.9400 O.2   137  LEU137     -0.2864
    129  CB         4.8030   28.3010   48.3800 C.3   137  LEU137      0.0297
    130  CG         5.5150   27.0990   47.7330 C.3   137  LEU137      0.0022
    131  CD1        4.8660   25.8000   48.1550 C.3   137  LEU137      0.0001
    132  CD2        5.5320   27.2030   46.2040 C.3   137  LEU137      0.0001
    133  N          1.7900   31.4700   49.8720 N.3   139  LEU139     -0.1245
    134  CA         0.6100   30.9600   50.5850 C.3   139  LEU139      0.1561
    135  C         -0.2690   32.0720   51.1800 C.2   139  LEU139      0.2260
    136  O         -1.4700   31.8580   51.3530 O.2   139  LEU139     -0.2867
    137  CB         1.0120   29.9570   51.6850 C.3   139  LEU139      0.0270
    138  CG         1.5730   28.6010   51.2230 C.3   139  LEU139      0.0019
    139  CD1        2.1900   27.8500   52.3850 C.3   139  LEU139      0.0001
    140  CD2        0.4960   27.7360   50.5620 C.3   139  LEU139      0.0001
    141  N          2.5620   26.6690   58.3650 N.3   145  LYS145     -0.1231
    142  CA         2.4490   26.8550   56.9080 C.3   145  LYS145      0.1693
    143  C          3.3660   25.8530   56.1630 C.2   145  LYS145      0.2592
    144  O          3.4850   25.9060   54.9330 O.2   145  LYS145     -0.2718
    145  CB         2.7920   28.3110   56.5190 C.3   145  LYS145      0.0285
    146  CG         1.8600   29.3570   57.1420 C.3   145  LYS145      0.0035
    147  CD         1.3010   30.3330   56.1120 C.3   145  LYS145      0.0206
    148  CE         2.1020   31.6110   56.0170 C.3   145  LYS145      0.1093
    149  NZ         1.4660   32.5880   55.0970 N.3   145  LYS145     -0.1314
    150  N          3.9960   24.9370   56.9280 N.am  146  VAL146     -0.1966
    151  CA         4.9120   23.8940   56.4560 C.3   146  VAL146      0.1727
    152  C          4.1150   22.8200   55.7060 C.2   146  VAL146      0.2616
    153  O          3.2310   22.1840   56.2870 O.2   146  VAL146     -0.2715
    154  CB         5.7470   23.3070   57.6380 C.3   146  VAL146      0.0290
    155  CG1        6.5910   22.1170   57.1930 C.3   146  VAL146      0.0023
    156  CG2        6.6260   24.3790   58.2810 C.3   146  VAL146      0.0023
    157  N          4.4350   22.6280   54.4160 N.am  147  LEU147     -0.1963
    158  CA         3.7510   21.6610   53.5550 C.3   147  LEU147      0.1728
    159  C          4.5780   20.4010   53.3370 C.2   147  LEU147      0.2616
    160  O          5.8050   20.4380   53.4560 O.2   147  LEU147     -0.2715
    161  CB         3.3750   22.2970   52.1900 C.3   147  LEU147      0.0311
    162  CG         2.7750   23.7260   52.1920 C.3   147  LEU147      0.0022
    163  CD1        2.5810   24.2290   50.7860 C.3   147  LEU147      0.0001
    164  CD2        1.4600   23.7970   52.9650 C.3   147  LEU147      0.0001
    165  N          3.9020   19.2810   53.0090 N.am  148  ALA148     -0.1963
    166  CA         4.5440   17.9960   52.7290 C.3   148  ALA148      0.1728
    167  C          5.3150   18.0750   51.4070 C.2   148  ALA148      0.2616
    168  O          4.9870   18.9090   50.5560 O.2   148  ALA148     -0.2715
    169  CB         3.4960   16.8930   52.6620 C.3   148  ALA148      0.0334
    170  N          6.3560   17.2220   51.2550 N.am  149  VAL149     -0.1977
    171  CA         7.2340   17.1400   50.0780 C.3   149  VAL149      0.1596
    172  C          6.4140   17.0730   48.7690 C.2   149  VAL149      0.2287
    173  O          6.6410   17.8920   47.8730 O.2   149  VAL149     -0.2864
    174  CB         8.2360   15.9490   50.2090 C.3   149  VAL149      0.0276
    175  CG1        8.9460   15.6530   48.8880 C.3   149  VAL149      0.0022
    176  CG2        9.2510   16.2050   51.3190 C.3   149  VAL149      0.0022
    177  N          4.3000   20.4030   47.8170 N.3   152  VAL152     -0.1245
    178  CA         5.1320   21.4470   47.1920 C.3   152  VAL152      0.1561
    179  C          5.3980   21.0900   45.7070 C.2   152  VAL152      0.2260
    180  O          5.2130   21.9430   44.8370 O.2   152  VAL152     -0.2867
    181  CB         6.4470   21.7040   47.9900 C.3   152  VAL152      0.0252
    182  CG1        7.3260   22.7590   47.3090 C.3   152  VAL152      0.0019
    183  CG2        6.1390   22.1180   49.4270 C.3   152  VAL152      0.0019
@<TRIPOS>BOND
     1   180   179    2
     2    49    47    1
     3    19    18    1
     4   179   178    1
     5    20    18    1
     6   132   130    1
     7    18    17    1
     8    47    46    1
     9     1     2    1
    10    42    43    1
    11   178   177    1
    12   178   181    1
    13   182   181    1
    14    46    43    1
    15    46    48    1
    16   130   131    1
    17   130   129    1
    18    17    14    1
    19     2     3    1
    20     2     5    1
    21   173   172    2
    22   181   183    1
    23    43    44    1
    24    13     3   am
    25    13    14    1
    26     3     4    2
    27   126   129    1
    28   126   127    1
    29   126   125    1
    30   119   118    2
    31    14    15    1
    32    45    44    2
    33   127   128    2
    34   172   171    1
    35   175   174    1
    36     5     6    1
    37    44    50   am
    38   125   118   am
    39   118   117    1
    40     7     6   ar
    41     7     9   ar
    42     6     8   ar
    43   116   117    1
    44   133   134    1
    45    15    16    2
    46    15    21   am
    47     9    11   ar
    48   171   174    1
    49   171   170    1
    50     8    10   ar
    51   174   176    1
    52   117   120    1
    53    50    51    1
    54   168   167    2
    55   140   138    1
    56    11    10   ar
    57    11    12    1
    58   134   135    1
    59   134   137    1
    60   163   162    1
    61    21    22    1
    62   135   136    2
    63   138   137    1
    64   138   139    1
    65   170   167   am
    66    51    52    1
    67   167   166    1
    68    52    53    2
    69   120   121    1
    70   121   122    1
    71   161   162    1
    72   161   158    1
    73   162   164    1
    74    22    23    1
    75    22    25    1
    76    24    23    2
    77    27    25    1
    78   169   166    1
    79   166   165    1
    80    23    28   am
    81   122   123    2
    82   122   124   am
    83   165   159   am
    84    25    26    1
    85   159   160    2
    86   159   158    1
    87   158   157    1
    88    54    55    1
    89    28    29    1
    90   112   111    2
    91   113   115    1
    92   113   114    1
    93   113   110    1
    94    29    32    1
    95    29    30    1
    96   157   152   am
    97   111   110    1
    98   144   143    2
    99    55    56    1
   100    55    58    1
   101   149   148    1
   102   110   109    1
   103    57    56    2
   104    32    33    1
   105    30    31    2
   106    30    34   am
   107   152   153    2
   108   152   151    1
   109    58    59    1
   110    34    35    1
   111    36    37    2
   112    36    35    1
   113   148   147    1
   114   147   146    1
   115   143   142    1
   116   143   150   am
   117   151   150    1
   118   151   154    1
   119   145   142    1
   120   145   146    1
   121   109   103   am
   122    35    38    1
   123   142   141    1
   124   155   154    1
   125    59    61    1
   126    59    60    1
   127   104   103    2
   128   103   102    1
   129    38    39    1
   130   154   156    1
   131    41    39   ar
   132    39    40   ar
   133    62    63    1
   134   108   106    1
   135   106   105    1
   136   106   107    1
   137   102   105    1
   138   102   101    1
   139   100    99    2
   140   101    99   am
   141    99    98    1
   142    66    63    1
   143    66    67    1
   144    63    64    1
   145    98    97    1
   146    69    67   ar
   147    97    90   am
   148    81    80    2
   149    67    68   ar
   150    64    65    2
   151    82    83    1
   152    82    79    1
   153    90    89    1
   154    90    91    2
   155    80    79    1
   156    80    88   am
   157    76    75    2
   158    96    95    1
   159    84    83   ar
   160    84    86   ar
   161    83    85   ar
   162    89    88    1
   163    89    92    1
   164    70    71    1
   165    77    75   am
   166    79    78    1
   167    75    74    1
   168    86    87   ar
   169    95    94    1
   170    94    93    1
   171    85    87   ar
   172    71    74    1
   173    71    72    1
   174    92    93    1
   175    72    73    2
