@<TRIPOS>MOLECULE
tmp/4fmxB01.pdb
 114 106 0 0 0
SMALL
GASTEIGER

@<TRIPOS>ATOM
      1  N        -12.1400   35.2260    7.6700 N.3    69  VAL69      -0.1231
      2  CA       -11.3080   35.3380    8.8650 C.3    69  VAL69       0.1692
      3  C         -9.9750   36.0360    8.5880 C.2    69  VAL69       0.2592
      4  O         -9.5310   36.8610    9.3980 O.2    69  VAL69      -0.2718
      5  CB       -11.0710   33.9620    9.5420 C.3    69  VAL69       0.0266
      6  CG1      -10.3040   33.0190    8.6310 C.3    69  VAL69       0.0020
      7  CG2      -10.3460   34.1450   10.8550 C.3    69  VAL69       0.0020
      8  N         -9.3360   35.7240    7.4610 N.am   70  THR70      -0.1953
      9  CA        -8.1450   36.4690    7.0570 C.3    70  THR70       0.1897
     10  C         -8.4650   37.3480    5.8540 C.2    70  THR70       0.2313
     11  O         -9.1030   36.9200    4.8920 O.2    70  THR70      -0.2863
     12  CB        -6.8930   35.5820    6.7820 C.3    70  THR70       0.1794
     13  OG1       -7.1150   34.7180    5.6540 O.3    70  THR70      -0.2208
     14  CG2       -6.5490   34.7600    7.9880 C.3    70  THR70       0.0378
     15  N         -4.9180   34.9010    3.6440 N.3    74  TYR74      -0.1241
     16  CA        -3.6060   34.2930    3.8010 C.3    74  TYR74       0.1605
     17  C         -3.3610   33.3850    2.6020 C.2    74  TYR74       0.2264
     18  O         -4.3020   32.8300    2.0560 O.2    74  TYR74      -0.2867
     19  CB        -3.5540   33.4160    5.0540 C.3    74  TYR74       0.0534
     20  CG        -3.3370   34.1070    6.3970 C.ar   74  TYR74      -0.0201
     21  CD1       -3.3330   35.4910    6.5260 C.ar   74  TYR74      -0.0009
     22  CD2       -3.1430   33.3460    7.5360 C.ar   74  TYR74      -0.0009
     23  CE1       -3.1320   36.0910    7.7590 C.ar   74  TYR74       0.0417
     24  CE2       -2.9440   33.9310    8.7730 C.ar   74  TYR74       0.0417
     25  CZ        -2.9390   35.2960    8.8750 C.ar   74  TYR74       0.1957
     26  OH        -2.7490   35.8690   10.1020 O.3    74  TYR74      -0.2866
     27  N         -8.3830   27.3410    6.3870 N.3    81  LEU81      -0.1245
     28  CA        -7.9230   27.2370    7.7570 C.3    81  LEU81       0.1561
     29  C         -8.9540   26.4530    8.5420 C.2    81  LEU81       0.2260
     30  O        -10.1170   26.8440    8.6110 O.2    81  LEU81      -0.2867
     31  CB        -7.7560   28.6170    8.3750 C.3    81  LEU81       0.0270
     32  CG        -6.6950   29.5240    7.7540 C.3    81  LEU81       0.0019
     33  CD1       -6.6960   30.8630    8.4650 C.3    81  LEU81       0.0001
     34  CD2       -5.3190   28.8850    7.8300 C.3    81  LEU81       0.0001
     35  N        -11.0170   27.9440   12.1460 N.3    84  ALA84      -0.1245
     36  CA       -11.0390   29.4000   12.0270 C.3    84  ALA84       0.1562
     37  C        -11.7430   29.8800   10.7650 C.2    84  ALA84       0.2260
     38  O        -12.3390   30.9500   10.7520 O.2    84  ALA84      -0.2867
     39  CB        -9.6250   29.9480   12.0670 C.3    84  ALA84       0.0290
     40  N         -3.0470   25.5720   10.6120 N.3   227  ILE227     -0.1245
     41  CA        -3.5200   26.5560   11.5750 C.3   227  ILE227      0.1561
     42  C         -2.7270   26.4750   12.8850 C.2   227  ILE227      0.2260
     43  O         -2.4750   27.5010   13.5180 O.2   227  ILE227     -0.2867
     44  CB        -5.0400   26.4520   11.8390 C.3   227  ILE227      0.0252
     45  CG1       -5.5020   27.6610   12.6600 C.3   227  ILE227      0.0019
     46  CG2       -5.3820   25.1400   12.5370 C.3   227  ILE227      0.0019
     47  CD1       -7.0050   27.7520   12.8510 C.3   227  ILE227      0.0001
     48  N          0.5060   28.3300   12.3580 N.3   230  LEU230     -0.1231
     49  CA         0.3330   29.7840   12.3800 C.3   230  LEU230      0.1693
     50  C          0.1740   30.3040   13.8000 C.2   230  LEU230      0.2592
     51  O          0.7480   31.3270   14.1620 O.2   230  LEU230     -0.2718
     52  CB        -0.8820   30.1960   11.5510 C.3   230  LEU230      0.0284
     53  CG        -0.7020   30.0440   10.0430 C.3   230  LEU230      0.0019
     54  CD1       -2.0660   30.0090    9.3750 C.3   230  LEU230      0.0001
     55  CD2        0.1300   31.2040    9.4950 C.3   230  LEU230      0.0001
     56  N         -0.6090   29.6010   14.6110 N.am  231  GLY231     -0.1957
     57  CA        -0.8400   30.0440   15.9790 C.3   231  GLY231      0.1869
     58  C          0.4520   30.1620   16.7700 C.2   231  GLY231      0.2309
     59  O          0.6350   31.1010   17.5570 O.2   231  GLY231     -0.2863
     60  N          1.3910   34.0900   15.6190 N.3   235  ASN235     -0.1240
     61  CA         0.7200   34.7480   16.7400 C.3   235  ASN235      0.1653
     62  C          1.5310   34.7890   18.0340 C.2   235  ASN235      0.2266
     63  O          1.7520   35.8490   18.6000 O.2   235  ASN235     -0.2867
     64  CB        -0.6330   34.0980   17.0180 C.3   235  ASN235      0.1155
     65  CG        -1.5470   34.1050   15.8140 C.2   235  ASN235      0.2627
     66  OD1       -1.0960   34.1240   14.6790 O.2   235  ASN235     -0.2716
     67  ND2       -2.8400   34.0670   16.0660 N.am  235  ASN235     -0.0877
     68  N         -3.3850   40.1610   17.2970 N.3   278  ALA278     -0.1231
     69  CA        -4.2970   39.6860   16.2470 C.3   278  ALA278      0.1694
     70  C         -5.4830   40.5940   15.9680 C.2   278  ALA278      0.2592
     71  O         -6.0090   41.2520   16.8630 O.2   278  ALA278     -0.2718
     72  CB        -4.8080   38.3020   16.5940 C.3   278  ALA278      0.0304
     73  N         -5.8860   40.6140   14.6950 N.am  279  MET279     -0.1965
     74  CA        -7.1890   41.1110   14.2710 C.3   279  MET279      0.1736
     75  C         -7.7870   39.9950   13.4350 C.2   279  MET279      0.2616
     76  O         -7.0580   39.1270   12.9960 O.2   279  MET279     -0.2715
     77  CB        -7.0560   42.3690   13.4090 C.3   279  MET279      0.0427
     78  CG        -6.4030   43.5360   14.1280 C.3   279  MET279      0.0599
     79  SD        -6.3870   45.0000   13.0770 S.3   279  MET279     -0.1393
     80  CE        -5.4370   46.1890   14.0320 C.3   279  MET279      0.0692
     81  N         -9.0990   40.0100   13.2260 N.am  280  VAL280     -0.1977
     82  CA        -9.7210   39.0430   12.3210 C.3   280  VAL280      0.1596
     83  C        -10.7530   39.7280   11.4370 C.2   280  VAL280      0.2287
     84  O        -11.2460   40.7980   11.7590 O.2   280  VAL280     -0.2864
     85  CB       -10.4100   37.8880   13.0780 C.3   280  VAL280      0.0276
     86  CG1       -9.4060   37.1180   13.9080 C.3   280  VAL280      0.0022
     87  CG2      -11.5530   38.4060   13.9510 C.3   280  VAL280      0.0022
     88  N         -9.3690   44.3700   17.1120 N.3   305  PHE305     -0.1241
     89  CA        -9.3300   44.0410   18.5310 C.3   305  PHE305      0.1605
     90  C         -8.4830   45.0150   19.3810 C.2   305  PHE305      0.2264
     91  O         -8.8960   45.3850   20.4740 O.2   305  PHE305     -0.2867
     92  CB        -8.8070   42.6090   18.7270 C.3   305  PHE305      0.0534
     93  CG        -9.7380   41.5160   18.2310 C.ar  305  PHE305     -0.0203
     94  CD1       -9.2110   40.3670   17.6570 C.ar  305  PHE305     -0.0042
     95  CD2      -11.1160   41.6130   18.3650 C.ar  305  PHE305     -0.0042
     96  CE1      -10.0340   39.3370   17.2310 C.ar  305  PHE305     -0.0003
     97  CE2      -11.9430   40.5870   17.9360 C.ar  305  PHE305     -0.0003
     98  CZ       -11.4040   39.4530   17.3630 C.ar  305  PHE305     -0.0000
     99  N         -1.9780   41.3950    9.8530 N.3   378  GLN378     -0.1231
    100  CA        -3.1660   40.9300   10.5510 C.3   378  GLN378      0.1698
    101  C         -2.7690   40.4110   11.9410 C.2   378  GLN378      0.2592
    102  O         -3.5650   40.4410   12.8720 O.2   378  GLN378     -0.2718
    103  CB        -3.9060   39.8520    9.7360 C.3   378  GLN378      0.0381
    104  CG        -5.0780   39.2570   10.4880 C.3   378  GLN378      0.0905
    105  CD        -6.0850   38.5240    9.6140 C.2   378  GLN378      0.2608
    106  OE1       -6.0390   38.5700    8.3680 O.2   378  GLN378     -0.2717
    107  NE2       -7.0250   37.8490   10.2740 N.am  378  GLN378     -0.0878
    108  N         -1.5270   39.9490   12.0590 N.am  379  VAL379     -0.1980
    109  CA        -0.8910   39.6900   13.3580 C.3   379  VAL379      0.1595
    110  C          0.3020   40.6320   13.3970 C.2   379  VAL379      0.2287
    111  O          1.1670   40.5670   12.5190 O.2   379  VAL379     -0.2864
    112  CB        -0.4500   38.2060   13.4790 C.3   379  VAL379      0.0276
    113  CG1        0.4260   37.9770   14.7190 C.3   379  VAL379      0.0022
    114  CG2       -1.6670   37.2880   13.4980 C.3   379  VAL379      0.0022
@<TRIPOS>BOND
     1    18    17    2
     2    17    16    1
     3    15    16    1
     4    16    19    1
     5    11    10    2
     6    19    20    1
     7    13    12    1
     8    10     9    1
     9    27    28    1
    10    20    21   ar
    11    20    22   ar
    12    21    23   ar
    13    12     9    1
    14    12    14    1
    15     9     8    1
    16     8     3   am
    17    22    24   ar
    18     1     2    1
    19    32    34    1
    20    32    31    1
    21    32    33    1
    22    28    31    1
    23    28    29    1
    24    23    25   ar
    25   106   105    2
    26    29    30    2
    27     3     2    1
    28     3     4    2
    29     6     5    1
    30    24    25   ar
    31     2     5    1
    32    25    26    1
    33    54    53    1
    34    55    53    1
    35     5     7    1
    36   105   107   am
    37   105   104    1
    38   103   104    1
    39   103   100    1
    40    99   100    1
    41    53    52    1
    42   100   101    1
    43    40    41    1
    44    38    37    2
    45    37    36    1
    46    83    84    2
    47    83    82    1
    48    52    49    1
    49    41    44    1
    50    41    42    1
    51    44    46    1
    52    44    45    1
    53   101   108   am
    54   101   102    2
    55    36    39    1
    56    36    35    1
    57   108   109    1
    58    82    85    1
    59    82    81    1
    60    48    49    1
    61    49    50    1
    62   111   110    2
    63    45    47    1
    64    42    43    2
    65    76    75    2
    66    79    80    1
    67    79    78    1
    68    85    86    1
    69    85    87    1
    70    81    75   am
    71   109   110    1
    72   109   112    1
    73    77    78    1
    74    77    74    1
    75    75    74    1
    76   112   114    1
    77   112   113    1
    78    50    51    2
    79    50    56   am
    80    74    73    1
    81    56    57    1
    82    66    65    2
    83    73    70   am
    84    60    61    1
    85    65    67   am
    86    65    64    1
    87    70    69    1
    88    70    71    2
    89    57    58    1
    90    69    72    1
    91    69    68    1
    92    61    64    1
    93    61    62    1
    94    58    59    2
    95    88    89    1
    96    96    98   ar
    97    96    94   ar
    98    98    97   ar
    99    94    93   ar
   100    97    95   ar
   101    62    63    2
   102    93    95   ar
   103    93    92    1
   104    89    92    1
   105    89    90    1
   106    90    91    2
