@<TRIPOS>MOLECULE
tmp/4fn2A00.pdb
 122 120 0 0 0
SMALL
GASTEIGER

@<TRIPOS>ATOM
      1  N         27.7490    6.6420   65.9040 N.3   110  TYR110     -0.1241
      2  CA        26.3130    6.3770   65.8640 C.3   110  TYR110      0.1605
      3  C         25.4850    7.6500   65.9370 C.2   110  TYR110      0.2264
      4  O         25.9370    8.6760   66.4040 O.2   110  TYR110     -0.2867
      5  CB        25.9010    5.4480   67.0190 C.3   110  TYR110      0.0534
      6  CG        25.9290    6.1510   68.3530 C.ar  110  TYR110     -0.0201
      7  CD1       27.0750    6.1860   69.1010 C.ar  110  TYR110     -0.0009
      8  CD2       24.8260    6.7870   68.8290 C.ar  110  TYR110     -0.0009
      9  CE1       27.1110    6.8430   70.3110 C.ar  110  TYR110      0.0417
     10  CE2       24.8440    7.4580   70.0390 C.ar  110  TYR110      0.0417
     11  CZ        25.9770    7.4910   70.7650 C.ar  110  TYR110      0.1957
     12  OH        25.9870    8.1720   71.9450 O.3   110  TYR110     -0.2866
     13  N         18.1320   11.7560   69.8190 N.3   120  PHE120     -0.1227
     14  CA        18.4150   11.8150   71.2220 C.3   120  PHE120      0.1736
     15  C         19.9390   11.7530   71.5010 C.2   120  PHE120      0.2596
     16  O         20.3750   12.1040   72.5930 O.2   120  PHE120     -0.2718
     17  CB        17.6200   10.7410   72.0090 C.3   120  PHE120      0.0547
     18  CG        17.8590    9.3370   71.5420 C.ar  120  PHE120     -0.0202
     19  CD1       19.0130    8.6530   71.9220 C.ar  120  PHE120     -0.0042
     20  CD2       16.9340    8.6920   70.7360 C.ar  120  PHE120     -0.0042
     21  CE1       19.2380    7.3680   71.5020 C.ar  120  PHE120     -0.0003
     22  CE2       17.1410    7.4050   70.3350 C.ar  120  PHE120     -0.0003
     23  CZ        18.3080    6.7400   70.6840 C.ar  120  PHE120     -0.0000
     24  N         20.7370   11.3420   70.5230 N.am  121  GLY121     -0.1957
     25  CA        22.1600   11.0780   70.8090 C.3   121  GLY121      0.1869
     26  C         22.9910   10.8790   69.5850 C.2   121  GLY121      0.2309
     27  O         22.4820   10.4470   68.5190 O.2   121  GLY121     -0.2863
     28  N         32.4980    5.8120   70.1960 N.3   130  PHE130     -0.1241
     29  CA        32.0280    5.0250   71.3260 C.3   130  PHE130      0.1605
     30  C         32.6080    3.6060   71.2660 C.2   130  PHE130      0.2264
     31  O         32.4120    2.8730   70.2820 O.2   130  PHE130     -0.2867
     32  CB        30.4930    4.9680   71.3020 C.3   130  PHE130      0.0534
     33  CG        29.8920    4.3380   72.5080 C.ar  130  PHE130     -0.0203
     34  CD1       29.8010    5.0400   73.6930 C.ar  130  PHE130     -0.0042
     35  CD2       29.4800    3.0330   72.4820 C.ar  130  PHE130     -0.0042
     36  CE1       29.2940    4.4460   74.8340 C.ar  130  PHE130     -0.0003
     37  CE2       28.9410    2.4320   73.6070 C.ar  130  PHE130     -0.0003
     38  CZ        28.8510    3.1380   74.7890 C.ar  130  PHE130     -0.0000
     39  N         27.2160   -3.8480   78.5850 N.3   138  MET138     -0.1230
     40  CA        27.4590   -2.4570   78.9660 C.3   138  MET138      0.1702
     41  C         26.7120   -1.4660   78.0770 C.2   138  MET138      0.2592
     42  O         26.8140   -0.2580   78.2380 O.2   138  MET138     -0.2718
     43  CB        28.9770   -2.1710   78.8820 C.3   138  MET138      0.0401
     44  CG        29.8310   -3.1900   79.5970 C.3   138  MET138      0.0596
     45  SD        29.8740   -2.8150   81.3400 S.3   138  MET138     -0.1393
     46  CE        30.8610   -1.3060   81.1710 C.3   138  MET138      0.0692
     47  N         25.9780   -1.9880   77.1150 N.am  139  VAL139     -0.1966
     48  CA        25.0870   -1.1970   76.3120 C.3   139  VAL139      0.1727
     49  C         23.7210   -1.8760   76.2830 C.2   139  VAL139      0.2616
     50  O         23.5820   -2.9960   76.7440 O.2   139  VAL139     -0.2715
     51  CB        25.6250   -1.0630   74.8860 C.3   139  VAL139      0.0290
     52  CG1       26.9570   -0.3280   74.9020 C.3   139  VAL139      0.0023
     53  CG2       25.7560   -2.4470   74.2090 C.3   139  VAL139      0.0023
     54  N         22.7440   -1.1910   75.7140 N.am  140  ILE140     -0.1977
     55  CA        21.4020   -1.7440   75.5600 C.3   140  ILE140      0.1596
     56  C         21.4610   -3.0450   74.7460 C.2   140  ILE140      0.2287
     57  O         22.3100   -3.2120   73.8830 O.2   140  ILE140     -0.2864
     58  CB        20.4110   -0.7060   74.9400 C.3   140  ILE140      0.0276
     59  CG1       20.9230   -0.1830   73.6180 C.3   140  ILE140      0.0022
     60  CG2       20.1620    0.4510   75.9290 C.3   140  ILE140      0.0022
     61  CD1       19.9620    0.7170   72.8630 C.3   140  ILE140      0.0001
     62  N         21.9330   -3.2620   70.8910 N.3   143  TRP143     -0.1241
     63  CA        23.2990   -3.0350   70.4290 C.3   143  TRP143      0.1605
     64  C         24.1730   -4.2230   70.5890 C.2   143  TRP143      0.2264
     65  O         24.8720   -4.5490   69.6550 O.2   143  TRP143     -0.2867
     66  CB        23.9120   -1.9010   71.1630 C.3   143  TRP143      0.0550
     67  CG        23.7000   -0.5720   70.5370 C.ar  143  TRP143      0.0003
     68  CD1       22.4960    0.0440   70.1840 C.ar  143  TRP143      0.0946
     69  CD2       24.7400    0.3410   70.1910 C.ar  143  TRP143      0.0152
     70  NE1       22.7440    1.2770   69.6430 N.ar  143  TRP143     -0.2442
     71  CE2       24.0890    1.5280   69.6500 C.ar  143  TRP143      0.0810
     72  CE3       26.1340    0.3180   70.3100 C.ar  143  TRP143      0.0012
     73  CZ2       24.8160    2.6350   69.2260 C.ar  143  TRP143      0.0191
     74  CZ3       26.8540    1.4440   69.8620 C.ar  143  TRP143      0.0001
     75  CH2       26.1940    2.5720   69.3400 C.ar  143  TRP143      0.0015
     76  N         15.5310    0.7950   76.4490 N.3   166  TYR166     -0.1241
     77  CA        15.4180    1.3530   77.8010 C.3   166  TYR166      0.1605
     78  C         14.1180    0.9690   78.4580 C.2   166  TYR166      0.2264
     79  O         13.8540    1.3860   79.5520 O.2   166  TYR166     -0.2867
     80  CB        15.6520    2.9130   77.7570 C.3   166  TYR166      0.0534
     81  CG        17.1270    3.2230   77.5140 C.ar  166  TYR166     -0.0201
     82  CD1       18.0620    2.9510   78.4980 C.ar  166  TYR166     -0.0009
     83  CD2       17.5810    3.6840   76.2820 C.ar  166  TYR166     -0.0009
     84  CE1       19.3990    3.2020   78.2980 C.ar  166  TYR166      0.0417
     85  CE2       18.9210    3.9090   76.0550 C.ar  166  TYR166      0.0417
     86  CZ        19.8290    3.6580   77.0810 C.ar  166  TYR166      0.1957
     87  OH        21.1750    3.8380   76.9090 O.3   166  TYR166     -0.2866
     88  N         15.2700    7.1050   79.1660 N.3   171  ALA171     -0.1231
     89  CA        16.6340    7.5280   79.3900 C.3   171  ALA171      0.1694
     90  C         16.8800    8.9760   78.9580 C.2   171  ALA171      0.2592
     91  O         16.2640    9.4950   78.0380 O.2   171  ALA171     -0.2718
     92  CB        17.6240    6.5950   78.6740 C.3   171  ALA171      0.0304
     93  N         17.8200    9.5950   79.6430 N.am  172  GLY172     -0.1957
     94  CA        18.3790   10.8720   79.2330 C.3   172  GLY172      0.1869
     95  C         17.4810   12.0930   79.2560 C.2   172  GLY172      0.2309
     96  O         17.8420   13.1480   78.7050 O.2   172  GLY172     -0.2863
     97  N         14.8960   12.2290   77.6640 N.3   174  VAL174     -0.1231
     98  CA        14.4750   12.3200   76.2640 C.3   174  VAL174      0.1692
     99  C         13.7100   11.0930   75.7680 C.2   174  VAL174      0.2591
    100  O         12.6970   11.2480   75.1320 O.2   174  VAL174     -0.2718
    101  CB        15.6160   12.5930   75.2800 C.3   174  VAL174      0.0266
    102  CG1       15.0010   12.6980   73.8860 C.3   174  VAL174      0.0020
    103  CG2       16.3690   13.8880   75.6290 C.3   174  VAL174      0.0020
    104  N         14.1810    9.8780   76.0880 N.am  175  ILE175     -0.1980
    105  CA        13.5420    8.6670   75.6450 C.3   175  ILE175      0.1595
    106  C         12.5090    8.2930   76.7210 C.2   175  ILE175      0.2287
    107  O         12.8660    8.1440   77.8900 O.2   175  ILE175     -0.2864
    108  CB        14.5700    7.5110   75.5340 C.3   175  ILE175      0.0276
    109  CG1       15.6660    7.8220   74.4800 C.3   175  ILE175      0.0022
    110  CG2       13.8560    6.1900   75.2300 C.3   175  ILE175      0.0022
    111  CD1       16.7080    6.7160   74.3490 C.3   175  ILE175      0.0001
    112  N         18.7900    3.5140   65.4230 N.3   183  PHE183     -0.1241
    113  CA        20.2090    3.9330   65.3520 C.3   183  PHE183      0.1605
    114  C         20.7920    3.6450   64.0090 C.2   183  PHE183      0.2264
    115  O         20.4470    2.6430   63.3820 O.2   183  PHE183     -0.2867
    116  CB        21.1110    3.1900   66.3630 C.3   183  PHE183      0.0534
    117  CG        20.8570    3.5270   67.7850 C.ar  183  PHE183     -0.0203
    118  CD1       19.8830    2.8800   68.4960 C.ar  183  PHE183     -0.0042
    119  CD2       21.6690    4.4600   68.4440 C.ar  183  PHE183     -0.0042
    120  CE1       19.6800    3.1600   69.8570 C.ar  183  PHE183     -0.0003
    121  CE2       21.4920    4.7510   69.7880 C.ar  183  PHE183     -0.0003
    122  CZ        20.5080    4.1010   70.4980 C.ar  183  PHE183     -0.0000
@<TRIPOS>BOND
     1   115   114    2
     2   114   113    1
     3   113   112    1
     4   113   116    1
     5     2     1    1
     6     2     3    1
     7     2     5    1
     8     3     4    2
     9   116   117    1
    10     5     6    1
    11   117   119   ar
    12   117   118   ar
    13     6     8   ar
    14     6     7   ar
    15   119   121   ar
    16   118   120   ar
    17    27    26    2
    18     8    10   ar
    19     7     9   ar
    20    73    75   ar
    21    73    71   ar
    22    75    74   ar
    23    26    25    1
    24    70    71   ar
    25    70    68   ar
    26    71    69   ar
    27    65    64    2
    28   121   122   ar
    29    13    14    1
    30   120   122   ar
    31    74    72   ar
    32    10    11   ar
    33    68    67   ar
    34    69    72   ar
    35    69    67   ar
    36    28    29    1
    37    31    30    2
    38     9    11   ar
    39    22    23   ar
    40    22    20   ar
    41    63    64    1
    42    63    62    1
    43    63    66    1
    44    24    25    1
    45    24    15   am
    46    67    66    1
    47    23    21   ar
    48    20    18   ar
    49    11    12    1
    50    14    15    1
    51    14    17    1
    52    30    29    1
    53    32    29    1
    54    32    33    1
    55    15    16    2
    56    21    19   ar
    57    18    19   ar
    58    18    17    1
    59    35    33   ar
    60    35    37   ar
    61    33    34   ar
    62    61    59    1
    63    37    38   ar
    64    59    58    1
    65    34    36   ar
    66    57    56    2
    67   102   101    1
    68    53    51    1
    69   111   109    1
    70   109   108    1
    71    56    55    1
    72    38    36   ar
    73    51    52    1
    74    51    48    1
    75    58    55    1
    76    58    60    1
    77   100    99    2
    78   110   108    1
    79   101   103    1
    80   101    98    1
    81   108   105    1
    82    55    54    1
    83   105   104    1
    84   105   106    1
    85    54    49   am
    86    99   104   am
    87    99    98    1
    88    85    83   ar
    89    85    86   ar
    90    98    97    1
    91    83    81   ar
    92    49    48    1
    93    49    50    2
    94    48    47    1
    95    76    77    1
    96   106   107    2
    97    87    86    1
    98    86    84   ar
    99    47    41   am
   100    81    80    1
   101    81    82   ar
   102    80    77    1
   103    77    78    1
   104    91    90    2
   105    41    42    2
   106    41    40    1
   107    84    82   ar
   108    78    79    2
   109    39    40    1
   110    92    89    1
   111    96    95    2
   112    43    40    1
   113    43    44    1
   114    90    89    1
   115    90    93   am
   116    88    89    1
   117    94    95    1
   118    94    93    1
   119    44    45    1
   120    46    45    1
