@<TRIPOS>MOLECULE
tmp/4fn4A00.pdb
 201 191 0 0 0
SMALL
GASTEIGER

@<TRIPOS>ATOM
      1  N         46.4190   58.6050   11.3000 N.3    14  GLY14      -0.1225
      2  CA        46.3840   57.5150   10.3350 C.3    14  GLY14       0.1811
      3  C         45.9270   58.0700    8.9910 C.2    14  GLY14       0.2280
      4  O         45.2920   57.3690    8.2050 O.2    14  GLY14      -0.2866
      5  N         46.4130   56.4600    4.7770 N.3    17  SER17      -0.1202
      6  CA        45.7830   55.3400    4.0840 C.3    17  SER17       0.2020
      7  C         44.3500   55.0860    4.5300 C.2    17  SER17       0.2619
      8  O         43.8980   55.6250    5.5420 O.2    17  SER17      -0.2717
      9  CB        46.6180   54.0700    4.3250 C.3    17  SER17       0.2103
     10  OG        45.9860   52.9040    3.8170 O.3    17  SER17      -0.2182
     11  N         43.6520   54.2690    3.7460 N.am   18  GLY18      -0.1942
     12  CA        42.2910   53.8670    4.0530 C.3    18  GLY18       0.2014
     13  C         41.3160   54.9280    4.5190 C.2    18  GLY18       0.2639
     14  O         41.1590   55.9630    3.8810 O.2    18  GLY18      -0.2714
     15  N         40.6450   54.6400    5.6280 N.am   19  ILE19      -0.1963
     16  CA        39.6520   55.5380    6.2010 C.3    19  ILE19       0.1727
     17  C         40.2520   56.9100    6.5320 C.2    19  ILE19       0.2616
     18  O         39.6540   57.9400    6.2260 O.2    19  ILE19      -0.2715
     19  CB        39.0310   54.8930    7.4670 C.3    19  ILE19       0.0290
     20  CG1       38.2950   53.6070    7.0620 C.3    19  ILE19       0.0022
     21  CG2       38.0790   55.8730    8.1560 C.3    19  ILE19       0.0023
     22  CD1       37.7940   52.7600    8.2310 C.3    19  ILE19       0.0001
     23  N         41.4390   56.9160    7.1300 N.am   20  GLY20      -0.1955
     24  CA        42.0830   58.1700    7.4840 C.3    20  GLY20       0.1869
     25  C         42.3100   59.0670    6.2800 C.2    20  GLY20       0.2309
     26  O         42.0690   60.2760    6.3410 O.2    20  GLY20      -0.2863
     27  N         50.5070   60.8840   10.4270 N.3    38  GLU38      -0.1231
     28  CA        50.7710   59.5620    9.8710 C.3    38  GLU38       0.1699
     29  C         52.1650   59.0800   10.2470 C.2    38  GLU38       0.2592
     30  O         53.1110   59.8690   10.3170 O.2    38  GLU38      -0.2718
     31  CB        50.6040   59.6340    8.3470 C.3    38  GLU38       0.0402
     32  CG        51.1130   58.4440    7.5390 C.3    38  GLU38       0.1161
     33  CD        50.3990   57.1470    7.8570 C.2    38  GLU38       0.3649
     34  OE1       49.1420   57.1500    7.9440 O.co2  38  GLU38      -0.2457
     35  OE2       51.1010   56.1210    8.0090 O.co2  38  GLU38      -0.2457
     36  N         52.2800   57.7780   10.4910 N.am   39  LEU39      -0.1966
     37  CA        53.5410   57.1490   10.8720 C.3    39  LEU39       0.1728
     38  C         54.5270   57.0090    9.7070 C.2    39  LEU39       0.2616
     39  O         55.7290   57.2390    9.8690 O.2    39  LEU39      -0.2715
     40  CB        53.2600   55.7540   11.4430 C.3    39  LEU39       0.0311
     41  CG        54.4330   54.8670   11.8720 C.3    39  LEU39       0.0022
     42  CD1       54.9930   55.3460   13.1980 C.3    39  LEU39       0.0001
     43  CD2       53.9470   53.4250   12.0140 C.3    39  LEU39       0.0001
     44  N         54.0120   56.6300    8.5420 N.am   40  LEU40      -0.1977
     45  CA        54.8490   56.4110    7.3650 C.3    40  LEU40       0.1596
     46  C         55.0290   57.6510    6.5010 C.2    40  LEU40       0.2287
     47  O         54.0610   58.2480    6.0320 O.2    40  LEU40      -0.2864
     48  CB        54.2700   55.2660    6.5340 C.3    40  LEU40       0.0297
     49  CG        54.1150   53.9480    7.3040 C.3    40  LEU40       0.0022
     50  CD1       53.4760   52.8990    6.4090 C.3    40  LEU40       0.0001
     51  CD2       55.4760   53.4810    7.8020 C.3    40  LEU40       0.0001
     52  N         53.5680   57.7790    2.7430 N.3    43  ARG43      -0.1245
     53  CA        52.1130   57.9090    2.7760 C.3    43  ARG43       0.1563
     54  C         51.7290   59.3180    3.2170 C.2    43  ARG43       0.2260
     55  O         50.7990   59.9050    2.6810 O.2    43  ARG43      -0.2867
     56  CB        51.5030   56.8940    3.7440 C.3    43  ARG43       0.0307
     57  CG        51.6280   55.4630    3.2710 C.3    43  ARG43       0.0489
     58  CD        50.8800   54.5200    4.2050 C.3    43  ARG43       0.2205
     59  NE        50.8630   53.1570    3.6850 N.pl3  43  ARG43      -0.0865
     60  CZ        50.2490   52.1420    4.2850 C.cat  43  ARG43       0.5346
     61  NH1       49.6050   52.3390    5.4250 N.pl3  43  ARG43       0.1354
     62  NH2       50.2730   50.9330    3.7410 N.pl3  43  ARG43       0.1354
     63  N         54.2940   61.1220   12.8170 N.3    63  ALA63      -0.1231
     64  CA        54.3350   60.7450   14.2210 C.3    63  ALA63       0.1694
     65  C         53.7890   59.3480   14.5010 C.2    63  ALA63       0.2592
     66  O         53.0500   58.7780   13.6910 O.2    63  ALA63      -0.2718
     67  CB        53.5530   61.7840   15.0440 C.3    63  ALA63       0.0304
     68  N         54.1750   58.8070   15.6540 N.am   64  ASP64      -0.1960
     69  CA        53.7330   57.4910   16.1070 C.3    64  ASP64       0.1840
     70  C         52.7430   57.8020   17.2310 C.2    64  ASP64       0.2621
     71  O         53.1520   58.1890   18.3290 O.2    64  ASP64      -0.2715
     72  CB        54.9180   56.7010   16.6650 C.3    64  ASP64       0.1450
     73  CG        54.5390   55.2900   17.0870 C.2    64  ASP64       0.3671
     74  OD1       53.3510   55.0490   17.4030 O.co2  64  ASP64      -0.2456
     75  OD2       55.4380   54.4190   17.1130 O.co2  64  ASP64      -0.2456
     76  N         51.4490   57.6350   16.9650 N.am   65  VAL65      -0.1977
     77  CA        50.4440   57.9670   17.9730 C.3    65  VAL65       0.1596
     78  C         50.4980   57.1410   19.2540 C.2    65  VAL65       0.2287
     79  O         49.8440   57.4900   20.2380 O.2    65  VAL65      -0.2864
     80  CB        49.0030   57.9140   17.3770 C.3    65  VAL65       0.0276
     81  CG1       48.9110   58.8470   16.1550 C.3    65  VAL65       0.0022
     82  CG2       48.6360   56.4920   16.9910 C.3    65  VAL65       0.0022
     83  N         41.8400   58.0900   14.5700 N.3    91  ASN91      -0.1225
     84  CA        41.5680   57.0640   13.5810 C.3    91  ASN91       0.1785
     85  C         42.6180   55.9920   13.3410 C.2    91  ASN91       0.2597
     86  O         42.2780   54.8790   12.9640 O.2    91  ASN91      -0.2718
     87  CB        41.2220   57.7750   12.2730 C.3    91  ASN91       0.1169
     88  CG        41.1520   56.8380   11.1050 C.2    91  ASN91       0.2627
     89  OD1       42.1160   56.7050   10.3360 O.2    91  ASN91      -0.2716
     90  ND2       40.0180   56.1680   10.9610 N.am   91  ASN91      -0.0877
     91  N         43.8860   56.3180   13.5530 N.am   92  ALA92      -0.1966
     92  CA        44.9620   55.3540   13.3520 C.3    92  ALA92       0.1728
     93  C         44.7430   54.0750   14.1550 C.2    92  ALA92       0.2617
     94  O         44.2860   54.1050   15.2940 O.2    92  ALA92      -0.2715
     95  CB        46.2940   55.9740   13.7480 C.3    92  ALA92       0.0334
     96  N         45.0770   52.9410   13.5530 N.am   93  GLY93      -0.1940
     97  CA        44.9230   51.6850   14.2510 C.3    93  GLY93       0.2014
     98  C         45.5700   50.5790   13.4520 C.2    93  GLY93       0.2638
     99  O         45.8260   50.7540   12.2650 O.2    93  GLY93      -0.2714
    100  N         45.8490   49.4570   14.1130 N.am   94  ILE94      -0.1977
    101  CA        46.4510   48.2970   13.4690 C.3    94  ILE94       0.1596
    102  C         45.6900   47.0480   13.9040 C.2    94  ILE94       0.2287
    103  O         45.0080   47.0670   14.9330 O.2    94  ILE94      -0.2864
    104  CB        47.9310   48.1250   13.8920 C.3    94  ILE94       0.0276
    105  CG1       48.0350   48.0610   15.4210 C.3    94  ILE94       0.0022
    106  CG2       48.7680   49.2940   13.3520 C.3    94  ILE94       0.0022
    107  CD1       49.4200   47.6640   15.9440 C.3    94  ILE94       0.0001
    108  N         48.6740   51.5360   20.2910 N.3   115  VAL115     -0.1245
    109  CA        48.2690   52.1690   19.0410 C.3   115  VAL115      0.1561
    110  C         46.7610   52.4100   18.9230 C.2   115  VAL115      0.2260
    111  O         46.3210   53.4770   18.4860 O.2   115  VAL115     -0.2867
    112  CB        48.7060   51.3150   17.8320 C.3   115  VAL115      0.0252
    113  CG1       48.2120   51.9510   16.5450 C.3   115  VAL115      0.0019
    114  CG2       50.2280   51.1860   17.8090 C.3   115  VAL115      0.0019
    115  N         37.5310   56.2790   15.8130 N.3   142  THR142     -0.1203
    116  CA        37.2170   55.1850   14.9070 C.3   142  THR142      0.1994
    117  C         37.4110   53.8830   15.6820 C.2   142  THR142      0.2618
    118  O         38.5480   53.4570   15.9290 O.2   142  THR142     -0.2717
    119  CB        38.1420   55.1440   13.6630 C.3   142  THR142      0.1784
    120  OG1       38.1040   56.4060   12.9780 O.3   142  THR142     -0.2211
    121  CG2       37.6530   54.0580   12.6980 C.3   142  THR142      0.0376
    122  N         36.3020   53.2690   16.0820 N.am  143  ALA143     -0.1965
    123  CA        36.3500   52.0150   16.8140 C.3   143  ALA143      0.1728
    124  C         36.2230   50.8580   15.8110 C.2   143  ALA143      0.2616
    125  O         36.9690   50.7980   14.8450 O.2   143  ALA143     -0.2715
    126  CB        35.2240   51.9600   17.8600 C.3   143  ALA143      0.0334
    127  N         35.2790   49.9530   16.0380 N.am  144  SER144     -0.1950
    128  CA        35.0900   48.7960   15.1650 C.3   144  SER144      0.1924
    129  C         33.9370   47.9980   15.7420 C.2   144  SER144      0.2314
    130  O         33.5840   48.2050   16.8940 O.2   144  SER144     -0.2863
    131  CB        36.3400   47.9130   15.1990 C.3   144  SER144      0.2116
    132  OG        36.0810   46.6200   14.6710 O.3   144  SER144     -0.2180
    133  N         42.9260   43.4890   19.8780 N.3   157  TYR157     -0.1241
    134  CA        42.1200   44.4330   19.1040 C.3   157  TYR157      0.1605
    135  C         40.7230   44.5790   19.7100 C.2   157  TYR157      0.2264
    136  O         40.2080   45.6860   19.8680 O.2   157  TYR157     -0.2867
    137  CB        42.0080   43.9350   17.6610 C.3   157  TYR157      0.0534
    138  CG        41.4360   44.9230   16.6680 C.ar  157  TYR157     -0.0201
    139  CD1       42.2700   45.8060   15.9680 C.ar  157  TYR157     -0.0009
    140  CD2       40.0820   44.8930   16.3370 C.ar  157  TYR157     -0.0009
    141  CE1       41.7650   46.6170   14.9530 C.ar  157  TYR157      0.0417
    142  CE2       39.5660   45.6980   15.3180 C.ar  157  TYR157      0.0417
    143  CZ        40.4100   46.5490   14.6280 C.ar  157  TYR157      0.1957
    144  OH        39.8990   47.2770   13.5710 O.3   157  TYR157     -0.2866
    145  N         39.3790   48.0670   21.2280 N.3   161  LYS161     -0.1245
    146  CA        38.2090   48.7250   20.6560 C.3   161  LYS161      0.1561
    147  C         37.0730   48.8620   21.6710 C.2   161  LYS161      0.2260
    148  O         36.3360   49.8450   21.6270 O.2   161  LYS161     -0.2867
    149  CB        37.7520   47.9870   19.3960 C.3   161  LYS161      0.0271
    150  CG        38.7680   48.0530   18.2350 C.3   161  LYS161      0.0035
    151  CD        39.0290   49.4970   17.7630 C.3   161  LYS161      0.0206
    152  CE        39.8400   49.5220   16.4650 C.3   161  LYS161      0.1093
    153  NZ        40.0830   50.9100   15.9470 N.3   161  LYS161     -0.1314
    154  N         33.0620   50.7330   12.1470 N.3   187  PRO187     -0.2102
    155  CA        32.9710   50.1380   10.8100 C.3   187  PRO187      0.1504
    156  C         32.9300   48.6130   10.9380 C.2   187  PRO187      0.2576
    157  O         33.3260   48.0630   11.9670 O.2   187  PRO187     -0.2718
    158  CB        34.2650   50.5860   10.1280 C.3   187  PRO187      0.0282
    159  CG        34.7720   51.7390   10.9750 C.3   187  PRO187      0.0208
    160  CD        34.3940   51.3200   12.3710 C.3   187  PRO187      0.0893
    161  N         32.4550   47.9480    9.8890 N.am  188  GLY188     -0.1943
    162  CA        32.4080   46.5020    9.8680 C.3   188  GLY188      0.2014
    163  C         33.6240   46.0010    9.1050 C.2   188  GLY188      0.2640
    164  O         34.6720   45.7340    9.7000 O.2   188  GLY188     -0.2714
    165  N         33.4830   45.8650    7.7890 N.am  189  THR189     -0.1936
    166  CA        34.5720   45.4190    6.9260 C.3   189  THR189      0.2028
    167  C         34.7410   46.5100    5.8800 C.2   189  THR189      0.2642
    168  O         33.7960   46.8320    5.1580 O.2   189  THR189     -0.2714
    169  CB        34.2250   44.0910    6.2260 C.3   189  THR189      0.1808
    170  OG1       33.0100   44.2410    5.4770 O.3   189  THR189     -0.2208
    171  CG2       34.0320   43.0020    7.2490 C.3   189  THR189      0.0379
    172  N         35.9430   47.0710    5.7980 N.am  190  VAL190     -0.1977
    173  CA        36.2140   48.1600    4.8700 C.3   190  VAL190      0.1596
    174  C         37.4560   47.8770    4.0260 C.2   190  VAL190      0.2287
    175  O         38.4450   47.3360    4.5210 O.2   190  VAL190     -0.2864
    176  CB        36.4380   49.4860    5.6480 C.3   190  VAL190      0.0276
    177  CG1       36.4670   50.6700    4.6890 C.3   190  VAL190      0.0022
    178  CG2       35.3440   49.6590    6.7010 C.3   190  VAL190      0.0022
    179  N         40.6870   48.5530    2.8830 N.3   192  THR192     -0.1203
    180  CA        41.8200   49.4070    3.2310 C.3   192  THR192      0.1994
    181  C         43.1120   48.5890    3.2060 C.2   192  THR192      0.2618
    182  O         43.1660   47.5280    2.5940 O.2   192  THR192     -0.2717
    183  CB        41.6580   50.0080    4.6420 C.3   192  THR192      0.1784
    184  OG1       41.7550   48.9580    5.6190 O.3   192  THR192     -0.2211
    185  CG2       40.2900   50.7120    4.7760 C.3   192  THR192      0.0376
    186  N         44.1480   49.0870    3.8690 N.am  193  ASN193     -0.1960
    187  CA        45.4230   48.3760    3.9200 C.3   193  ASN193      0.1819
    188  C         45.6550   47.7050    5.2580 C.2   193  ASN193      0.2621
    189  O         46.7320   47.1530    5.4830 O.2   193  ASN193     -0.2715
    190  CB        46.6020   49.3290    3.6770 C.3   193  ASN193      0.1195
    191  CG        46.8000   49.6610    2.2160 C.2   193  ASN193      0.2630
    192  OD1       46.8930   48.7660    1.3730 O.2   193  ASN193     -0.2716
    193  ND2       46.8850   50.9530    1.9060 N.am  193  ASN193     -0.0877
    194  N         44.6710   47.7410    6.1530 N.am  194  ILE194     -0.1977
    195  CA        44.8930   47.1630    7.4750 C.3   194  ILE194      0.1596
    196  C         45.0370   45.6460    7.4630 C.2   194  ILE194      0.2287
    197  O         45.8390   45.0940    8.2070 O.2   194  ILE194     -0.2864
    198  CB        43.7870   47.5980    8.4920 C.3   194  ILE194      0.0276
    199  CG1       44.3160   47.3960    9.9150 C.3   194  ILE194      0.0022
    200  CG2       42.4930   46.8110    8.2610 C.3   194  ILE194      0.0022
    201  CD1       43.4780   48.0510   11.0220 C.3   194  ILE194      0.0001
@<TRIPOS>BOND
     1   192   191    2
     2   193   191   am
     3   191   190    1
     4   182   181    2
     5    55    54    2
     6    52    53    1
     7    53    54    1
     8    53    56    1
     9   179   180    1
    10   181   180    1
    11   181   186   am
    12   180   183    1
    13    57    56    1
    14    57    58    1
    15   190   187    1
    16    59    58    1
    17    59    60    2
    18    62    60    1
    19    11    12    1
    20    11     7   am
    21    10     9    1
    22   186   187    1
    23    14    13    2
    24   187   188    1
    25   174   175    2
    26   174   173    1
    27    12    13    1
    28     6     9    1
    29     6     7    1
    30     6     5    1
    31    60    61    1
    32    13    15   am
    33     7     8    2
    34   183   185    1
    35   183   184    1
    36   177   176    1
    37   173   176    1
    38   173   172    1
    39   168   167    2
    40   188   189    2
    41   188   194   am
    42   170   169    1
    43    15    16    1
    44   176   178    1
    45   172   167   am
    46   167   166    1
    47    47    46    2
    48   194   195    1
    49    16    17    1
    50    16    19    1
    51    18    17    2
    52   169   166    1
    53   169   171    1
    54    25    26    2
    55    25    24    1
    56    50    49    1
    57    46    45    1
    58    17    23   am
    59    48    49    1
    60    48    45    1
    61   166   165    1
    62    20    19    1
    63    20    22    1
    64    23    24    1
    65    49    51    1
    66    45    44    1
    67   196   195    1
    68   196   197    2
    69    19    21    1
    70   195   198    1
    71    32    33    1
    72    32    31    1
    73   165   163   am
    74    33    34   ar
    75    33    35   ar
    76     4     3    2
    77   200   198    1
    78    31    28    1
    79   198   199    1
    80    44    38   am
    81     3     2    1
    82   163   164    2
    83   163   162    1
    84    38    39    2
    85    38    37    1
    86   162   161    1
    87    28    29    1
    88    28    27    1
    89   161   156   am
    90   199   201    1
    91   158   155    1
    92   158   159    1
    93    29    30    2
    94    29    36   am
    95     2     1    1
    96    89    88    2
    97    36    37    1
    98   155   156    1
    99   155   154    1
   100    37    40    1
   101   156   157    2
   102    90    88   am
   103   159   160    1
   104    88    87    1
   105    40    41    1
   106    41    43    1
   107    41    42    1
   108   154   160    1
   109    99    98    2
   110    87    84    1
   111   121   119    1
   112    63    64    1
   113    86    85    2
   114   120   119    1
   115    85    91   am
   116    85    84    1
   117    92    91    1
   118    92    95    1
   119    92    93    1
   120   106   104    1
   121    98   100   am
   122    98    97    1
   123   101   104    1
   124   101   102    1
   125   101   100    1
   126    96    93   am
   127    96    97    1
   128   144   143    1
   129    84    83    1
   130   119   116    1
   131    66    65    2
   132   104   105    1
   133   102   103    2
   134    93    94    2
   135    64    65    1
   136    64    67    1
   137    65    68   am
   138   143   141   ar
   139   143   142   ar
   140   132   131    1
   141   125   124    2
   142   116   117    1
   143   116   115    1
   144   141   139   ar
   145   128   131    1
   146   128   129    1
   147   128   127    1
   148   142   140   ar
   149   105   107    1
   150    68    69    1
   151   117   118    2
   152   117   122   am
   153   129   130    2
   154   124   127   am
   155   124   123    1
   156   153   152    1
   157   139   138   ar
   158   122   123    1
   159    69    72    1
   160    69    70    1
   161    81    80    1
   162   140   138   ar
   163   152   151    1
   164   113   112    1
   165    72    73    1
   166   138   137    1
   167   123   126    1
   168    76    70   am
   169    76    77    1
   170    82    80    1
   171    73    75   ar
   172    73    74   ar
   173    70    71    2
   174    80    77    1
   175   137   134    1
   176   151   150    1
   177   114   112    1
   178   112   109    1
   179    77    78    1
   180   150   149    1
   181   111   110    2
   182   110   109    1
   183   109   108    1
   184   134   135    1
   185   134   133    1
   186    78    79    2
   187   149   146    1
   188   135   136    2
   189   146   145    1
   190   146   147    1
   191   148   147    2
