@<TRIPOS>MOLECULE
tmp/4fn5A00.pdb
 224 217 0 0 0
SMALL
GASTEIGER

@<TRIPOS>ATOM
      1  N        -47.3170  -23.5690  -12.4780 N.3   380  GLU380     -0.1231
      2  CA       -48.2710  -24.6790  -12.4420 C.3   380  GLU380      0.1684
      3  C        -49.6980  -24.2120  -12.2210 C.2   380  GLU380      0.2434
      4  O        -49.9050  -23.3890  -11.3310 O.2   380  GLU380     -0.2733
      5  CB       -47.8870  -25.7150  -11.3740 C.3   380  GLU380      0.0402
      6  CG       -47.9590  -27.1510  -11.8770 C.3   380  GLU380      0.1161
      7  CD       -46.8930  -27.5720  -12.8800 C.2   380  GLU380      0.3649
      8  OE1      -45.9520  -28.2890  -12.4700 O.co2 380  GLU380     -0.2457
      9  OE2      -47.0090  -27.2090  -14.0750 O.co2 380  GLU380     -0.2457
     10  N        -50.6790  -24.6840  -13.0400 N.am  381  PRO381     -0.2718
     11  CA       -52.0660  -24.2640  -12.8470 C.3   381  PRO381      0.1535
     12  C        -52.6800  -24.9090  -11.6110 C.2   381  PRO381      0.2598
     13  O        -52.2900  -26.0060  -11.1830 O.2   381  PRO381     -0.2715
     14  CB       -52.7740  -24.7010  -14.1360 C.3   381  PRO381      0.0310
     15  CG       -51.7450  -25.2240  -15.0190 C.3   381  PRO381      0.0237
     16  CD       -50.5900  -25.6350  -14.1610 C.3   381  PRO381      0.0939
     17  N        -53.6310  -24.1680  -11.0220 N.am  382  VAL382     -0.1964
     18  CA       -54.3590  -24.4810   -9.7910 C.3   382  VAL382      0.1727
     19  C        -55.7550  -25.0520  -10.1150 C.2   382  VAL382      0.2616
     20  O        -56.1830  -26.0240   -9.4930 O.2   382  VAL382     -0.2715
     21  CB       -54.4170  -23.1840   -8.9340 C.3   382  VAL382      0.0290
     22  CG1      -55.5310  -23.2010   -7.8900 C.3   382  VAL382      0.0023
     23  CG2      -53.0810  -22.9200   -8.2900 C.3   382  VAL382      0.0023
     24  N        -56.4470  -24.4560  -11.0770 N.am  383  ILE383     -0.1963
     25  CA       -57.8020  -24.8660  -11.3780 C.3   383  ILE383      0.1727
     26  C        -57.9940  -25.2210  -12.8420 C.2   383  ILE383      0.2616
     27  O        -57.5780  -24.4460  -13.6960 O.2   383  ILE383     -0.2715
     28  CB       -58.7790  -23.7760  -10.8340 C.3   383  ILE383      0.0290
     29  CG1      -60.2680  -24.1760  -10.9510 C.3   383  ILE383      0.0022
     30  CG2      -58.5030  -22.4100  -11.4350 C.3   383  ILE383      0.0023
     31  CD1      -61.0110  -24.1580   -9.6110 C.3   383  ILE383      0.0001
     32  N        -58.6190  -26.4000  -13.1220 N.am  384  SER384     -0.1950
     33  CA       -58.9010  -26.9100  -14.4880 C.3   384  SER384      0.1924
     34  C        -60.3730  -27.1880  -14.7310 C.2   384  SER384      0.2314
     35  O        -60.9980  -27.8990  -13.9440 O.2   384  SER384     -0.2863
     36  CB       -58.1430  -28.2100  -14.7680 C.3   384  SER384      0.2116
     37  OG       -56.7380  -28.0460  -14.8540 O.3   384  SER384     -0.2180
     38  N        -53.5780  -22.6560  -19.7620 N.3   413  ARG413     -0.1245
     39  CA       -53.2730  -23.9030  -20.4520 C.3   413  ARG413      0.1563
     40  C        -54.5040  -24.5930  -21.0650 C.2   413  ARG413      0.2260
     41  O        -55.5740  -24.5780  -20.4710 O.2   413  ARG413     -0.2867
     42  CB       -52.4800  -24.8450  -19.5260 C.3   413  ARG413      0.0307
     43  CG       -51.1030  -24.3150  -19.1050 C.3   413  ARG413      0.0489
     44  CD       -50.2330  -25.4010  -18.4970 C.3   413  ARG413      0.2205
     45  NE       -49.0910  -24.8460  -17.7690 N.pl3 413  ARG413     -0.0865
     46  CZ       -48.2850  -25.5530  -16.9810 C.cat 413  ARG413      0.5346
     47  NH1      -48.4910  -26.8540  -16.8010 N.pl3 413  ARG413      0.1354
     48  NH2      -47.2700  -24.9640  -16.3610 N.pl3 413  ARG413      0.1354
     49  N        -55.6030  -28.4020  -23.2210 N.3   415  LYS415     -0.1231
     50  CA       -55.3090  -29.8030  -23.5300 C.3   415  LYS415      0.1693
     51  C        -56.6010  -30.6160  -23.7480 C.2   415  LYS415      0.2593
     52  O        -57.5750  -30.4500  -23.0130 O.2   415  LYS415     -0.2718
     53  CB       -54.3900  -30.4660  -22.4710 C.3   415  LYS415      0.0285
     54  CG       -53.7220  -31.7390  -23.0090 C.3   415  LYS415      0.0035
     55  CD       -52.6560  -32.3170  -22.1310 C.3   415  LYS415      0.0206
     56  CE       -51.8520  -33.3290  -22.9160 C.3   415  LYS415      0.1093
     57  NZ       -51.1810  -34.3380  -22.0560 N.3   415  LYS415     -0.1314
     58  N        -56.5840  -31.5030  -24.7580 N.am  416  THR416     -0.1939
     59  CA       -57.7010  -32.3740  -25.1270 C.3   416  THR416      0.2028
     60  C        -57.4800  -33.8500  -24.7720 C.2   416  THR416      0.2642
     61  O        -56.4050  -34.4100  -25.0190 O.2   416  THR416     -0.2714
     62  CB       -58.0190  -32.2670  -26.6460 C.3   416  THR416      0.1808
     63  OG1      -56.8060  -32.1750  -27.4080 O.3   416  THR416     -0.2208
     64  CG2      -58.9540  -31.1240  -26.9760 C.3   416  THR416      0.0379
     65  N        -58.5240  -34.4850  -24.2250 N.am  417  ASP417     -0.1971
     66  CA       -58.5230  -35.9210  -23.9840 C.3   417  ASP417      0.1709
     67  C        -59.5170  -36.4650  -25.0120 C.2   417  ASP417      0.2293
     68  O        -60.7120  -36.1420  -24.9720 O.2   417  ASP417     -0.2864
     69  CB       -58.8970  -36.3030  -22.5420 C.3   417  ASP417      0.1436
     70  CG       -58.6280  -37.7730  -22.2470 C.2   417  ASP417      0.3671
     71  OD1      -57.4470  -38.1950  -22.3400 O.co2 417  ASP417     -0.2456
     72  OD2      -59.5970  -38.5050  -21.9180 O.co2 417  ASP417     -0.2456
     73  N        -60.1850  -39.8630  -25.9030 N.3   419  GLU419     -0.1245
     74  CA       -60.9650  -41.0250  -25.4300 C.3   419  GLU419      0.1567
     75  C        -62.2530  -40.6150  -24.6870 C.2   419  GLU419      0.2260
     76  O        -63.2150  -41.4030  -24.6520 O.2   419  GLU419     -0.2867
     77  CB       -60.1210  -42.0310  -24.5900 C.3   419  GLU419      0.0388
     78  CG       -59.6700  -41.5300  -23.2120 C.3   419  GLU419      0.1160
     79  CD       -59.6090  -42.5180  -22.0530 C.2   419  GLU419      0.3649
     80  OE1      -58.5500  -42.5860  -21.3820 O.co2 419  GLU419     -0.2457
     81  OE2      -60.6420  -43.1720  -21.7730 O.co2 419  GLU419     -0.2457
     82  N        -63.1830  -34.5740  -24.4040 N.3   422  GLN422     -0.1245
     83  CA       -63.0950  -33.4520  -23.4710 C.3   422  GLN422      0.1566
     84  C        -61.9240  -32.5400  -23.8190 C.2   422  GLN422      0.2260
     85  O        -60.8270  -33.0220  -24.1430 O.2   422  GLN422     -0.2867
     86  CB       -62.8670  -33.9750  -22.0330 C.3   422  GLN422      0.0367
     87  CG       -64.1300  -34.3310  -21.2520 C.3   422  GLN422      0.0905
     88  CD       -63.8310  -34.8380  -19.8520 C.2   422  GLN422      0.2608
     89  OE1      -64.1700  -34.2080  -18.8460 O.2   422  GLN422     -0.2717
     90  NE2      -63.2060  -36.0020  -19.7470 N.am  422  GLN422     -0.0878
     91  N        -59.7410  -29.6450  -21.8630 N.3   424  ILE424     -0.1245
     92  CA       -59.4740  -29.2050  -20.4870 C.3   424  ILE424      0.1561
     93  C        -58.6970  -27.8940  -20.4380 C.2   424  ILE424      0.2260
     94  O        -57.4950  -27.8560  -20.7260 O.2   424  ILE424     -0.2867
     95  CB       -58.8900  -30.3230  -19.5690 C.3   424  ILE424      0.0252
     96  CG1      -59.8090  -31.5870  -19.5140 C.3   424  ILE424      0.0019
     97  CG2      -58.5270  -29.8040  -18.1640 C.3   424  ILE424      0.0019
     98  CD1      -61.1630  -31.4960  -18.7380 C.3   424  ILE424      0.0001
     99  N        -57.2690  -24.8410  -18.2080 N.3   426  SER426     -0.1217
    100  CA       -56.7640  -24.6660  -16.8490 C.3   426  SER426      0.1889
    101  C        -56.0350  -23.3260  -16.6090 C.2   426  SER426      0.2288
    102  O        -55.6520  -22.6550  -17.5690 O.2   426  SER426     -0.2866
    103  CB       -55.8320  -25.8240  -16.5040 C.3   426  SER426      0.2089
    104  OG       -55.9200  -26.8920  -17.4320 O.3   426  SER426     -0.2183
    105  N        -64.3400  -31.1280  -14.7670 N.3   453  PRO453     -0.2102
    106  CA       -63.7900  -32.2020  -15.6100 C.3   453  PRO453      0.1504
    107  C        -64.3470  -33.5660  -15.2310 C.2   453  PRO453      0.2576
    108  O        -64.4680  -33.8720  -14.0430 O.2   453  PRO453     -0.2718
    109  CB       -62.2830  -32.1500  -15.3440 C.3   453  PRO453      0.0282
    110  CG       -62.0320  -30.8820  -14.6700 C.3   453  PRO453      0.0208
    111  CD       -63.2820  -30.3670  -14.0730 C.3   453  PRO453      0.0893
    112  N        -64.6880  -34.3790  -16.2380 N.am  454  GLN454     -0.1966
    113  CA       -65.2150  -35.7150  -16.0080 C.3   454  GLN454      0.1733
    114  C        -64.0850  -36.7460  -15.9730 C.2   454  GLN454      0.2616
    115  O        -63.1400  -36.6700  -16.7750 O.2   454  GLN454     -0.2715
    116  CB       -66.2660  -36.0800  -17.0580 C.3   454  GLN454      0.0408
    117  CG       -67.5350  -35.2470  -16.9940 C.3   454  GLN454      0.0908
    118  CD       -68.3270  -35.4790  -15.7340 C.2   454  GLN454      0.2608
    119  OE1      -68.2780  -34.6760  -14.7880 O.2   454  GLN454     -0.2717
    120  NE2      -69.0950  -36.5690  -15.7070 N.am  454  GLN454     -0.0878
    121  N        -64.1760  -37.7020  -15.0320 N.am  455  VAL455     -0.1963
    122  CA       -63.1530  -38.7350  -14.9050 C.3   455  VAL455      0.1727
    123  C        -63.2420  -39.6850  -16.0840 C.2   455  VAL455      0.2616
    124  O        -64.3070  -40.2510  -16.3330 O.2   455  VAL455     -0.2715
    125  CB       -63.1310  -39.4590  -13.5220 C.3   455  VAL455      0.0290
    126  CG1      -62.2820  -40.7220  -13.5660 C.3   455  VAL455      0.0023
    127  CG2      -62.6240  -38.5330  -12.4280 C.3   455  VAL455      0.0023
    128  N        -62.1270  -39.8230  -16.8220 N.am  456  ALA456     -0.1977
    129  CA       -62.0160  -40.7150  -17.9720 C.3   456  ALA456      0.1597
    130  C        -61.8080  -42.1490  -17.5000 C.2   456  ALA456      0.2287
    131  O        -60.6760  -42.6570  -17.5210 O.2   456  ALA456     -0.2864
    132  CB       -60.8710  -40.2750  -18.8750 C.3   456  ALA456      0.0319
    133  N        -58.2910  -43.6290  -13.1480 N.3   583  PRO583     -0.2116
    134  CA       -56.9130  -43.1190  -13.2250 C.3   583  PRO583      0.1372
    135  C        -56.2800  -42.9320  -11.8440 C.2   583  PRO583      0.2244
    136  O        -56.9280  -42.4360  -10.9100 O.2   583  PRO583     -0.2868
    137  CB       -57.0710  -41.7860  -13.9470 C.3   583  PRO583      0.0268
    138  CG       -58.4520  -41.3570  -13.6750 C.3   583  PRO583      0.0207
    139  CD       -59.2720  -42.5970  -13.5350 C.3   583  PRO583      0.0892
    140  N        -52.8960  -41.3780   -9.9360 N.3   585  MET585     -0.1245
    141  CA       -51.8730  -40.3490  -10.0610 C.3   585  MET585      0.1570
    142  C        -50.6760  -40.6240   -9.1930 C.2   585  MET585      0.2261
    143  O        -50.8190  -41.2340   -8.1310 O.2   585  MET585     -0.2867
    144  CB       -52.4840  -38.9870   -9.7120 C.3   585  MET585      0.0387
    145  CG       -53.7310  -38.6680  -10.5260 C.3   585  MET585      0.0595
    146  SD       -53.4650  -38.3490  -12.2990 S.3   585  MET585     -0.1393
    147  CE       -52.5650  -36.8950  -12.1960 C.3   585  MET585      0.0692
    148  N        -57.2260  -39.8490   -9.2800 N.3   628  LEU628     -0.1245
    149  CA       -57.5290  -38.5290   -9.8270 C.3   628  LEU628      0.1561
    150  C        -58.8950  -38.0100   -9.3920 C.2   628  LEU628      0.2260
    151  O        -59.0720  -36.8060   -9.2400 O.2   628  LEU628     -0.2867
    152  CB       -57.4410  -38.5510  -11.3640 C.3   628  LEU628      0.0270
    153  CG       -57.4940  -37.1980  -12.0360 C.3   628  LEU628      0.0019
    154  CD1      -56.2890  -36.3700  -11.7260 C.3   628  LEU628      0.0001
    155  CD2      -57.6750  -37.3140  -13.4840 C.3   628  LEU628      0.0001
    156  N        -59.7870  -33.8880   -6.5530 N.3   632  PHE632     -0.1241
    157  CA       -60.5340  -32.6510   -6.7760 C.3   632  PHE632      0.1605
    158  C        -60.3200  -31.4790   -5.8040 C.2   632  PHE632      0.2264
    159  O        -60.6720  -31.5640   -4.6190 O.2   632  PHE632     -0.2867
    160  CB       -62.0100  -32.9060   -7.1130 C.3   632  PHE632      0.0534
    161  CG       -62.2270  -32.8030   -8.6020 C.ar  632  PHE632     -0.0203
    162  CD1      -62.2140  -33.9410   -9.4050 C.ar  632  PHE632     -0.0042
    163  CD2      -62.3570  -31.5610   -9.2210 C.ar  632  PHE632     -0.0042
    164  CE1      -62.4010  -33.8450  -10.7920 C.ar  632  PHE632     -0.0003
    165  CE2      -62.5130  -31.4660  -10.6090 C.ar  632  PHE632     -0.0003
    166  CZ       -62.5490  -32.6110  -11.3830 C.ar  632  PHE632     -0.0000
    167  N        -47.3280  -29.0760   -4.2380 N.3   648  TYR648     -0.1227
    168  CA       -47.5580  -30.4280   -4.7240 C.3   648  TYR648      0.1736
    169  C        -47.3520  -30.5190   -6.2180 C.2   648  TYR648      0.2596
    170  O        -47.5880  -29.5700   -6.9680 O.2   648  TYR648     -0.2718
    171  CB       -48.9360  -31.0010   -4.2930 C.3   648  TYR648      0.0548
    172  CG       -50.0570  -30.8160   -5.2990 C.ar  648  TYR648     -0.0200
    173  CD1      -50.6180  -29.5630   -5.5230 C.ar  648  TYR648     -0.0009
    174  CD2      -50.5700  -31.8960   -6.0080 C.ar  648  TYR648     -0.0009
    175  CE1      -51.6310  -29.3820   -6.4650 C.ar  648  TYR648      0.0417
    176  CE2      -51.5980  -31.7320   -6.9350 C.ar  648  TYR648      0.0417
    177  CZ       -52.1290  -30.4720   -7.1590 C.ar  648  TYR648      0.1957
    178  OH       -53.1690  -30.2920   -8.0450 O.3   648  TYR648     -0.2866
    179  N        -46.8960  -31.6780   -6.6320 N.am  649  SER649     -0.1938
    180  CA       -46.6770  -32.0370   -8.0130 C.3   649  SER649      0.2055
    181  C        -47.4710  -33.3210   -8.2360 C.2   649  SER649      0.2643
    182  O        -47.8070  -34.0240   -7.2730 O.2   649  SER649     -0.2714
    183  CB       -45.1870  -32.2460   -8.2900 C.3   649  SER649      0.2130
    184  OG       -44.4430  -32.5940   -7.1310 O.3   649  SER649     -0.2179
    185  N        -47.8480  -33.5760   -9.4790 N.am  650  MET650     -0.1962
    186  CA       -48.5390  -34.7990   -9.8320 C.3   650  MET650      0.1736
    187  C        -48.2970  -35.1210  -11.2760 C.2   650  MET650      0.2616
    188  O        -47.8180  -34.2770  -12.0440 O.2   650  MET650     -0.2715
    189  CB       -50.0430  -34.8030   -9.4610 C.3   650  MET650      0.0427
    190  CG       -50.9430  -33.9600  -10.3430 C.3   650  MET650      0.0599
    191  SD       -52.6360  -34.0680   -9.7120 S.3   650  MET650     -0.1393
    192  CE       -53.4700  -33.1450  -10.8640 C.3   650  MET650      0.0692
    193  N        -48.5480  -36.3740  -11.6120 N.am  651  GLU651     -0.1963
    194  CA       -48.5050  -36.9390  -12.9420 C.3   651  GLU651      0.1733
    195  C        -49.2960  -38.2330  -12.8870 C.2   651  GLU651      0.2616
    196  O        -49.5160  -38.7760  -11.7910 O.2   651  GLU651     -0.2715
    197  CB       -47.0660  -37.0590  -13.5250 C.3   651  GLU651      0.0429
    198  CG       -46.1060  -38.0860  -12.9370 C.3   651  GLU651      0.1163
    199  CD       -44.7610  -38.1490  -13.6550 C.2   651  GLU651      0.3649
    200  OE1      -44.7320  -38.5430  -14.8460 O.co2 651  GLU651     -0.2457
    201  OE2      -43.7280  -37.8350  -13.0160 O.co2 651  GLU651     -0.2457
    202  N        -49.8210  -38.6580  -14.0420 N.am  652  PHE652     -0.1974
    203  CA       -50.5810  -39.8920  -14.1870 C.3   652  PHE652      0.1639
    204  C        -49.6210  -41.0610  -13.9550 C.2   652  PHE652      0.2290
    205  O        -48.4870  -41.0360  -14.4490 O.2   652  PHE652     -0.2864
    206  CB       -51.1890  -39.9370  -15.5940 C.3   652  PHE652      0.0560
    207  CG       -52.0170  -41.1640  -15.8660 C.ar  652  PHE652     -0.0200
    208  CD1      -53.3860  -41.1480  -15.6810 C.ar  652  PHE652     -0.0042
    209  CD2      -51.4190  -42.3480  -16.2820 C.ar  652  PHE652     -0.0042
    210  CE1      -54.1420  -42.2930  -15.9120 C.ar  652  PHE652     -0.0003
    211  CE2      -52.1750  -43.4860  -16.5020 C.ar  652  PHE652     -0.0003
    212  CZ       -53.5290  -43.4460  -16.3260 C.ar  652  PHE652     -0.0000
    213  N        -53.6260  -47.2540  -14.0420 N.3   655  TYR655     -0.1241
    214  CA       -55.0530  -47.5380  -14.0000 C.3   655  TYR655      0.1605
    215  C        -55.2230  -48.6940  -13.0220 C.2   655  TYR655      0.2264
    216  O        -54.3910  -49.6080  -12.9560 O.2   655  TYR655     -0.2867
    217  CB       -55.6200  -47.9030  -15.3860 C.3   655  TYR655      0.0534
    218  CG       -56.3340  -46.7440  -16.0400 C.ar  655  TYR655     -0.0201
    219  CD1      -55.6880  -45.9350  -16.9690 C.ar  655  TYR655     -0.0009
    220  CD2      -57.6470  -46.4320  -15.7060 C.ar  655  TYR655     -0.0009
    221  CE1      -56.3180  -44.8180  -17.5170 C.ar  655  TYR655      0.0417
    222  CE2      -58.2920  -45.3260  -16.2610 C.ar  655  TYR655      0.0417
    223  CZ       -57.6180  -44.5140  -17.1570 C.ar  655  TYR655      0.1957
    224  OH       -58.2580  -43.4300  -17.7040 O.3   655  TYR655     -0.2866
@<TRIPOS>BOND
     1    63    62    1
     2    64    62    1
     3    62    59    1
     4    73    74    1
     5    74    75    1
     6    74    77    1
     7    59    60    1
     8    59    58    1
     9    61    60    2
    10    67    68    2
    11    67    66    1
    12    60    65   am
    13    58    51   am
    14    75    76    2
    15    77    78    1
    16    82    83    1
    17    65    66    1
    18    85    84    2
    19    66    69    1
    20    84    83    1
    21    51    50    1
    22    51    52    2
    23    50    49    1
    24    50    53    1
    25    83    86    1
    26    78    79    1
    27    54    53    1
    28    54    55    1
    29    56    55    1
    30    56    57    1
    31    69    70    1
    32    71    70   ar
    33    70    72   ar
    34    79    81   ar
    35    79    80   ar
    36    86    87    1
    37    91    92    1
    38    87    88    1
    39    40    41    2
    40    40    39    1
    41    94    93    2
    42    92    93    1
    43    92    95    1
    44    39    38    1
    45    39    42    1
    46    88    90   am
    47    88    89    2
    48    95    96    1
    49    95    97    1
    50    42    43    1
    51    96    98    1
    52    43    44    1
    53   132   129    1
    54    44    45    1
    55    99   100    1
    56   129   130    1
    57   129   128    1
    58    45    46    2
    59   224   223    1
    60   102   101    2
    61   131   130    2
    62   221   223   ar
    63   221   219   ar
    64   104   103    1
    65   223   222   ar
    66   116   117    1
    67   116   113    1
    68   117   118    1
    69    46    47    1
    70    46    48    1
    71   219   218   ar
    72   100   101    1
    73   100   103    1
    74   128   123   am
    75   115   114    2
    76   211   212   ar
    77   211   209   ar
    78   124   123    2
    79   212   210   ar
    80   209   207   ar
    81   222   220   ar
    82   112   113    1
    83   112   107   am
    84   123   122    1
    85   218   220   ar
    86   218   217    1
    87   113   114    1
    88   114   121   am
    89   210   208   ar
    90   207   208   ar
    91   207   206    1
    92   118   120   am
    93   118   119    2
    94   106   109    1
    95   106   107    1
    96   106   105    1
    97   206   203    1
    98   217   214    1
    99   109   110    1
   100   107   108    2
   101   121   122    1
   102    15    16    1
   103    15    14    1
   104   122   125    1
   105    37    36    1
   106   200   199   ar
   107    36    33    1
   108   105   111    1
   109    34    33    1
   110    34    35    2
   111   110   111    1
   112    33    32    1
   113   205   204    2
   114   203   202    1
   115   203   204    1
   116    16    10    1
   117    14    11    1
   118     9     7   ar
   119   202   195   am
   120   213   214    1
   121   214   215    1
   122   137   138    1
   123   137   134    1
   124    27    26    2
   125   138   139    1
   126   199   201   ar
   127   199   198    1
   128   126   125    1
   129   139   133    1
   130   197   194    1
   131   197   198    1
   132   125   127    1
   133   155   153    1
   134   134   133    1
   135   134   135    1
   136    32    26   am
   137    10    11    1
   138    10     3   am
   139   215   216    2
   140   194   195    1
   141   194   193    1
   142   195   196    2
   143     7     8   ar
   144     7     6    1
   145    11    12    1
   146    26    25    1
   147     1     2    1
   148     2     3    1
   149     2     5    1
   150   146   147    1
   151   146   145    1
   152     3     4    2
   153   188   187    2
   154   153   154    1
   155   153   152    1
   156     6     5    1
   157   135   136    2
   158   193   187   am
   159    12    13    2
   160    12    17   am
   161    30    28    1
   162   166   164   ar
   163   166   165   ar
   164    25    24    1
   165    25    28    1
   166   152   149    1
   167   187   186    1
   168    24    19   am
   169    17    18    1
   170    29    28    1
   171    29    31    1
   172   192   191    1
   173   164   162   ar
   174   165   163   ar
   175   145   144    1
   176   190   191    1
   177   190   189    1
   178    19    18    1
   179    19    20    2
   180   141   140    1
   181   141   144    1
   182   141   142    1
   183   186   185    1
   184   186   189    1
   185   149   150    1
   186   149   148    1
   187    18    21    1
   188   185   181   am
   189   162   161   ar
   190   150   151    2
   191   163   161   ar
   192   142   143    2
   193    21    23    1
   194    21    22    1
   195   161   160    1
   196   183   180    1
   197   183   184    1
   198   181   180    1
   199   181   182    2
   200   178   177    1
   201   180   179    1
   202   177   176   ar
   203   177   175   ar
   204   160   157    1
   205   170   169    2
   206   176   174   ar
   207   157   156    1
   208   157   158    1
   209   179   169   am
   210   175   173   ar
   211   169   168    1
   212   174   172   ar
   213   158   159    2
   214   173   172   ar
   215   172   171    1
   216   168   171    1
   217   168   167    1
