@<TRIPOS>MOLECULE
tmp/4fncA00.pdb
 109 104 0 0 0
SMALL
GASTEIGER

@<TRIPOS>ATOM
      1  N        159.9020  -80.6400  349.0960 N.3    15  LEU15      -0.1245
      2  CA       158.7830  -80.1530  349.9000 C.3    15  LEU15       0.1561
      3  C        157.4600  -80.3770  349.1730 C.2    15  LEU15       0.2260
      4  O        157.2250  -79.8040  348.1100 O.2    15  LEU15      -0.2867
      5  CB       158.9680  -78.6680  350.2280 C.3    15  LEU15       0.0270
      6  CG       157.8990  -77.9790  351.0770 C.3    15  LEU15       0.0019
      7  CD1      157.7860  -78.6370  352.4450 C.3    15  LEU15       0.0001
      8  CD2      158.2120  -76.4940  351.2190 C.3    15  LEU15       0.0001
      9  N        156.2230  -70.1230  346.4850 N.3    29  GLY29      -0.1210
     10  CA       157.5670  -69.7870  346.9170 C.3    29  GLY29       0.1956
     11  C        158.5620  -69.9200  345.7800 C.2    29  GLY29       0.2612
     12  O        158.1940  -70.2320  344.6460 O.2    29  GLY29      -0.2717
     13  N        159.8310  -69.6760  346.0780 N.am   30  ILE30      -0.1965
     14  CA       160.8790  -69.8100  345.0810 C.3    30  ILE30       0.1727
     15  C        161.2560  -71.2780  344.9550 C.2    30  ILE30       0.2616
     16  O        160.9860  -71.9190  343.9420 O.2    30  ILE30      -0.2715
     17  CB       162.1170  -68.9840  345.4710 C.3    30  ILE30       0.0290
     18  CG1      161.7340  -67.5100  345.6340 C.3    30  ILE30       0.0022
     19  CG2      163.2240  -69.1590  344.4460 C.3    30  ILE30       0.0023
     20  CD1      162.8350  -66.6470  346.1950 C.3    30  ILE30       0.0001
     21  N        161.8630  -71.8040  346.0100 N.am   31  ASN31      -0.1959
     22  CA       162.2920  -73.1890  346.0590 C.3    31  ASN31       0.1804
     23  C        162.6070  -73.5070  347.5120 C.2    31  ASN31       0.2463
     24  O        162.9430  -72.6040  348.2740 O.2    31  ASN31      -0.2730
     25  CB       163.5260  -73.3930  345.1810 C.3    31  ASN31       0.1195
     26  CG       164.8200  -73.2010  345.9400 C.2    31  ASN31       0.2630
     27  OD1      165.1340  -72.0980  346.3940 O.2    31  ASN31      -0.2716
     28  ND2      165.5870  -74.2770  346.0760 N.am   31  ASN31      -0.0877
     29  N        162.4840  -74.7840  347.9080 N.am   32  PRO32      -0.2716
     30  CA       162.6850  -75.1810  349.3060 C.3    32  PRO32       0.1536
     31  C        164.0600  -74.8180  349.8590 C.2    32  PRO32       0.2599
     32  O        165.0760  -75.1530  349.2560 O.2    32  PRO32      -0.2715
     33  CB       162.5380  -76.7030  349.2550 C.3    32  PRO32       0.0310
     34  CG       161.6620  -76.9490  348.0840 C.3    32  PRO32       0.0237
     35  CD       162.0520  -75.9190  347.0740 C.3    32  PRO32       0.0939
     36  N        164.0800  -74.1380  351.0020 N.am   33  GLY33      -0.1955
     37  CA       165.3150  -73.9130  351.7300 C.3    33  GLY33       0.1869
     38  C        165.6210  -75.1240  352.5910 C.2    33  GLY33       0.2309
     39  O        164.8220  -76.0590  352.6530 O.2    33  GLY33      -0.2863
     40  N        163.1230  -75.9050  355.3300 N.3    36  ALA36      -0.1245
     41  CA       161.8690  -76.3280  354.7170 C.3    36  ALA36       0.1562
     42  C        161.8980  -77.8080  354.3540 C.2    36  ALA36       0.2260
     43  O        160.9030  -78.5140  354.5110 O.2    36  ALA36      -0.2867
     44  CB       161.5690  -75.4860  353.4900 C.3    36  ALA36       0.0290
     45  N        157.6870  -72.7070  354.8710 N.3    43  TYR43      -0.1228
     46  CA       158.1840  -71.5550  355.6320 C.3    43  TYR43       0.1721
     47  C        158.3690  -71.8070  357.1300 C.2    43  TYR43       0.2437
     48  O        157.7580  -71.1270  357.9550 O.2    43  TYR43      -0.2733
     49  CB       157.2890  -70.3360  355.4020 C.3    43  TYR43       0.0547
     50  CG       157.0370  -70.0630  353.9390 C.ar   43  TYR43      -0.0200
     51  CD1      158.0630  -69.6310  353.1030 C.ar   43  TYR43      -0.0009
     52  CD2      155.7770  -70.2480  353.3880 C.ar   43  TYR43      -0.0009
     53  CE1      157.8370  -69.3900  351.7580 C.ar   43  TYR43       0.0417
     54  CE2      155.5420  -70.0080  352.0470 C.ar   43  TYR43       0.0417
     55  CZ       156.5740  -69.5800  351.2380 C.ar   43  TYR43       0.1957
     56  OH       156.3320  -69.3410  349.9090 O.3    43  TYR43      -0.2866
     57  N        159.2290  -72.7750  357.4860 N.am   44  PRO44      -0.2718
     58  CA       159.4660  -73.0620  358.9000 C.3    44  PRO44       0.1535
     59  C        160.5710  -72.1790  359.4620 C.2    44  PRO44       0.2599
     60  O        160.8570  -72.2490  360.6590 O.2    44  PRO44      -0.2715
     61  CB       159.9420  -74.5100  358.8650 C.3    44  PRO44       0.0310
     62  CG       160.7220  -74.5790  357.5970 C.3    44  PRO44       0.0237
     63  CD       160.0260  -73.6600  356.6160 C.3    44  PRO44       0.0939
     64  N        161.1850  -71.3720  358.6000 N.am   45  GLY45      -0.1955
     65  CA       162.2560  -70.4790  359.0000 C.3    45  GLY45       0.1869
     66  C        161.8570  -69.6290  360.1910 C.2    45  GLY45       0.2309
     67  O        160.8580  -68.9100  360.1390 O.2    45  GLY45      -0.2863
     68  N        161.9530  -66.2700  358.9980 N.3    48  ASN48      -0.1240
     69  CA       161.0510  -66.0140  357.8780 C.3    48  ASN48       0.1653
     70  C        159.7970  -65.2690  358.3300 C.2    48  ASN48       0.2266
     71  O        159.2590  -65.5320  359.4090 O.2    48  ASN48      -0.2867
     72  CB       160.6750  -67.3220  357.1840 C.3    48  ASN48       0.1155
     73  CG       160.3040  -67.1260  355.7260 C.2    48  ASN48       0.2627
     74  OD1      159.1870  -66.7220  355.4060 O.2    48  ASN48      -0.2716
     75  ND2      161.2390  -67.4300  354.8310 N.am   48  ASN48      -0.0877
     76  N        155.9060  -74.2550  345.0650 N.3    82  ASN82      -0.1240
     77  CA       157.0840  -73.4560  344.7500 C.3    82  ASN82       0.1653
     78  C        157.3450  -73.3780  343.2570 C.2    82  ASN82       0.2266
     79  O        156.8060  -74.1700  342.4840 O.2    82  ASN82      -0.2867
     80  CB       158.3110  -74.0120  345.4710 C.3    82  ASN82       0.1155
     81  CG       158.1580  -73.9870  346.9770 C.2    82  ASN82       0.2627
     82  OD1      157.5470  -73.0750  347.5340 O.2    82  ASN82      -0.2716
     83  ND2      158.7110  -74.9900  347.6440 N.am   82  ASN82      -0.0877
     84  N        155.4240  -65.3270  345.9930 N.3   121  ASN121     -0.1240
     85  CA       156.2180  -64.9140  347.1410 C.3   121  ASN121      0.1653
     86  C        157.6580  -64.6380  346.7210 C.2   121  ASN121      0.2266
     87  O        158.5730  -65.4040  347.0340 O.2   121  ASN121     -0.2867
     88  CB       156.1650  -65.9660  348.2530 C.3   121  ASN121      0.1155
     89  CG       156.9100  -65.5320  349.5010 C.2   121  ASN121      0.2627
     90  OD1      157.2900  -64.3680  349.6390 O.2   121  ASN121     -0.2716
     91  ND2      157.1290  -66.4690  350.4150 N.am  121  ASN121     -0.0877
     92  N        159.7290  -61.2030  348.8440 N.3   162  SER162     -0.1202
     93  CA       159.9460  -62.5330  349.3980 C.3   162  SER162      0.2020
     94  C        159.8950  -62.5280  350.9180 C.2   162  SER162      0.2619
     95  O        160.5160  -61.6850  351.5660 O.2   162  SER162     -0.2717
     96  CB       161.2820  -63.1040  348.9300 C.3   162  SER162      0.2103
     97  OG       161.6090  -64.2740  349.6640 O.3   162  SER162     -0.2182
     98  N        159.1650  -63.4870  351.4810 N.am  163  SER163     -0.1937
     99  CA       158.9860  -63.5730  352.9290 C.3   163  SER163      0.2055
    100  C        160.2890  -63.9120  353.6480 C.2   163  SER163      0.2643
    101  O        160.3500  -63.8900  354.8770 O.2   163  SER163     -0.2714
    102  CB       157.9030  -64.5960  353.2780 C.3   163  SER163      0.2130
    103  OG       158.1870  -65.8560  352.6970 O.3   163  SER163     -0.2179
    104  N        161.3210  -64.2320  352.8740 N.am  164  SER164     -0.1949
    105  CA       162.6540  -64.4570  353.4140 C.3   164  SER164      0.1924
    106  C        163.1700  -63.1760  354.0500 C.2   164  SER164      0.2314
    107  O        162.8710  -62.0750  353.5830 O.2   164  SER164     -0.2863
    108  CB       163.6080  -64.9130  352.3110 C.3   164  SER164      0.2116
    109  OG       164.9410  -64.9680  352.7870 O.3   164  SER164     -0.2180
@<TRIPOS>BOND
     1    79    78    2
     2    78    77    1
     3    16    15    2
     4    19    17    1
     5    12    11    2
     6    77    76    1
     7    77    80    1
     8    15    14    1
     9    15    21   am
    10    14    17    1
    11    14    13    1
    12    25    26    1
    13    25    22    1
    14    17    18    1
    15    80    81    1
    16    18    20    1
    17    11    13   am
    18    11    10    1
    19    26    28   am
    20    26    27    2
    21    84    85    1
    22    21    22    1
    23    22    23    1
    24     9    10    1
    25    86    87    2
    26    86    85    1
    27    81    82    2
    28    81    83   am
    29    35    29    1
    30    35    34    1
    31    85    88    1
    32    23    29   am
    33    23    24    2
    34    29    30    1
    35    34    33    1
    36     4     3    2
    37    88    89    1
    38    92    93    1
    39    96    93    1
    40    96    97    1
    41     1     2    1
    42     3     2    1
    43    33    30    1
    44    32    31    2
    45    30    31    1
    46    93    94    1
    47    89    90    2
    48    89    91   am
    49    31    36   am
    50     2     5    1
    51    56    55    1
    52     5     6    1
    53    94    98   am
    54    94    95    2
    55    36    37    1
    56     6     8    1
    57     6     7    1
    58    55    53   ar
    59    55    54   ar
    60    98    99    1
    61    37    38    1
    62    53    51   ar
    63    54    52   ar
    64   108   109    1
    65   108   105    1
    66    38    39    2
    67   103   102    1
    68   104   105    1
    69   104   100   am
    70    99   102    1
    71    99   100    1
    72    51    50   ar
    73    52    50   ar
    74   105   106    1
    75    44    41    1
    76   107   106    2
    77   100   101    2
    78    50    49    1
    79    42    43    2
    80    42    41    1
    81    41    40    1
    82    75    73   am
    83    45    46    1
    84    49    46    1
    85    74    73    2
    86    46    47    1
    87    73    72    1
    88    63    57    1
    89    63    62    1
    90    47    57   am
    91    47    48    2
    92    72    69    1
    93    57    58    1
    94    62    61    1
    95    69    70    1
    96    69    68    1
    97    70    71    2
    98    64    65    1
    99    64    59   am
   100    61    58    1
   101    58    59    1
   102    65    66    1
   103    59    60    2
   104    67    66    2
