@<TRIPOS>MOLECULE
tmp/4fndA00.pdb
 216 207 0 0 0
SMALL
GASTEIGER

@<TRIPOS>ATOM
      1  N         13.5960    1.7720   22.7380 N.3    23  LYS23      -0.1231
      2  CA        13.0560    0.4240   22.7840 C.3    23  LYS23       0.1693
      3  C         14.1780   -0.6110   22.6880 C.2    23  LYS23       0.2591
      4  O         15.0540   -0.6610   23.5580 O.2    23  LYS23      -0.2718
      5  CB        12.0230    0.2410   21.6650 C.3    23  LYS23       0.0285
      6  CG        11.0240   -0.8630   21.9860 C.3    23  LYS23       0.0035
      7  CD        10.0420   -0.9830   20.8230 C.3    23  LYS23       0.0206
      8  CE        10.4660   -1.9140   19.6990 C.3    23  LYS23       0.1093
      9  NZ        11.6700   -1.4520   18.9420 N.3    23  LYS23      -0.1314
     10  N         14.1690   -1.4220   21.6300 N.am   24  VAL24      -0.1980
     11  CA        15.1830   -2.4680   21.4950 C.3    24  VAL24       0.1595
     12  C         16.1620   -2.2340   20.3330 C.2    24  VAL24       0.2287
     13  O         16.7150   -3.1810   19.7820 O.2    24  VAL24      -0.2864
     14  CB        14.5470   -3.8740   21.3860 C.3    24  VAL24       0.0276
     15  CG1       13.7860   -4.2100   22.6590 C.3    24  VAL24       0.0022
     16  CG2       13.6240   -3.9580   20.1730 C.3    24  VAL24       0.0022
     17  N         15.9170   -1.5370   17.1880 N.3    26  ALA26      -0.1245
     18  CA        15.6290   -2.2410   15.9420 C.3    26  ALA26       0.1562
     19  C         16.3860   -1.5910   14.7840 C.2    26  ALA26       0.2260
     20  O         16.4060   -0.3680   14.6500 O.2    26  ALA26      -0.2867
     21  CB        14.1330   -2.2480   15.6720 C.3    26  ALA26       0.0290
     22  N         18.9460   -1.4280   27.8310 N.3    57  ARG57      -0.1231
     23  CA        18.0760   -2.5930   27.6890 C.3    57  ARG57       0.1694
     24  C         18.6910   -3.6630   26.7820 C.2    57  ARG57       0.2591
     25  O         18.6610   -4.8540   27.0950 O.2    57  ARG57      -0.2718
     26  CB        16.7260   -2.1440   27.1260 C.3    57  ARG57       0.0321
     27  CG        15.6050   -3.1690   27.1970 C.3    57  ARG57       0.0489
     28  CD        14.2610   -2.4810   26.9700 C.3    57  ARG57       0.2205
     29  NE        14.1050   -1.3360   27.8640 N.pl3  57  ARG57      -0.0865
     30  CZ        13.1420   -0.4240   27.7690 C.cat  57  ARG57       0.5346
     31  NH1       13.0940    0.5790   28.6360 N.pl3  57  ARG57       0.1354
     32  NH2       12.2310   -0.5060   26.8080 N.pl3  57  ARG57       0.1354
     33  N         19.2370   -3.2380   25.6450 N.am   58  VAL58      -0.1980
     34  CA        19.8490   -4.1850   24.7150 C.3    58  VAL58       0.1595
     35  C         21.0330   -3.5660   24.0160 C.2    58  VAL58       0.2287
     36  O         21.2180   -2.3540   24.0590 O.2    58  VAL58      -0.2864
     37  CB        18.8640   -4.5900   23.6040 C.3    58  VAL58       0.0276
     38  CG1       17.6740   -5.3280   24.1780 C.3    58  VAL58       0.0022
     39  CG2       18.4350   -3.3500   22.7940 C.3    58  VAL58       0.0022
     40  N         21.1300   -4.6480   20.5650 N.3    60  SER60      -0.1202
     41  CA        20.0650   -4.5310   19.5680 C.3    60  SER60       0.2020
     42  C         19.2620   -5.8200   19.4390 C.2    60  SER60       0.2619
     43  O         19.8140   -6.9090   19.4980 O.2    60  SER60      -0.2717
     44  CB        20.6270   -4.1630   18.1930 C.3    60  SER60       0.2103
     45  OG        19.5810   -4.1620   17.2360 O.3    60  SER60      -0.2182
     46  N         17.9550   -5.6860   19.2410 N.am   61  GLY61      -0.1942
     47  CA        17.1060   -6.8310   18.9920 C.3    61  GLY61       0.2014
     48  C         17.0660   -7.2330   17.5230 C.2    61  GLY61       0.2639
     49  O         16.3000   -8.1180   17.1480 O.2    61  GLY61      -0.2714
     50  N         17.8810   -6.5800   16.6980 N.am   62  GLY62      -0.1939
     51  CA        18.0470   -6.9940   15.3090 C.3    62  GLY62       0.2014
     52  C         17.1970   -6.1660   14.3700 C.2    62  GLY62       0.2639
     53  O         16.8160   -5.0500   14.6970 O.2    62  GLY62      -0.2714
     54  N         16.8930   -6.7160   13.1950 N.am   63  PHE63      -0.1959
     55  CA        16.0590   -6.0100   12.2330 C.3    63  PHE63       0.1771
     56  C         14.6660   -5.7130   12.7890 C.2    63  PHE63       0.2620
     57  O         14.1590   -6.4420   13.6370 O.2    63  PHE63      -0.2715
     58  CB        15.9160   -6.8300   10.9480 C.3    63  PHE63       0.0574
     59  CG        17.1620   -6.8660   10.1060 C.ar   63  PHE63      -0.0200
     60  CD1       17.7110   -5.6880    9.6080 C.ar   63  PHE63      -0.0042
     61  CD2       17.7670   -8.0720    9.7910 C.ar   63  PHE63      -0.0042
     62  CE1       18.8510   -5.7120    8.8340 C.ar   63  PHE63      -0.0003
     63  CE2       18.9070   -8.1090    9.0040 C.ar   63  PHE63      -0.0003
     64  CZ        19.4540   -6.9270    8.5230 C.ar   63  PHE63      -0.0000
     65  N         14.0540   -4.6450   12.2830 N.am   64  ASP64      -0.1957
     66  CA        12.6820   -4.2890   12.6300 C.3    64  ASP64       0.1840
     67  C         11.7080   -5.3490   12.1270 C.2    64  ASP64       0.2622
     68  O         11.5130   -5.5000   10.9150 O.2    64  ASP64      -0.2715
     69  CB        12.3250   -2.9320   12.0170 C.3    64  ASP64       0.1450
     70  CG        10.9800   -2.4080   12.4850 C.2    64  ASP64       0.3671
     71  OD1       10.2090   -3.1680   13.1120 O.co2  64  ASP64      -0.2456
     72  OD2       10.6950   -1.2250   12.2130 O.co2  64  ASP64      -0.2456
     73  N         11.0940   -6.0650   13.0670 N.am   65  LEU65      -0.1963
     74  CA        10.1350   -7.1280   12.7610 C.3    65  LEU65       0.1728
     75  C          8.8580   -6.6230   12.0900 C.2    65  LEU65       0.2616
     76  O          8.2140   -7.3580   11.3420 O.2    65  LEU65      -0.2715
     77  CB         9.7480   -7.8880   14.0390 C.3    65  LEU65       0.0311
     78  CG        10.7560   -8.8580   14.6580 C.3    65  LEU65       0.0022
     79  CD1       10.2230   -9.4150   15.9760 C.3    65  LEU65       0.0001
     80  CD2       11.0800   -9.9790   13.6930 C.3    65  LEU65       0.0001
     81  N          8.4760   -5.3830   12.3750 N.am   66  LYS66      -0.1977
     82  CA         7.2740   -4.8190   11.7770 C.3    66  LYS66       0.1596
     83  C          7.4340   -4.7700   10.2590 C.2    66  LYS66       0.2287
     84  O          6.5470   -5.1920    9.5180 O.2    66  LYS66      -0.2864
     85  CB         6.9920   -3.4240   12.3300 C.3    66  LYS66       0.0298
     86  CG         6.5530   -3.5960   13.8090 C.3    66  LYS66       0.0038
     87  CD         6.0780   -2.2250   14.2810 C.3    66  LYS66       0.0206
     88  CE         6.7060   -1.9760   15.6560 C.3    66  LYS66       0.1093
     89  NZ         8.1840   -2.2380   15.4880 N.3    66  LYS66      -0.1314
     90  N          9.8750   -6.3850    8.4810 N.3    68  LEU68      -0.1245
     91  CA        10.1920   -7.7240    8.0200 C.3    68  LEU68       0.1561
     92  C          8.9330   -8.5280    7.7030 C.2    68  LEU68       0.2260
     93  O          8.8930   -9.2470    6.7050 O.2    68  LEU68      -0.2867
     94  CB        11.0510   -8.4570    9.0590 C.3    68  LEU68       0.0270
     95  CG        11.6330   -9.7990    8.6130 C.3    68  LEU68       0.0019
     96  CD1       12.6320   -9.5870    7.4790 C.3    68  LEU68       0.0001
     97  CD2       12.2840  -10.5240    9.7820 C.3    68  LEU68       0.0001
     98  N         17.1080   -5.5160    4.8380 N.3    80  LEU80      -0.1245
     99  CA        18.1180   -6.5510    4.9770 C.3    80  LEU80       0.1561
    100  C         19.4120   -6.1700    4.2640 C.2    80  LEU80       0.2260
    101  O         20.4890   -6.2770    4.8380 O.2    80  LEU80      -0.2867
    102  CB        17.5890   -7.9010    4.4850 C.3    80  LEU80       0.0270
    103  CG        17.0670   -8.8860    5.5380 C.3    80  LEU80       0.0019
    104  CD1       16.2240   -8.1950    6.6090 C.3    80  LEU80       0.0001
    105  CD2       16.2680   -9.9900    4.8740 C.3    80  LEU80       0.0001
    106  N         23.2400   -5.4650    6.1420 N.3    84  PHE84      -0.1241
    107  CA        24.4620   -6.1900    5.8150 C.3    84  PHE84       0.1605
    108  C         25.5210   -5.3010    5.1320 C.2    84  PHE84       0.2264
    109  O         26.7250   -5.5190    5.2840 O.2    84  PHE84      -0.2867
    110  CB        24.1470   -7.4900    5.0550 C.3    84  PHE84       0.0534
    111  CG        23.4880   -8.5430    5.9270 C.ar   84  PHE84      -0.0203
    112  CD1       24.1780   -9.0910    7.0030 C.ar   84  PHE84      -0.0042
    113  CD2       22.1850   -8.9650    5.6890 C.ar   84  PHE84      -0.0042
    114  CE1       23.5780  -10.0410    7.8350 C.ar   84  PHE84      -0.0003
    115  CE2       21.5790   -9.9160    6.5100 C.ar   84  PHE84      -0.0003
    116  CZ        22.2850  -10.4530    7.5870 C.ar   84  PHE84      -0.0000
    117  N         21.2230   -7.3930   25.5650 N.3   104  HIS104     -0.1241
    118  CA        21.1500   -8.5630   24.7020 C.3   104  HIS104      0.1621
    119  C         21.4060   -8.1890   23.2380 C.2   104  HIS104      0.2264
    120  O         21.1490   -7.0590   22.8240 O.2   104  HIS104     -0.2867
    121  CB        19.7860   -9.2440   24.8330 C.3   104  HIS104      0.0745
    122  CG        19.3720   -9.4950   26.2500 C.ar  104  HIS104      0.0817
    123  ND1       20.1230  -10.2540   27.1210 N.ar  104  HIS104     -0.2268
    124  CD2       18.2850   -9.0860   26.9460 C.ar  104  HIS104      0.1154
    125  CE1       19.5140  -10.3050   28.2930 C.ar  104  HIS104      0.1986
    126  NE2       18.3970   -9.6040   28.2130 N.ar  104  HIS104     -0.2212
    127  N         20.4720   -9.9490   19.5960 N.3   106  ILE106     -0.1231
    128  CA        19.7640  -11.0500   18.9700 C.3   106  ILE106      0.1692
    129  C         19.7690  -10.8870   17.4400 C.2   106  ILE106      0.2592
    130  O         19.5780   -9.7870   16.9360 O.2   106  ILE106     -0.2718
    131  CB        18.3110  -11.0910   19.4420 C.3   106  ILE106      0.0266
    132  CG1       18.2330  -11.1080   20.9840 C.3   106  ILE106      0.0019
    133  CG2       17.5980  -12.2940   18.8390 C.3   106  ILE106      0.0020
    134  CD1       18.8490  -12.3440   21.6180 C.3   106  ILE106      0.0001
    135  N         19.9910  -11.9830   16.7230 N.am  107  ALA107     -0.1966
    136  CA        19.9220  -11.9730   15.2500 C.3   107  ALA107      0.1728
    137  C         20.8200  -10.8970   14.6400 C.2   107  ALA107      0.2616
    138  O         22.0330  -10.9120   14.8440 O.2   107  ALA107     -0.2715
    139  CB        18.4910  -11.8040   14.7940 C.3   107  ALA107      0.0334
    140  N         20.2430   -9.9610   13.8860 N.am  108  MET108     -0.1977
    141  CA        21.0730   -8.9200   13.2800 C.3   108  MET108      0.1605
    142  C         21.8280   -8.1020   14.3360 C.2   108  MET108      0.2287
    143  O         22.8960   -7.5570   14.0520 O.2   108  MET108     -0.2864
    144  CB        20.2770   -8.0110   12.3390 C.3   108  MET108      0.0413
    145  CG        21.1470   -7.0350   11.5380 C.3   108  MET108      0.0598
    146  SD        22.2950   -7.7850   10.3410 S.3   108  MET108     -0.1393
    147  CE        23.7190   -6.7200   10.5210 C.3   108  MET108      0.0692
    148  N         24.7880  -10.0360   14.7070 N.3   111  PHE111     -0.1241
    149  CA        25.6410   -9.9750   13.5140 C.3   111  PHE111      0.1605
    150  C         26.3900   -8.6480   13.5120 C.2   111  PHE111      0.2264
    151  O         27.5850   -8.5930   13.2160 O.2   111  PHE111     -0.2867
    152  CB        24.8150  -10.1680   12.2240 C.3   111  PHE111      0.0534
    153  CG        23.9210  -11.3740   12.2730 C.ar  111  PHE111     -0.0203
    154  CD1       24.2940  -12.4880   13.0030 C.ar  111  PHE111     -0.0042
    155  CD2       22.7020  -11.3900   11.6110 C.ar  111  PHE111     -0.0042
    156  CE1       23.4660  -13.6010   13.0820 C.ar  111  PHE111     -0.0003
    157  CE2       21.8730  -12.5020   11.6870 C.ar  111  PHE111     -0.0003
    158  CZ        22.2540  -13.6010   12.4160 C.ar  111  PHE111     -0.0000
    159  N         18.7520  -16.2370   16.5880 N.3   130  ASN130     -0.1225
    160  CA        17.5710  -17.0270   16.9400 C.3   130  ASN130      0.1785
    161  C         16.7270  -17.4350   15.7380 C.2   130  ASN130      0.2597
    162  O         15.6380  -17.9920   15.9030 O.2   130  ASN130     -0.2718
    163  CB        16.6950  -16.2730   17.9420 C.3   130  ASN130      0.1169
    164  CG        16.0030  -15.0720   17.3180 C.2   130  ASN130      0.2627
    165  OD1       16.5510  -14.4190   16.4260 O.2   130  ASN130     -0.2716
    166  ND2       14.7900  -14.7770   17.7820 N.am  130  ASN130     -0.0877
    167  N         17.2290  -17.1580   14.5360 N.am  131  GLU131     -0.1979
    168  CA        16.4850  -17.4430   13.3090 C.3   131  GLU131      0.1602
    169  C         15.8220  -18.8250   13.2990 C.2   131  GLU131      0.2287
    170  O         14.6160  -18.9440   13.1010 O.2   131  GLU131     -0.2864
    171  CB        17.3860  -17.2760   12.0790 C.3   131  GLU131      0.0415
    172  CG        17.6120  -15.8190   11.6570 C.3   131  GLU131      0.1163
    173  CD        18.6290  -15.0670   12.5170 C.2   131  GLU131      0.3649
    174  OE1       19.1480  -15.6340   13.5090 O.co2 131  GLU131     -0.2457
    175  OE2       18.9060  -13.8880   12.1970 O.co2 131  GLU131     -0.2457
    176  N         12.8030  -19.3230   15.3730 N.3   134  ILE134     -0.1245
    177  CA        11.5640  -18.6880   14.9260 C.3   134  ILE134      0.1561
    178  C         11.2210  -18.9990   13.4710 C.2   134  ILE134      0.2260
    179  O         10.4100  -18.3130   12.8590 O.2   134  ILE134     -0.2867
    180  CB        11.5720  -17.1580   15.1430 C.3   134  ILE134      0.0252
    181  CG1       12.7130  -16.5170   14.3530 C.3   134  ILE134      0.0019
    182  CG2       11.6670  -16.8210   16.6370 C.3   134  ILE134      0.0019
    183  CD1       12.6390  -15.0190   14.3190 C.3   134  ILE134      0.0001
    184  N         13.2110  -19.2210   10.5780 N.3   136  MET136     -0.1230
    185  CA        13.8870  -18.6150    9.4310 C.3   136  MET136      0.1702
    186  C         15.2630  -19.2320    9.1950 C.2   136  MET136      0.2593
    187  O         15.9360  -19.6600   10.1370 O.2   136  MET136     -0.2718
    188  CB        13.9880  -17.0900    9.5870 C.3   136  MET136      0.0401
    189  CG        12.6480  -16.3900    9.4120 C.3   136  MET136      0.0596
    190  SD        12.7340  -14.5900    9.3310 S.3   136  MET136     -0.1393
    191  CE        12.3640  -14.1470   11.0270 C.3   136  MET136      0.0692
    192  N         15.6630  -19.2950    7.9300 N.am  137  THR137     -0.1953
    193  CA        17.0060  -19.7420    7.5740 C.3   137  THR137      0.1897
    194  C         17.9450  -18.5530    7.6520 C.2   137  THR137      0.2313
    195  O         17.5630  -17.4340    7.3200 O.2   137  THR137     -0.2863
    196  CB        17.0490  -20.3300    6.1600 C.3   137  THR137      0.1794
    197  OG1       16.1460  -21.4400    6.0800 O.3   137  THR137     -0.2208
    198  CG2       18.4600  -20.7900    5.8120 C.3   137  THR137      0.0378
    199  N         20.6310  -16.0010    6.6190 N.3   139  PRO139     -0.2116
    200  CA        21.1530  -15.4990    5.3420 C.3   139  PRO139      0.1372
    201  C         22.6460  -15.7610    5.2270 C.2   139  PRO139      0.2244
    202  O         23.3500  -15.7760    6.2350 O.2   139  PRO139     -0.2868
    203  CB        20.8980  -13.9900    5.4230 C.3   139  PRO139      0.0268
    204  CG        19.8340  -13.8270    6.4400 C.3   139  PRO139      0.0207
    205  CD        20.0230  -14.9310    7.4240 C.3   139  PRO139      0.0892
    206  N         14.8070  -14.9780   -0.3960 N.3   230  PHE230     -0.1241
    207  CA        13.3520  -15.0180   -0.4800 C.3   230  PHE230      0.1605
    208  C         12.8960  -15.9040   -1.6410 C.2   230  PHE230      0.2264
    209  O         11.7340  -16.3130   -1.7100 O.2   230  PHE230     -0.2867
    210  CB        12.7940  -13.5980   -0.6690 C.3   230  PHE230      0.0534
    211  CG        12.9600  -12.7040    0.5360 C.ar  230  PHE230     -0.0203
    212  CD1       14.1830  -12.1130    0.8200 C.ar  230  PHE230     -0.0042
    213  CD2       11.8860  -12.4410    1.3770 C.ar  230  PHE230     -0.0042
    214  CE1       14.3350  -11.2870    1.9290 C.ar  230  PHE230     -0.0003
    215  CE2       12.0320  -11.6150    2.4900 C.ar  230  PHE230     -0.0003
    216  CZ        13.2570  -11.0400    2.7650 C.ar  230  PHE230     -0.0000
@<TRIPOS>BOND
     1   209   208    2
     2   208   207    1
     3   210   207    1
     4   210   211    1
     5   207   206    1
     6   211   212   ar
     7   211   213   ar
     8   212   214   ar
     9   213   215   ar
    10   214   216   ar
    11   215   216   ar
    12   100   101    2
    13   100    99    1
    14   102    99    1
    15   102   103    1
    16    98    99    1
    17   105   103    1
    18   110   107    1
    19   110   111    1
    20   108   109    2
    21   108   107    1
    22   201   200    1
    23   201   202    2
    24   200   203    1
    25   200   199    1
    26   203   204    1
    27   103   104    1
    28   113   111   ar
    29   113   115   ar
    30   198   196    1
    31   107   106    1
    32   111   112   ar
    33   197   196    1
    34   196   193    1
    35   204   205    1
    36   115   116   ar
    37   199   205    1
    38    93    92    2
    39   112   114   ar
    40   195   194    2
    41    96    95    1
    42   193   194    1
    43   193   192    1
    44   116   114   ar
    45    92    91    1
    46   192   186   am
    47    91    90    1
    48    91    94    1
    49    64    62   ar
    50    64    63   ar
    51    95    94    1
    52    95    97    1
    53    62    60   ar
    54    63    61   ar
    55   186   185    1
    56   186   187    2
    57   190   189    1
    58   190   191    1
    59   189   188    1
    60   185   188    1
    61   185   184    1
    62    84    83    2
    63    60    59   ar
    64    61    59   ar
    65    59    58    1
    66    83    82    1
    67   146   147    1
    68   146   145    1
    69    68    67    2
    70    58    55    1
    71    76    75    2
    72   145   144    1
    73   155   157   ar
    74   155   153   ar
    75   172   171    1
    76   172   173    1
    77   157   158   ar
    78    82    85    1
    79    82    81    1
    80    69    70    1
    81    69    66    1
    82   171   168    1
    83    75    81   am
    84    75    74    1
    85    67    66    1
    86    67    73   am
    87   175   173   ar
    88    72    70   ar
    89   152   153    1
    90   152   149    1
    91    55    56    1
    92    55    54    1
    93   153   154   ar
    94    65    66    1
    95    65    56   am
    96    85    86    1
    97   144   141    1
    98   158   156   ar
    99    70    71   ar
   100   173   174   ar
   101    74    73    1
   102    74    77    1
   103    56    57    2
   104   179   178    2
   105   154   156   ar
   106   170   169    2
   107    54    52   am
   108   151   150    2
   109   141   140    1
   110   141   142    1
   111   169   168    1
   112   168   167    1
   113   178   177    1
   114   150   149    1
   115   149   148    1
   116    80    78    1
   117    86    87    1
   118   140   137   am
   119    77    78    1
   120   143   142    2
   121    87    88    1
   122   183   181    1
   123   181   180    1
   124    52    53    2
   125    52    51    1
   126   167   161   am
   127   137   138    2
   128   137   136    1
   129    20    19    2
   130    78    79    1
   131    19    18    1
   132   139   136    1
   133   177   180    1
   134   177   176    1
   135   180   182    1
   136   136   135    1
   137    51    50    1
   138    89    88    1
   139    21    18    1
   140   161   162    2
   141   161   160    1
   142    18    17    1
   143   165   164    2
   144   159   160    1
   145    50    48   am
   146   135   129   am
   147   130   129    2
   148   160   163    1
   149    49    48    2
   150    45    44    1
   151   164   166   am
   152   164   163    1
   153   129   128    1
   154    48    47    1
   155    44    41    1
   156   133   131    1
   157     9     8    1
   158   128   131    1
   159   128   127    1
   160    47    46    1
   161    46    42   am
   162    42    43    2
   163    42    41    1
   164   131   132    1
   165    41    40    1
   166     8     7    1
   167    13    12    2
   168    16    14    1
   169    12    11    1
   170     7     6    1
   171   132   134    1
   172    14    11    1
   173    14    15    1
   174    11    10    1
   175    10     3   am
   176     5     6    1
   177     5     2    1
   178     3     2    1
   179     3     4    2
   180     1     2    1
   181    39    37    1
   182   120   119    2
   183   119   118    1
   184    37    38    1
   185    37    34    1
   186    35    36    2
   187    35    34    1
   188   118   121    1
   189   118   117    1
   190    34    33    1
   191   121   122    1
   192    33    24   am
   193   122   124   ar
   194   122   123   ar
   195    24    25    2
   196    24    23    1
   197    32    30    1
   198   124   126   ar
   199    28    27    1
   200    28    29    1
   201   123   125   ar
   202    26    27    1
   203    26    23    1
   204    23    22    1
   205    30    29    2
   206    30    31    1
   207   126   125   ar
