@<TRIPOS>MOLECULE
tmp/4fneA01.pdb
 86 78 0 0 0
SMALL
GASTEIGER

@<TRIPOS>ATOM
      1  N          0.8600   29.0790   12.5150 N.3    44  LEU44      -0.1231
      2  CA        -0.3520   28.2940   12.6810 C.3    44  LEU44       0.1693
      3  C         -1.4870   28.7610   11.7630 C.2    44  LEU44       0.2591
      4  O         -2.2300   27.9470   11.2030 O.2    44  LEU44      -0.2718
      5  CB        -0.8060   28.3470   14.1320 C.3    44  LEU44       0.0284
      6  CG        -2.0520   27.5360   14.4930 C.3    44  LEU44       0.0019
      7  CD1       -1.7590   26.0260   14.5210 C.3    44  LEU44       0.0001
      8  CD2       -2.6290   28.0320   15.8180 C.3    44  LEU44       0.0001
      9  N         -1.6220   30.0670   11.6050 N.am   45  VAL45      -0.1980
     10  CA        -2.6200   30.5650   10.6800 C.3    45  VAL45       0.1595
     11  C         -2.2820   30.1010    9.2480 C.2    45  VAL45       0.2287
     12  O         -3.0960   29.4440    8.5970 O.2    45  VAL45      -0.2864
     13  CB        -2.8640   32.0950   10.8350 C.3    45  VAL45       0.0276
     14  CG1       -3.3210   32.3930   12.2590 C.3    45  VAL45       0.0022
     15  CG2       -1.6230   32.8990   10.5470 C.3    45  VAL45       0.0022
     16  N         -2.8830   26.3080    8.7270 N.3    48  VAL48      -0.1245
     17  CA        -4.2360   25.7660    8.6920 C.3    48  VAL48       0.1561
     18  C         -4.8270   26.1210    7.3450 C.2    48  VAL48       0.2260
     19  O         -5.4060   25.2780    6.6560 O.2    48  VAL48      -0.2867
     20  CB        -5.1440   26.2540    9.8950 C.3    48  VAL48       0.0252
     21  CG1       -4.6540   25.6840   11.2120 C.3    48  VAL48       0.0019
     22  CG2       -5.1960   27.7820    9.9950 C.3    48  VAL48       0.0019
     23  N         -6.2020   23.4920    4.4890 N.3    52  LYS52      -0.1245
     24  CA        -7.5100   23.5810    3.8410 C.3    52  LYS52       0.1561
     25  C         -7.3830   23.4920    2.3160 C.2    52  LYS52       0.2260
     26  O         -8.1650   22.7960    1.6810 O.2    52  LYS52      -0.2867
     27  CB        -8.2560   24.8320    4.2870 C.3    52  LYS52       0.0271
     28  CG        -8.9170   24.6820    5.6580 C.3    52  LYS52       0.0035
     29  CD        -9.2850   26.0430    6.2460 C.3    52  LYS52       0.0206
     30  CE       -10.1260   25.8900    7.5100 C.3    52  LYS52       0.1093
     31  NZ       -10.2500   27.1740    8.2680 N.3    52  LYS52      -0.1314
     32  N         -9.3630   18.7850   12.2950 N.3    66  MET66      -0.1245
     33  CA        -8.8280   19.4950   13.4610 C.3    66  MET66       0.1570
     34  C         -7.8700   18.6590   14.3080 C.2    66  MET66       0.2261
     35  O         -6.8450   19.1580   14.7750 O.2    66  MET66      -0.2867
     36  CB        -9.9450   20.1210   14.3020 C.3    66  MET66       0.0387
     37  CG       -10.7670   21.1950   13.5590 C.3    66  MET66       0.0595
     38  SD        -9.8590   22.2670   12.3910 S.3    66  MET66      -0.1393
     39  CE        -8.9730   23.3720   13.4940 C.3    66  MET66       0.0692
     40  N         -4.4340   18.2860   12.4250 N.3    69  ILE69      -0.1231
     41  CA        -3.8020   19.5840   12.6060 C.3    69  ILE69       0.1692
     42  C         -3.2830   19.7390   14.0280 C.2    69  ILE69       0.2591
     43  O         -2.1300   20.1200   14.2510 O.2    69  ILE69      -0.2718
     44  CB        -4.7570   20.7220   12.3160 C.3    69  ILE69       0.0266
     45  CG1       -5.0190   20.8230   10.8140 C.3    69  ILE69       0.0019
     46  CG2       -4.1760   22.0270   12.8440 C.3    69  ILE69       0.0020
     47  CD1       -5.9810   21.9330   10.4500 C.3    69  ILE69       0.0001
     48  N         -4.1430   19.4160   14.9870 N.am   70  GLN70      -0.1979
     49  CA        -3.7750   19.4390   16.3870 C.3    70  GLN70       0.1601
     50  C         -2.5040   18.6280   16.6600 C.2    70  GLN70       0.2287
     51  O         -1.6250   19.0830   17.3940 O.2    70  GLN70      -0.2864
     52  CB        -4.9310   18.9110   17.2280 C.3    70  GLN70       0.0394
     53  CG        -5.1870   19.7380   18.4630 C.3    70  GLN70       0.0908
     54  CD        -6.6370   19.7340   18.8440 C.2    70  GLN70       0.2608
     55  OE1       -7.2900   20.7740   18.8160 O.2    70  GLN70      -0.2717
     56  NE2       -7.1670   18.5590   19.1810 N.am   70  GLN70      -0.0878
     57  N         -4.1620   32.2600   20.1060 N.3   226  MET226     -0.1245
     58  CA        -4.3960   31.1000   19.2210 C.3   226  MET226      0.1570
     59  C         -3.5200   29.9380   19.6470 C.2   226  MET226      0.2261
     60  O         -3.9240   28.7510   19.5910 O.2   226  MET226     -0.2867
     61  CB        -4.0650   31.4470   17.7610 C.3   226  MET226      0.0387
     62  CG        -5.2510   31.6960   16.8370 C.3   226  MET226      0.0595
     63  SD        -5.7110   30.2660   15.8280 S.3   226  MET226     -0.1393
     64  CE        -6.7930   29.3650   16.9340 C.3   226  MET226      0.0692
     65  N         -5.0320   28.4450   22.7500 N.3   229  GLU229     -0.1231
     66  CA        -6.1160   27.5960   22.2800 C.3   229  GLU229      0.1699
     67  C         -5.6300   26.2210   21.8140 C.2   229  GLU229      0.2592
     68  O         -6.0290   25.1980   22.3610 O.2   229  GLU229     -0.2718
     69  CB        -6.8890   28.3280   21.1850 C.3   229  GLU229      0.0402
     70  CG        -7.9860   27.5100   20.5330 C.3   229  GLU229      0.1161
     71  CD        -8.7850   28.3140   19.5120 C.2   229  GLU229      0.3649
     72  OE1       -8.7180   28.0080   18.2960 O.co2 229  GLU229     -0.2457
     73  OE2       -9.4740   29.2640   19.9300 O.co2 229  GLU229     -0.2457
     74  N         -4.7460   26.2140   20.8220 N.am  230  ILE230     -0.1980
     75  CA        -4.2840   24.9760   20.1940 C.3   230  ILE230      0.1595
     76  C         -3.4800   24.0820   21.1390 C.2   230  ILE230      0.2287
     77  O         -3.7560   22.8800   21.2210 O.2   230  ILE230     -0.2864
     78  CB        -3.4870   25.2570   18.8820 C.3   230  ILE230      0.0276
     79  CG1       -3.0920   23.9610   18.1520 C.3   230  ILE230      0.0022
     80  CG2       -2.2480   26.0840   19.1810 C.3   230  ILE230      0.0022
     81  CD1       -4.1810   23.3220   17.3050 C.3   230  ILE230      0.0001
     82  N         -5.8160   22.4480   23.6240 N.3   233  ALA233     -0.1245
     83  CA        -6.7200   21.4190   23.1170 C.3   233  ALA233      0.1562
     84  C         -5.9430   20.1620   22.7270 C.2   233  ALA233      0.2260
     85  O         -6.4840   19.0440   22.7140 O.2   233  ALA233     -0.2867
     86  CB        -7.5280   21.9570   21.9360 C.3   233  ALA233      0.0290
@<TRIPOS>BOND
     1    26    25    2
     2    25    24    1
     3    24    27    1
     4    24    23    1
     5    27    28    1
     6    28    29    1
     7    29    30    1
     8    19    18    2
     9    18    17    1
    10    30    31    1
    11    12    11    2
    12    17    16    1
    13    17    20    1
    14    11    10    1
    15    20    22    1
    16    20    21    1
    17    47    45    1
    18    15    13    1
    19    10    13    1
    20    10     9    1
    21    45    44    1
    22    13    14    1
    23     4     3    2
    24     9     3   am
    25     3     2    1
    26    32    33    1
    27    44    41    1
    28    44    46    1
    29    38    39    1
    30    38    37    1
    31    40    41    1
    32     1     2    1
    33    41    42    1
    34     2     5    1
    35    33    36    1
    36    33    34    1
    37    37    36    1
    38    42    43    2
    39    42    48   am
    40     5     6    1
    41    34    35    2
    42     6     7    1
    43     6     8    1
    44    48    49    1
    45    63    62    1
    46    63    64    1
    47    49    50    1
    48    49    52    1
    49    50    51    2
    50    62    61    1
    51    52    53    1
    52    81    79    1
    53    61    58    1
    54    79    78    1
    55    72    71   ar
    56    53    54    1
    57    55    54    2
    58    54    56   am
    59    78    80    1
    60    78    75    1
    61    58    59    1
    62    58    57    1
    63    71    73   ar
    64    71    70    1
    65    60    59    2
    66    75    74    1
    67    75    76    1
    68    70    69    1
    69    74    67   am
    70    76    77    2
    71    69    66    1
    72    67    66    1
    73    67    68    2
    74    86    83    1
    75    66    65    1
    76    85    84    2
    77    84    83    1
    78    83    82    1
