@<TRIPOS>MOLECULE
tmp/4fnmA00.pdb
 143 143 0 0 0
SMALL
GASTEIGER

@<TRIPOS>ATOM
      1  N        -21.3270    6.1730   24.8340 N.3   135  GLY135     -0.1210
      2  CA       -20.6440    4.9610   24.4330 C.3   135  GLY135      0.1956
      3  C        -20.8530    4.6280   22.9650 C.2   135  GLY135      0.2612
      4  O        -20.8310    3.4570   22.5910 O.2   135  GLY135     -0.2717
      5  N        -21.0720    5.6500   22.1370 N.am  136  GLY136     -0.1956
      6  CA       -21.1800    5.4620   20.6900 C.3   136  GLY136      0.1869
      7  C        -22.3210    4.5820   20.2060 C.2   136  GLY136      0.2309
      8  O        -22.3030    4.1040   19.0740 O.2   136  GLY136     -0.2863
      9  N        -24.3580   12.1960   27.9430 N.3   216  GLU216     -0.1231
     10  CA       -23.0840   12.6640   27.4170 C.3   216  GLU216      0.1699
     11  C        -22.7290   11.8580   26.1600 C.2   216  GLU216      0.2593
     12  O        -22.9420   10.6470   26.1360 O.2   216  GLU216     -0.2718
     13  CB       -22.0060   12.5020   28.4830 C.3   216  GLU216      0.0402
     14  CG       -20.6640   13.0920   28.1080 C.3   216  GLU216      0.1161
     15  CD       -19.7110   12.0410   27.5690 C.2   216  GLU216      0.3649
     16  OE1      -20.0310   10.8350   27.6780 O.co2 216  GLU216     -0.2457
     17  OE2      -18.6500   12.4230   27.0370 O.co2 216  GLU216     -0.2457
     18  N        -22.2220   12.5370   25.1320 N.am  217  SER217     -0.1938
     19  CA       -21.8140   11.9150   23.8830 C.3   217  SER217      0.2055
     20  C        -22.9750   11.2260   23.2060 C.2   217  SER217      0.2642
     21  O        -23.9490   11.8830   22.8750 O.2   217  SER217     -0.2714
     22  CB       -20.6370   10.9990   24.0570 C.3   217  SER217      0.2130
     23  OG       -19.9790   10.6210   22.8930 O.3   217  SER217     -0.2179
     24  N        -22.9080    9.9130   22.9880 N.am  218  ALA218     -0.1977
     25  CA       -24.0660    9.2200   22.4290 C.3   218  ALA218      0.1597
     26  C        -25.3060    9.4080   23.3130 C.2   218  ALA218      0.2287
     27  O        -26.4290    9.3420   22.8220 O.2   218  ALA218     -0.2864
     28  CB       -23.7840    7.7410   22.1930 C.3   218  ALA218      0.0319
     29  N        -21.3260   11.5700   13.7380 N.3   250  TRP250     -0.1241
     30  CA       -21.2670   10.2240   14.2920 C.3   250  TRP250      0.1605
     31  C        -22.6080    9.7500   14.8600 C.2   250  TRP250      0.2264
     32  O        -22.7610    8.5850   15.2320 O.2   250  TRP250     -0.2867
     33  CB       -20.1890   10.1510   15.3800 C.3   250  TRP250      0.0550
     34  CG       -20.2890   11.2420   16.4060 C.ar  250  TRP250      0.0003
     35  CD1      -19.5770   12.4090   16.4330 C.ar  250  TRP250      0.0946
     36  CD2      -21.1580   11.2770   17.5430 C.ar  250  TRP250      0.0152
     37  NE1      -19.9380   13.1590   17.5240 N.ar  250  TRP250     -0.2442
     38  CE2      -20.9100   12.4900   18.2210 C.ar  250  TRP250      0.0810
     39  CE3      -22.1030   10.3940   18.0670 C.ar  250  TRP250      0.0012
     40  CZ2      -21.5870   12.8470   19.3850 C.ar  250  TRP250      0.0191
     41  CZ3      -22.7890   10.7600   19.2340 C.ar  250  TRP250      0.0001
     42  CH2      -22.5240   11.9770   19.8720 C.ar  250  TRP250      0.0015
     43  N        -18.1880    6.3930   11.7050 N.3   307  MET307     -0.1230
     44  CA       -17.5760    5.9140   12.9490 C.3   307  MET307      0.1702
     45  C        -18.0630    4.5410   13.3800 C.2   307  MET307      0.2592
     46  O        -17.2930    3.7350   13.9040 O.2   307  MET307     -0.2718
     47  CB       -17.8310    6.8950   14.0980 C.3   307  MET307      0.0401
     48  CG       -16.7420    7.9250   14.3090 C.3   307  MET307      0.0596
     49  SD       -16.1310    7.8950   16.0060 S.3   307  MET307     -0.1393
     50  CE       -15.2760    6.3210   16.0100 C.3   307  MET307      0.0692
     51  N        -19.3590    4.3000   13.1970 N.am  308  PHE308     -0.1976
     52  CA       -19.9880    3.0590   13.6350 C.3   308  PHE308      0.1639
     53  C        -20.8770    2.4660   12.5430 C.2   308  PHE308      0.2290
     54  O        -21.5390    3.1970   11.8120 O.2   308  PHE308     -0.2864
     55  CB       -20.8190    3.3030   14.9020 C.3   308  PHE308      0.0560
     56  CG       -20.0690    4.0220   15.9860 C.ar  308  PHE308     -0.0200
     57  CD1      -19.1560    3.3480   16.7750 C.ar  308  PHE308     -0.0042
     58  CD2      -20.2870    5.3640   16.2180 C.ar  308  PHE308     -0.0042
     59  CE1      -18.4570    4.0100   17.7730 C.ar  308  PHE308     -0.0003
     60  CE2      -19.6020    6.0360   17.2170 C.ar  308  PHE308     -0.0003
     61  CZ       -18.6840    5.3540   17.9960 C.ar  308  PHE308     -0.0000
     62  N         -9.2700   13.1310   23.1730 N.3   353  PHE353     -0.1227
     63  CA        -9.7320   11.7530   23.2950 C.3   353  PHE353      0.1736
     64  C         -9.0050   10.8280   22.3140 C.2   353  PHE353      0.2595
     65  O         -8.8180    9.6490   22.5900 O.2   353  PHE353     -0.2718
     66  CB       -11.2380   11.7220   23.0330 C.3   353  PHE353      0.0547
     67  CG       -11.9200   10.4570   23.4690 C.ar  353  PHE353     -0.0202
     68  CD1      -12.1500   10.2040   24.8120 C.ar  353  PHE353     -0.0042
     69  CD2      -12.3850    9.5490   22.5320 C.ar  353  PHE353     -0.0042
     70  CE1      -12.8010    9.0510   25.2160 C.ar  353  PHE353     -0.0003
     71  CE2      -13.0410    8.3920   22.9300 C.ar  353  PHE353     -0.0003
     72  CZ       -13.2480    8.1470   24.2760 C.ar  353  PHE353     -0.0000
     73  N         -8.5870   11.3750   21.1750 N.am  354  PHE354     -0.1976
     74  CA        -7.9860   10.5770   20.1100 C.3   354  PHE354      0.1639
     75  C         -6.4710   10.3710   20.2540 C.2   354  PHE354      0.2290
     76  O         -5.8290    9.8500   19.3470 O.2   354  PHE354     -0.2864
     77  CB        -8.2970   11.1960   18.7420 C.3   354  PHE354      0.0560
     78  CG        -9.7600   11.2020   18.3990 C.ar  354  PHE354     -0.0200
     79  CD1      -10.3420   10.1060   17.7860 C.ar  354  PHE354     -0.0042
     80  CD2      -10.5550   12.3010   18.6930 C.ar  354  PHE354     -0.0042
     81  CE1      -11.6880   10.1040   17.4680 C.ar  354  PHE354     -0.0003
     82  CE2      -11.9040   12.3040   18.3840 C.ar  354  PHE354     -0.0003
     83  CZ       -12.4690   11.2040   17.7710 C.ar  354  PHE354     -0.0000
     84  N        -16.2710   16.8270   15.3500 N.3   419  TYR419     -0.1227
     85  CA       -17.1630   15.9210   16.0600 C.3   419  TYR419      0.1736
     86  C        -18.0850   16.6230   17.0530 C.2   419  TYR419      0.2595
     87  O        -19.1230   16.0650   17.4270 O.2   419  TYR419     -0.2718
     88  CB       -16.3710   14.8280   16.7880 C.3   419  TYR419      0.0548
     89  CG       -15.6540   13.8550   15.8650 C.ar  419  TYR419     -0.0200
     90  CD1      -16.3600   12.9000   15.1460 C.ar  419  TYR419     -0.0009
     91  CD2      -14.2750   13.8890   15.7220 C.ar  419  TYR419     -0.0009
     92  CE1      -15.7090   12.0070   14.3050 C.ar  419  TYR419      0.0417
     93  CE2      -13.6120   13.0010   14.8790 C.ar  419  TYR419      0.0417
     94  CZ       -14.3310   12.0600   14.1790 C.ar  419  TYR419      0.1957
     95  OH       -13.6760   11.1750   13.3470 O.3   419  TYR419     -0.2866
     96  N        -17.7160   17.8190   17.4990 N.am  420  PHE420     -0.1976
     97  CA       -18.4910   18.4500   18.5890 C.3   420  PHE420      0.1639
     98  C        -18.9160   19.9080   18.3800 C.2   420  PHE420      0.2290
     99  O        -20.1200   20.2050   18.3330 O.2   420  PHE420     -0.2864
    100  CB       -17.7740   18.2650   19.9340 C.3   420  PHE420      0.0560
    101  CG       -17.4970   16.8270   20.2620 C.ar  420  PHE420     -0.0200
    102  CD1      -18.5240   15.9900   20.6960 C.ar  420  PHE420     -0.0042
    103  CD2      -16.2300   16.2980   20.0980 C.ar  420  PHE420     -0.0042
    104  CE1      -18.2800   14.6650   20.9790 C.ar  420  PHE420     -0.0003
    105  CE2      -15.9860   14.9700   20.3640 C.ar  420  PHE420     -0.0003
    106  CZ       -17.0120   14.1490   20.8150 C.ar  420  PHE420     -0.0000
    107  N        -13.0730    5.7860   31.3110 N.3   456  TYR456     -0.1241
    108  CA       -12.7860    6.1830   29.9390 C.3   456  TYR456      0.1605
    109  C        -11.3390    6.6160   29.7800 C.2   456  TYR456      0.2264
    110  O        -10.7590    6.4970   28.6980 O.2   456  TYR456     -0.2867
    111  CB       -13.6850    7.3420   29.5190 C.3   456  TYR456      0.0534
    112  CG       -15.0030    6.9310   28.9340 C.ar  456  TYR456     -0.0201
    113  CD1      -15.0610    6.2420   27.7320 C.ar  456  TYR456     -0.0009
    114  CD2      -16.1940    7.2660   29.5570 C.ar  456  TYR456     -0.0009
    115  CE1      -16.2760    5.8750   27.1750 C.ar  456  TYR456      0.0417
    116  CE2      -17.4200    6.9090   29.0030 C.ar  456  TYR456      0.0417
    117  CZ       -17.4520    6.2090   27.8160 C.ar  456  TYR456      0.1957
    118  OH       -18.6570    5.8550   27.2490 O.3   456  TYR456     -0.2866
    119  N         -9.6360    3.5220   29.1160 N.3   459  MET459     -0.1245
    120  CA       -10.0050    3.0630   27.7850 C.3   459  MET459      0.1570
    121  C         -9.2430    3.8160   26.6830 C.2   459  MET459      0.2261
    122  O         -8.8620    3.2150   25.6770 O.2   459  MET459     -0.2867
    123  CB       -11.5110    3.1840   27.5640 C.3   459  MET459      0.0387
    124  CG       -11.9210    2.8630   26.1400 C.3   459  MET459      0.0595
    125  SD       -13.5180    3.5690   25.7170 S.3   459  MET459     -0.1393
    126  CE       -13.4230    3.5490   23.9250 C.3   459  MET459      0.0692
    127  N        -12.7520   14.7980   25.9300 N.3   470  HIS470     -0.1226
    128  CA       -14.0460   14.1480   25.8700 C.3   470  HIS470      0.1752
    129  C        -14.1820   13.1310   27.0080 C.2   470  HIS470      0.2596
    130  O        -13.2960   12.3100   27.2180 O.2   470  HIS470     -0.2718
    131  CB       -14.1630   13.4220   24.5350 C.3   470  HIS470      0.0759
    132  CG       -15.5420   12.9460   24.2220 C.ar  470  HIS470      0.0818
    133  ND1      -16.6350   13.7880   24.2110 N.ar  470  HIS470     -0.2268
    134  CD2      -16.0060   11.7180   23.8870 C.ar  470  HIS470      0.1154
    135  CE1      -17.7150   13.0940   23.8910 C.ar  470  HIS470      0.1986
    136  NE2      -17.3610   11.8370   23.6910 N.ar  470  HIS470     -0.2212
    137  N        -15.2840   13.2160   27.7460 N.am  471  THR471     -0.1953
    138  CA       -15.6320   12.2930   28.8440 C.3   471  THR471      0.1897
    139  C        -15.0580   12.6590   30.2200 C.2   471  THR471      0.2313
    140  O        -15.4830   12.0960   31.2310 O.2   471  THR471     -0.2863
    141  CB       -15.3390   10.7790   28.5530 C.3   471  THR471      0.1794
    142  OG1      -13.9500   10.4760   28.7500 O.3   471  THR471     -0.2208
    143  CG2      -15.7740   10.3770   27.1430 C.3   471  THR471      0.0378
@<TRIPOS>BOND
     1    43    44    1
     2    54    53    2
     3    53    52    1
     4    44    45    1
     5    44    47    1
     6    51    45   am
     7    51    52    1
     8    95    94    1
     9    45    46    2
    10    52    55    1
    11    29    30    1
    12    47    48    1
    13    94    92   ar
    14    94    93   ar
    15    30    31    1
    16    30    33    1
    17    92    90   ar
    18    48    49    1
    19    31    32    2
    20    93    91   ar
    21    55    56    1
    22    90    89   ar
    23    84    85    1
    24    33    34    1
    25    91    89   ar
    26    89    88    1
    27    56    58   ar
    28    56    57   ar
    29    49    50    1
    30    85    88    1
    31    85    86    1
    32    58    60   ar
    33    34    35   ar
    34    34    36   ar
    35    35    37   ar
    36    57    59   ar
    37    86    87    2
    38    86    96   am
    39    60    61   ar
    40    81    83   ar
    41    81    79   ar
    42    96    97    1
    43    37    38   ar
    44    36    39   ar
    45    36    38   ar
    46    83    82   ar
    47    59    61   ar
    48    79    78   ar
    49    39    41   ar
    50    38    40   ar
    51    99    98    2
    52    98    97    1
    53    82    80   ar
    54    78    80   ar
    55    78    77    1
    56    97   100    1
    57    77    74    1
    58     8     7    2
    59    41    42   ar
    60    76    75    2
    61    40    42   ar
    62   100   101    1
    63   103   101   ar
    64   103   105   ar
    65    74    75    1
    66    74    73    1
    67     7     6    1
    68   101   102   ar
    69   105   106   ar
    70     6     5    1
    71   102   104   ar
    72   106   104   ar
    73    73    64   am
    74     5     3   am
    75    28    25    1
    76    64    65    2
    77    64    63    1
    78    25    24    1
    79    25    26    1
    80    69    71   ar
    81    69    67   ar
    82     4     3    2
    83    27    26    2
    84    21    20    2
    85    23    22    1
    86    71    72   ar
    87     3     2    1
    88    24    20   am
    89    66    63    1
    90    66    67    1
    91    62    63    1
    92    20    19    1
    93    67    68   ar
    94   136   134   ar
    95   136   135   ar
    96    19    22    1
    97    19    18    1
    98   134   132   ar
    99   135   133   ar
   100   126   125    1
   101   133   132   ar
   102   132   131    1
   103    72    70   ar
   104     2     1    1
   105   131   128    1
   106    68    70   ar
   107    18    11   am
   108   122   121    2
   109   125   124    1
   110   128   127    1
   111   128   129    1
   112    12    11    2
   113   124   123    1
   114    11    10    1
   115   121   120    1
   116   129   130    2
   117   129   137   am
   118    17    15   ar
   119   143   141    1
   120   115   113   ar
   121   115   117   ar
   122   118   117    1
   123    10     9    1
   124    10    13    1
   125   123   120    1
   126    15    16   ar
   127    15    14    1
   128   113   112   ar
   129   137   138    1
   130   120   119    1
   131   117   116   ar
   132    14    13    1
   133   141   142    1
   134   141   138    1
   135   110   109    2
   136   138   139    1
   137   112   111    1
   138   112   114   ar
   139   116   114   ar
   140   111   108    1
   141   109   108    1
   142   108   107    1
   143   139   140    2
