@<TRIPOS>MOLECULE
tmp/4fnsC00.pdb
 125 119 0 0 0
SMALL
GASTEIGER

@<TRIPOS>ATOM
      1  N        -44.4010    5.4880  -51.4240 N.3   327  TRP327     -0.1241
      2  CA       -44.5050    4.5640  -50.2930 C.3   327  TRP327      0.1605
      3  C        -45.8730    3.8980  -50.1490 C.2   327  TRP327      0.2264
      4  O        -45.9590    2.6810  -50.0120 O.2   327  TRP327     -0.2867
      5  CB       -44.1150    5.2490  -48.9800 C.3   327  TRP327      0.0550
      6  CG       -44.3960    4.4060  -47.7710 C.ar  327  TRP327      0.0003
      7  CD1      -45.2970    4.6680  -46.7810 C.ar  327  TRP327      0.0946
      8  CD2      -43.7850    3.1530  -47.4360 C.ar  327  TRP327      0.0152
      9  NE1      -45.2790    3.6620  -45.8460 N.ar  327  TRP327     -0.2442
     10  CE2      -44.3590    2.7190  -46.2250 C.ar  327  TRP327      0.0810
     11  CE3      -42.8060    2.3570  -48.0410 C.ar  327  TRP327      0.0012
     12  CZ2      -43.9870    1.5260  -45.6060 C.ar  327  TRP327      0.0191
     13  CZ3      -42.4380    1.1730  -47.4250 C.ar  327  TRP327      0.0001
     14  CH2      -43.0270    0.7690  -46.2210 C.ar  327  TRP327      0.0015
     15  N        -38.7750    6.0490  -52.1890 N.3   357  ASP357     -0.1225
     16  CA       -38.8520    5.7060  -50.7740 C.3   357  ASP357      0.1805
     17  C        -38.1000    4.4150  -50.4470 C.2   357  ASP357      0.2597
     18  O        -37.1970    4.0100  -51.1780 O.2   357  ASP357     -0.2718
     19  CB       -40.3120    5.6180  -50.3170 C.3   357  ASP357      0.1424
     20  CG       -40.4940    6.0210  -48.8630 C.2   357  ASP357      0.3668
     21  OD1      -40.6130    5.1200  -48.0070 O.co2 357  ASP357     -0.2456
     22  OD2      -40.5100    7.2370  -48.5770 O.co2 357  ASP357     -0.2456
     23  N        -38.4810    3.7830  -49.3410 N.am  358  ASP358     -0.1974
     24  CA       -37.8260    2.5740  -48.8550 C.3   358  ASP358      0.1709
     25  C        -37.9360    1.4350  -49.8660 C.2   358  ASP358      0.2293
     26  O        -38.9860    1.2350  -50.4750 O.2   358  ASP358     -0.2864
     27  CB       -38.4540    2.1490  -47.5240 C.3   358  ASP358      0.1436
     28  CG       -37.5750    1.1950  -46.7330 C.2   358  ASP358      0.3671
     29  OD1      -36.5400    0.7410  -47.2650 O.co2 358  ASP358     -0.2456
     30  OD2      -37.9280    0.8930  -45.5740 O.co2 358  ASP358     -0.2456
     31  N        -34.7060    8.2160  -50.0990 N.3   402  TRP402     -0.1241
     32  CA       -35.0500    7.8780  -48.7230 C.3   402  TRP402      0.1605
     33  C        -33.9000    7.1350  -48.0530 C.2   402  TRP402      0.2264
     34  O        -33.3210    6.2220  -48.6420 O.2   402  TRP402     -0.2867
     35  CB       -36.3030    7.0010  -48.7170 C.3   402  TRP402      0.0550
     36  CG       -36.7660    6.5510  -47.3630 C.ar  402  TRP402      0.0003
     37  CD1      -37.7360    7.1280  -46.5960 C.ar  402  TRP402      0.0946
     38  CD2      -36.2960    5.4130  -46.6260 C.ar  402  TRP402      0.0152
     39  NE1      -37.8940    6.4270  -45.4250 N.ar  402  TRP402     -0.2442
     40  CE2      -37.0210    5.3710  -45.4180 C.ar  402  TRP402      0.0810
     41  CE3      -35.3310    4.4310  -46.8670 C.ar  402  TRP402      0.0012
     42  CZ2      -36.8100    4.3860  -44.4560 C.ar  402  TRP402      0.0191
     43  CZ3      -35.1230    3.4560  -45.9100 C.ar  402  TRP402      0.0001
     44  CH2      -35.8590    3.4390  -44.7210 C.ar  402  TRP402      0.0015
     45  N        -39.5700   -3.2230  -35.2790 N.3   434  ARG434     -0.1245
     46  CA       -39.6700   -3.3960  -36.7280 C.3   434  ARG434      0.1563
     47  C        -38.4720   -4.1920  -37.2570 C.2   434  ARG434      0.2260
     48  O        -37.9120   -3.8700  -38.3060 O.2   434  ARG434     -0.2867
     49  CB       -39.7880   -2.0440  -37.4430 C.3   434  ARG434      0.0307
     50  CG       -40.3970   -2.1160  -38.8370 C.3   434  ARG434      0.0489
     51  CD       -40.1650   -0.8270  -39.6090 C.3   434  ARG434      0.2205
     52  NE       -40.7890   -0.8570  -40.9290 N.pl3 434  ARG434     -0.0865
     53  CZ       -40.6580    0.1020  -41.8410 C.cat 434  ARG434      0.5346
     54  NH1      -39.9190    1.1720  -41.5800 N.pl3 434  ARG434      0.1354
     55  NH2      -41.2640   -0.0100  -43.0150 N.pl3 434  ARG434      0.1354
     56  N        -35.0830   12.2150  -47.7490 N.3   467  LYS467     -0.1245
     57  CA       -36.0110   11.9250  -46.6670 C.3   467  LYS467      0.1561
     58  C        -35.3050   11.0820  -45.6090 C.2   467  LYS467      0.2260
     59  O        -35.1070    9.8800  -45.7900 O.2   467  LYS467     -0.2867
     60  CB       -37.2360   11.1920  -47.2150 C.3   467  LYS467      0.0271
     61  CG       -38.3080   10.8730  -46.1870 C.3   467  LYS467      0.0035
     62  CD       -39.4770   10.1550  -46.8440 C.3   467  LYS467      0.0206
     63  CE       -40.5220    9.7300  -45.8300 C.3   467  LYS467      0.1093
     64  NZ       -41.6430    9.0030  -46.4880 N.3   467  LYS467     -0.1314
     65  N        -35.1720    9.1320  -42.3430 N.3   469  ASP469     -0.1239
     66  CA       -36.1830    8.4230  -41.5690 C.3   469  ASP469      0.1674
     67  C        -35.6070    7.7020  -40.3490 C.2   469  ASP469      0.2266
     68  O        -34.4000    7.4720  -40.2610 O.2   469  ASP469     -0.2867
     69  CB       -36.9010    7.4180  -42.4700 C.3   469  ASP469      0.1410
     70  CG       -38.2780    7.0570  -41.9610 C.2   469  ASP469      0.3668
     71  OD1      -38.6160    7.4510  -40.8260 O.co2 469  ASP469     -0.2456
     72  OD2      -39.0190    6.3720  -42.6960 O.co2 469  ASP469     -0.2456
     73  N        -37.3730    4.5190  -37.6790 N.3   471  ASN471     -0.1240
     74  CA       -38.5860    3.7640  -37.3730 C.3   471  ASN471      0.1653
     75  C        -38.5080    2.8660  -36.1420 C.2   471  ASN471      0.2266
     76  O        -39.0550    1.7620  -36.1360 O.2   471  ASN471     -0.2867
     77  CB       -39.0120    2.9450  -38.5900 C.3   471  ASN471      0.1155
     78  CG       -39.3230    3.8130  -39.7870 C.2   471  ASN471      0.2627
     79  OD1      -40.3930    4.4130  -39.8660 O.2   471  ASN471     -0.2716
     80  ND2      -38.3860    3.8910  -40.7260 N.am  471  ASN471     -0.0877
     81  N        -37.7640   12.6430  -40.8590 N.3   517  CYS517     -0.1235
     82  CA       -38.9250   11.7800  -40.7070 C.3   517  CYS517      0.1677
     83  C        -38.6680   10.7650  -39.6030 C.2   517  CYS517      0.2270
     84  O        -37.5220   10.4170  -39.3250 O.2   517  CYS517     -0.2867
     85  CB       -39.2310   11.0620  -42.0220 C.3   517  CYS517      0.0956
     86  SG       -40.6720    9.9780  -41.9640 S.3   517  CYS517     -0.0801
     87  N        -41.2840    7.7330  -38.7500 N.3   519  GLY519     -0.1210
     88  CA       -42.5820    7.0870  -38.7880 C.3   519  GLY519      0.1956
     89  C        -43.6690    8.1420  -38.7770 C.2   519  GLY519      0.2612
     90  O        -44.7170    7.9690  -38.1570 O.2   519  GLY519     -0.2717
     91  N        -43.4070    9.2450  -39.4700 N.am  520  GLY520     -0.1956
     92  CA       -44.2630   10.4130  -39.4060 C.3   520  GLY520      0.1869
     93  C        -43.5830   11.5070  -38.6060 C.2   520  GLY520      0.2309
     94  O        -42.3800   11.7310  -38.7460 O.2   520  GLY520     -0.2863
     95  N        -41.8020   15.2920  -42.2830 N.3   536  TRP536     -0.1241
     96  CA       -42.9860   14.5050  -42.5970 C.3   536  TRP536      0.1605
     97  C        -43.8850   14.4780  -41.3680 C.2   536  TRP536      0.2264
     98  O        -43.5260   13.9110  -40.3380 O.2   536  TRP536     -0.2867
     99  CB       -42.5920   13.0920  -43.0380 C.3   536  TRP536      0.0550
    100  CG       -43.7420   12.2010  -43.4380 C.ar  536  TRP536      0.0003
    101  CD1      -43.9320   10.9010  -43.0650 C.ar  536  TRP536      0.0946
    102  CD2      -44.8510   12.5380  -44.2860 C.ar  536  TRP536      0.0152
    103  NE1      -45.0850   10.4090  -43.6270 N.ar  536  TRP536     -0.2442
    104  CE2      -45.6690   11.3940  -44.3790 C.ar  536  TRP536      0.0810
    105  CE3      -45.2340   13.6960  -44.9740 C.ar  536  TRP536      0.0012
    106  CZ2      -46.8430   11.3730  -45.1280 C.ar  536  TRP536      0.0191
    107  CZ3      -46.4000   13.6730  -45.7150 C.ar  536  TRP536      0.0001
    108  CH2      -47.1900   12.5190  -45.7870 C.ar  536  TRP536      0.0015
    109  N        -47.6460    9.6790  -40.6520 N.3   539  ASP539     -0.1239
    110  CA       -47.9080    8.5760  -41.5700 C.3   539  ASP539      0.1674
    111  C        -49.3970    8.4880  -41.8700 C.2   539  ASP539      0.2266
    112  O        -49.8060    7.9220  -42.8830 O.2   539  ASP539     -0.2867
    113  CB       -47.4100    7.2500  -40.9940 C.3   539  ASP539      0.1410
    114  CG       -45.9220    7.0550  -41.1870 C.2   539  ASP539      0.3668
    115  OD1      -45.3480    7.7230  -42.0730 O.co2 539  ASP539     -0.2456
    116  OD2      -45.3300    6.2290  -40.4620 O.co2 539  ASP539     -0.2456
    117  N        -48.8340   11.2120  -52.5980 N.3   595  GLU595     -0.1245
    118  CA       -48.3520    9.9000  -52.1910 C.3   595  GLU595      0.1567
    119  C        -49.4440    8.8560  -52.4010 C.2   595  GLU595      0.2260
    120  O        -50.0390    8.3530  -51.4460 O.2   595  GLU595     -0.2867
    121  CB       -47.8870    9.9210  -50.7330 C.3   595  GLU595      0.0388
    122  CG       -47.1220    8.6790  -50.3030 C.3   595  GLU595      0.1160
    123  CD       -46.5030    8.8240  -48.9280 C.2   595  GLU595      0.3649
    124  OE1      -46.3570    7.7970  -48.2330 O.co2 595  GLU595     -0.2457
    125  OE2      -46.1590    9.9640  -48.5470 O.co2 595  GLU595     -0.2457
@<TRIPOS>BOND
     1   117   118    1
     2   119   118    1
     3   119   120    2
     4   118   121    1
     5    15    16    1
     6     1     2    1
     7    18    17    2
     8    16    17    1
     9    16    19    1
    10   121   122    1
    11    26    25    2
    12    17    23   am
    13    19    20    1
    14   122   123    1
    15     2     3    1
    16     2     5    1
    17     3     4    2
    18    31    32    1
    19    25    24    1
    20    23    24    1
    21     5     6    1
    22   123   125   ar
    23   123   124   ar
    24    20    22   ar
    25    20    21   ar
    26    24    27    1
    27    32    35    1
    28    32    33    1
    29    35    36    1
    30    34    33    2
    31    11     8   ar
    32    11    13   ar
    33     6     8   ar
    34     6     7   ar
    35    56    57    1
    36    27    28    1
    37     8    10   ar
    38    13    14   ar
    39    36    38   ar
    40    36    37   ar
    41    29    28   ar
    42    60    57    1
    43    60    61    1
    44    41    38   ar
    45    41    43   ar
    46    62    61    1
    47    62    63    1
    48     7     9   ar
    49    28    30   ar
    50    57    58    1
    51    38    40   ar
    52    37    39   ar
    53    64    63    1
    54    10     9   ar
    55    10    12   ar
    56    14    12   ar
    57    43    44   ar
    58    59    58    2
    59   108   107   ar
    60   108   106   ar
    61   107   105   ar
    62    39    40   ar
    63    40    42   ar
    64   106   104   ar
    65   105   102   ar
    66    44    42   ar
    67   104   102   ar
    68   104   103   ar
    69   102   100   ar
    70   103   101   ar
    71   100   101   ar
    72   100    99    1
    73    99    96    1
    74    55    53    1
    75   112   111    2
    76    72    70   ar
    77    96    95    1
    78    96    97    1
    79    69    70    1
    80    69    66    1
    81    65    66    1
    82   115   114   ar
    83    85    86    1
    84    85    82    1
    85    70    71   ar
    86   111   110    1
    87    53    54    1
    88    53    52    2
    89   110   113    1
    90   110   109    1
    91    66    67    1
    92    97    98    2
    93   114   113    1
    94   114   116   ar
    95    52    51    1
    96    81    82    1
    97    80    78   am
    98    82    83    1
    99    67    68    2
   100    79    78    2
   101    78    77    1
   102    51    50    1
   103    83    84    2
   104    91    92    1
   105    91    89   am
   106    92    93    1
   107    50    49    1
   108    88    89    1
   109    88    87    1
   110    89    90    2
   111    94    93    2
   112    77    74    1
   113    48    47    2
   114    73    74    1
   115    49    46    1
   116    74    75    1
   117    47    46    1
   118    46    45    1
   119    75    76    2
