@<TRIPOS>MOLECULE
tmp/4fntB00.pdb
 147 141 0 0 0
SMALL
GASTEIGER

@<TRIPOS>ATOM
      1  N        -48.6160   23.6100    6.1340 N.3   190  TRP190     -0.1241
      2  CA       -48.7510   23.7290    7.5760 C.3   190  TRP190      0.1605
      3  C        -49.9770   24.5850    7.8800 C.2   190  TRP190      0.2264
      4  O        -50.1940   25.6150    7.2420 O.2   190  TRP190     -0.2867
      5  CB       -47.4990   24.3490    8.1950 C.3   190  TRP190      0.0550
      6  CG       -47.6230   24.5510    9.6730 C.ar  190  TRP190      0.0003
      7  CD1      -47.2250   23.6900   10.6540 C.ar  190  TRP190      0.0946
      8  CD2      -48.1970   25.6820   10.3400 C.ar  190  TRP190      0.0152
      9  NE1      -47.5150   24.2150   11.8900 N.ar  190  TRP190     -0.2442
     10  CE2      -48.1120   25.4380   11.7250 C.ar  190  TRP190      0.0810
     11  CE3      -48.7770   26.8770    9.9000 C.ar  190  TRP190      0.0012
     12  CZ2      -48.5790   26.3450   12.6730 C.ar  190  TRP190      0.0191
     13  CZ3      -49.2410   27.7760   10.8430 C.ar  190  TRP190      0.0001
     14  CH2      -49.1390   27.5060   12.2140 C.ar  190  TRP190      0.0015
     15  N        -49.9380   24.2650   25.5220 N.3   327  TRP327     -0.1241
     16  CA       -49.1440   24.9270   24.4850 C.3   327  TRP327      0.1605
     17  C        -49.6540   26.3200   24.1150 C.2   327  TRP327      0.2264
     18  O        -48.9830   27.3160   24.3800 O.2   327  TRP327     -0.2867
     19  CB       -49.0310   24.0460   23.2340 C.3   327  TRP327      0.0550
     20  CG       -48.4210   24.7420   22.0510 C.ar  327  TRP327      0.0003
     21  CD1      -49.0080   24.9610   20.8380 C.ar  327  TRP327      0.0946
     22  CD2      -47.1100   25.3190   21.9720 C.ar  327  TRP327      0.0152
     23  NE1      -48.1430   25.6320   20.0080 N.ar  327  TRP327     -0.2442
     24  CE2      -46.9710   25.8640   20.6800 C.ar  327  TRP327      0.0810
     25  CE3      -46.0400   25.4250   22.8690 C.ar  327  TRP327      0.0012
     26  CZ2      -45.8050   26.5050   20.2600 C.ar  327  TRP327      0.0191
     27  CZ3      -44.8840   26.0620   22.4500 C.ar  327  TRP327      0.0001
     28  CH2      -44.7760   26.5930   21.1570 C.ar  327  TRP327      0.0015
     29  N        -46.5580   20.4370   27.8520 N.3   357  ASP357     -0.1225
     30  CA       -45.9860   20.6200   26.5240 C.3   357  ASP357      0.1805
     31  C        -44.5280   21.0880   26.5690 C.2   357  ASP357      0.2597
     32  O        -43.8890   21.0630   27.6220 O.2   357  ASP357     -0.2718
     33  CB       -46.8450   21.5820   25.6930 C.3   357  ASP357      0.1424
     34  CG       -46.7770   21.2880   24.2030 C.2   357  ASP357      0.3668
     35  OD1      -45.9700   21.9360   23.5030 O.co2 357  ASP357     -0.2456
     36  OD2      -47.5260   20.4030   23.7350 O.co2 357  ASP357     -0.2456
     37  N        -44.0200   21.4990   25.4100 N.am  358  ASP358     -0.1974
     38  CA       -42.6350   21.9250   25.2350 C.3   358  ASP358      0.1709
     39  C        -42.2150   23.0040   26.2360 C.2   358  ASP358      0.2293
     40  O        -42.9260   23.9890   26.4320 O.2   358  ASP358     -0.2864
     41  CB       -42.4450   22.4300   23.7990 C.3   358  ASP358      0.1436
     42  CG       -40.9970   22.7440   23.4650 C.2   358  ASP358      0.3671
     43  OD1      -40.0970   22.3300   24.2260 O.co2 358  ASP358     -0.2456
     44  OD2      -40.7590   23.3970   22.4260 O.co2 358  ASP358     -0.2456
     45  N        -37.5360   28.5090   21.5060 N.3   367  ASP367     -0.1239
     46  CA       -37.3510   27.4230   20.5520 C.3   367  ASP367      0.1674
     47  C        -35.9840   27.5110   19.8760 C.2   367  ASP367      0.2266
     48  O        -35.8410   27.2010   18.6930 O.2   367  ASP367     -0.2867
     49  CB       -38.4790   27.4110   19.5140 C.3   367  ASP367      0.1410
     50  CG       -38.5600   28.7020   18.7200 C.2   367  ASP367      0.3668
     51  OD1      -37.9780   29.7160   19.1610 O.co2 367  ASP367     -0.2456
     52  OD2      -39.2130   28.7000   17.6550 O.co2 367  ASP367     -0.2456
     53  N        -44.5800   16.0250   26.5810 N.3   402  TRP402     -0.1241
     54  CA       -44.1740   16.3370   25.2140 C.3   402  TRP402      0.1605
     55  C        -42.6910   16.0440   25.0160 C.2   402  TRP402      0.2264
     56  O        -41.8620   16.4470   25.8320 O.2   402  TRP402     -0.2867
     57  CB       -44.4380   17.8180   24.9370 C.3   402  TRP402      0.0550
     58  CG       -44.0660   18.2940   23.5630 C.ar  402  TRP402      0.0003
     59  CD1      -44.8940   18.4030   22.4850 C.ar  402  TRP402      0.0946
     60  CD2      -42.7770   18.7520   23.1260 C.ar  402  TRP402      0.0152
     61  NE1      -44.2020   18.8890   21.4020 N.ar  402  TRP402     -0.2442
     62  CE2      -42.9030   19.1110   21.7680 C.ar  402  TRP402      0.0810
     63  CE3      -41.5330   18.8880   23.7500 C.ar  402  TRP402      0.0012
     64  CZ2      -41.8290   19.5970   21.0220 C.ar  402  TRP402      0.0191
     65  CZ3      -40.4680   19.3690   23.0060 C.ar  402  TRP402      0.0001
     66  CH2      -40.6240   19.7190   21.6570 C.ar  402  TRP402      0.0015
     67  N        -36.3680   26.1540   12.4610 N.3   434  ARG434     -0.1245
     68  CA       -36.7250   26.4900   13.8390 C.3   434  ARG434      0.1563
     69  C        -35.5000   26.3580   14.7480 C.2   434  ARG434      0.2260
     70  O        -35.6050   25.9130   15.8930 O.2   434  ARG434     -0.2867
     71  CB       -37.8890   25.6260   14.3480 C.3   434  ARG434      0.0307
     72  CG       -38.6790   26.2400   15.5010 C.3   434  ARG434      0.0489
     73  CD       -39.6100   25.2210   16.1410 C.3   434  ARG434      0.2205
     74  NE       -40.4290   25.8090   17.1980 N.pl3 434  ARG434     -0.0865
     75  CZ       -41.2160   25.1130   18.0130 C.cat 434  ARG434      0.5346
     76  NH1      -41.2910   23.7940   17.9040 N.pl3 434  ARG434      0.1354
     77  NH2      -41.9250   25.7350   18.9450 N.pl3 434  ARG434      0.1354
     78  N        -46.5960   12.8120   23.9140 N.3   467  LYS467     -0.1245
     79  CA       -46.7490   13.4910   22.6350 C.3   467  LYS467      0.1561
     80  C        -45.3980   13.5760   21.9280 C.2   467  LYS467      0.2260
     81  O        -44.5420   14.3830   22.2920 O.2   467  LYS467     -0.2867
     82  CB       -47.3380   14.8870   22.8380 C.3   467  LYS467      0.0271
     83  CG       -47.5970   15.6570   21.5530 C.3   467  LYS467      0.0035
     84  CD       -48.1450   17.0410   21.8600 C.3   467  LYS467      0.0206
     85  CE       -48.3830   17.8480   20.5970 C.3   467  LYS467      0.1093
     86  NZ       -48.9170   19.2000   20.9180 N.3   467  LYS467     -0.1314
     87  N        -43.1830   14.6350   18.9960 N.3   469  ASP469     -0.1239
     88  CA       -43.2340   15.6800   17.9790 C.3   469  ASP469      0.1674
     89  C        -42.0050   15.6650   17.0760 C.2   469  ASP469      0.2266
     90  O        -41.0370   14.9500   17.3330 O.2   469  ASP469     -0.2867
     91  CB       -43.3710   17.0520   18.6470 C.3   469  ASP469      0.1410
     92  CG       -44.0850   18.0690   17.7680 C.2   469  ASP469      0.3668
     93  OD1      -44.1280   17.8770   16.5350 O.co2 469  ASP469     -0.2456
     94  OD2      -44.6010   19.0670   18.3160 O.co2 469  ASP469     -0.2456
     95  N        -40.4250   18.9670   14.4490 N.3   471  ASN471     -0.1240
     96  CA       -40.7290   20.2610   13.8450 C.3   471  ASN471      0.1653
     97  C        -39.7110   20.7690   12.8330 C.2   471  ASN471      0.2266
     98  O        -39.3270   21.9370   12.8690 O.2   471  ASN471     -0.2867
     99  CB       -40.9330   21.3120   14.9340 C.3   471  ASN471      0.1155
    100  CG       -42.1910   21.0770   15.7310 C.2   471  ASN471      0.2627
    101  OD1      -43.2830   21.4240   15.2920 O.2   471  ASN471     -0.2716
    102  ND2      -42.0470   20.4820   16.9100 N.am  471  ASN471     -0.0877
    103  N        -46.9200   13.4270   16.3150 N.3   517  CYS517     -0.1235
    104  CA       -47.1420   14.8180   15.9600 C.3   517  CYS517      0.1677
    105  C        -45.9740   15.3130   15.1250 C.2   517  CYS517      0.2270
    106  O        -44.8560   14.8200   15.2610 O.2   517  CYS517     -0.2867
    107  CB       -47.2820   15.6670   17.2240 C.3   517  CYS517      0.0956
    108  SG       -47.5580   17.4340   16.9300 S.3   517  CYS517     -0.0801
    109  N        -45.4980   19.2470   13.8590 N.3   519  GLY519     -0.1210
    110  CA       -45.9700   20.5900   13.5750 C.3   519  GLY519      0.1956
    111  C        -47.4270   20.5360   13.1650 C.2   519  GLY519      0.2612
    112  O        -47.8590   21.2530   12.2650 O.2   519  GLY519     -0.2717
    113  N        -48.1840   19.6730   13.8350 N.am  520  GLY520     -0.1956
    114  CA       -49.5250   19.3400   13.4020 C.3   520  GLY520      0.1869
    115  C        -49.4990   18.0270   12.6410 C.2   520  GLY520      0.2309
    116  O        -48.8580   17.0690   13.0720 O.2   520  GLY520     -0.2863
    117  N        -51.8390   14.3150   16.2510 N.3   536  TRP536     -0.1241
    118  CA       -52.2690   15.7070   16.2950 C.3   536  TRP536      0.1605
    119  C        -52.4960   16.2050   14.8670 C.2   536  TRP536      0.2264
    120  O        -51.5490   16.3900   14.1040 O.2   536  TRP536     -0.2867
    121  CB       -51.2290   16.5640   17.0290 C.3   536  TRP536      0.0550
    122  CG       -51.5990   18.0100   17.1720 C.ar  536  TRP536      0.0003
    123  CD1      -50.8070   19.0840   16.8990 C.ar  536  TRP536      0.0946
    124  CD2      -52.8550   18.5430   17.6200 C.ar  536  TRP536      0.0152
    125  NE1      -51.4850   20.2500   17.1510 N.ar  536  TRP536     -0.2442
    126  CE2      -52.7450   19.9450   17.5920 C.ar  536  TRP536      0.0810
    127  CE3      -54.0590   17.9690   18.0420 C.ar  536  TRP536      0.0012
    128  CZ2      -53.7930   20.7840   17.9690 C.ar  536  TRP536      0.0191
    129  CZ3      -55.0980   18.8030   18.4080 C.ar  536  TRP536      0.0001
    130  CH2      -54.9580   20.1940   18.3720 C.ar  536  TRP536      0.0015
    131  N        -51.8480   22.1640   13.6740 N.3   539  ASN539     -0.1240
    132  CA       -51.6730   23.2550   14.6270 C.3   539  ASN539      0.1653
    133  C        -52.7310   24.3250   14.4270 C.2   539  ASN539      0.2266
    134  O        -52.9370   25.1810   15.2860 O.2   539  ASN539     -0.2867
    135  CB       -50.2740   23.8630   14.5300 C.3   539  ASN539      0.1155
    136  CG       -49.2270   23.0040   15.1960 C.2   539  ASN539      0.2627
    137  OD1      -49.5570   22.0810   15.9400 O.2   539  ASN539     -0.2716
    138  ND2      -47.9590   23.3040   14.9420 N.am  539  ASN539     -0.0877
    139  N        -57.1810   22.9920   24.3100 N.3   595  GLU595     -0.1245
    140  CA       -55.8680   23.6250   24.2610 C.3   595  GLU595      0.1567
    141  C        -56.0000   25.1400   24.3840 C.2   595  GLU595      0.2260
    142  O        -55.8860   25.8710   23.3990 O.2   595  GLU595     -0.2867
    143  CB       -55.1270   23.2460   22.9780 C.3   595  GLU595      0.0388
    144  CG       -53.6540   23.6170   22.9870 C.3   595  GLU595      0.1160
    145  CD       -52.8890   22.9910   21.8400 C.2   595  GLU595      0.3649
    146  OE1      -51.7720   23.4670   21.5430 O.co2 595  GLU595     -0.2457
    147  OE2      -53.3990   22.0180   21.2400 O.co2 595  GLU595     -0.2457
@<TRIPOS>BOND
     1     1     2    1
     2     4     3    2
     3     2     3    1
     4     2     5    1
     5     5     6    1
     6     6     8   ar
     7     6     7   ar
     8    11     8   ar
     9    11    13   ar
    10     8    10   ar
    11     7     9   ar
    12    13    14   ar
    13    10     9   ar
    14    10    12   ar
    15    14    12   ar
    16   112   111    2
    17    67    68    1
    18   115   116    2
    19   115   114    1
    20    97    98    2
    21    97    96    1
    22   111   110    1
    23   111   113   am
    24   114   113    1
    25   110   109    1
    26   131   132    1
    27    68    71    1
    28    68    69    1
    29    96    95    1
    30    96    99    1
    31   120   119    2
    32    71    72    1
    33   133   132    1
    34   133   134    2
    35   135   132    1
    36   135   136    1
    37    69    70    2
    38   119   118    1
    39    99   100    1
    40   138   136   am
    41   105   106    2
    42   105   104    1
    43   136   137    2
    44   101   100    2
    45    72    73    1
    46   100   102   am
    47   104   103    1
    48   104   107    1
    49    73    74    1
    50   117   118    1
    51   118   121    1
    52    93    92   ar
    53   123   125   ar
    54   123   122   ar
    55   108   107    1
    56   121   122    1
    57    89    90    2
    58    89    88    1
    59   125   126   ar
    60   122   124   ar
    61    74    75    2
    62   126   124   ar
    63   126   128   ar
    64   124   127   ar
    65    52    50   ar
    66    92    94   ar
    67    92    91    1
    68    76    75    1
    69   128   130   ar
    70    88    91    1
    71    88    87    1
    72    75    77    1
    73   127   129   ar
    74   130   129   ar
    75    48    47    2
    76    50    51   ar
    77    50    49    1
    78    49    46    1
    79    47    46    1
    80    23    24   ar
    81    23    21   ar
    82    26    24   ar
    83    26    28   ar
    84    46    45    1
    85    85    86    1
    86    85    84    1
    87    24    22   ar
    88    21    20   ar
    89    64    66   ar
    90    64    62   ar
    91    28    27   ar
    92   147   145   ar
    93    61    62   ar
    94    61    59   ar
    95   146   145   ar
    96    83    84    1
    97    83    82    1
    98    66    65   ar
    99    62    60   ar
   100   145   144    1
   101    80    81    2
   102    80    79    1
   103    22    20   ar
   104    22    25   ar
   105    20    19    1
   106    44    42   ar
   107    27    25   ar
   108    59    58   ar
   109    79    82    1
   110    79    78    1
   111   143   144    1
   112   143   140    1
   113    65    63   ar
   114    60    58   ar
   115    60    63   ar
   116    19    16    1
   117   142   141    2
   118    42    41    1
   119    42    43   ar
   120    35    34   ar
   121    58    57    1
   122    36    34   ar
   123    41    38    1
   124    17    18    2
   125    17    16    1
   126    34    33    1
   127   140   139    1
   128   140   141    1
   129    16    15    1
   130    57    54    1
   131    55    54    1
   132    55    56    2
   133    54    53    1
   134    38    37    1
   135    38    39    1
   136    37    31   am
   137    33    30    1
   138    39    40    2
   139    30    31    1
   140    30    29    1
   141    31    32    2
