@<TRIPOS>MOLECULE
tmp/4fnuD01.pdb
 177 172 0 0 0
SMALL
GASTEIGER

@<TRIPOS>ATOM
      1  N        -86.7320   41.7280   -1.2300 N.3   190  TRP190     -0.1241
      2  CA       -86.5360   42.8420   -0.3150 C.3   190  TRP190      0.1605
      3  C        -85.2620   42.6400    0.4920 C.2   190  TRP190      0.2264
      4  O        -85.0640   41.5920    1.1020 O.2   190  TRP190     -0.2867
      5  CB       -87.7360   42.9890    0.6220 C.3   190  TRP190      0.0550
      6  CG       -87.5500   44.0480    1.6640 C.ar  190  TRP190      0.0003
      7  CD1      -87.8460   45.3740    1.5470 C.ar  190  TRP190      0.0946
      8  CD2      -87.0280   43.8680    2.9860 C.ar  190  TRP190      0.0152
      9  NE1      -87.5380   46.0320    2.7140 N.ar  190  TRP190     -0.2442
     10  CE2      -87.0340   45.1290    3.6130 C.ar  190  TRP190      0.0810
     11  CE3      -86.5540   42.7620    3.7000 C.ar  190  TRP190      0.0012
     12  CZ2      -86.5870   45.3160    4.9190 C.ar  190  TRP190      0.0191
     13  CZ3      -86.1100   42.9500    4.9970 C.ar  190  TRP190      0.0001
     14  CH2      -86.1300   44.2170    5.5920 C.ar  190  TRP190      0.0015
     15  N        -84.4590   57.3160   10.1880 N.3   327  TRP327     -0.1241
     16  CA       -85.2970   56.1210   10.2020 C.3   327  TRP327      0.1605
     17  C        -84.7590   55.0260   11.1170 C.2   327  TRP327      0.2264
     18  O        -85.3460   54.7500   12.1590 O.2   327  TRP327     -0.2867
     19  CB       -85.5040   55.5680    8.7910 C.3   327  TRP327      0.0550
     20  CG       -86.2020   54.2440    8.7810 C.ar  327  TRP327      0.0003
     21  CD1      -85.7000   53.0550    8.3380 C.ar  327  TRP327      0.0946
     22  CD2      -87.5240   53.9670    9.2620 C.ar  327  TRP327      0.0152
     23  NE1      -86.6330   52.0580    8.4980 N.ar  327  TRP327     -0.2442
     24  CE2      -87.7600   52.5920    9.0650 C.ar  327  TRP327      0.0810
     25  CE3      -88.5320   54.7500    9.8330 C.ar  327  TRP327      0.0012
     26  CZ2      -88.9630   51.9830    9.4200 C.ar  327  TRP327      0.0191
     27  CZ3      -89.7240   54.1440   10.1860 C.ar  327  TRP327      0.0001
     28  CH2      -89.9300   52.7740    9.9770 C.ar  327  TRP327      0.0015
     29  N        -86.9020   55.2660   14.4830 N.3   331  TYR331     -0.1227
     30  CA       -88.1700   54.7470   13.9610 C.3   331  TYR331      0.1736
     31  C        -89.3100   55.7510   14.1350 C.2   331  TYR331      0.2595
     32  O        -89.3360   56.7920   13.4780 O.2   331  TYR331     -0.2718
     33  CB       -88.5470   53.3930   14.5870 C.3   331  TYR331      0.0548
     34  CG       -87.7590   52.2020   14.0750 C.ar  331  TYR331     -0.0200
     35  CD1      -86.6810   52.3690   13.2190 C.ar  331  TYR331     -0.0009
     36  CD2      -88.1110   50.9070   14.4350 C.ar  331  TYR331     -0.0009
     37  CE1      -85.9640   51.2870   12.7460 C.ar  331  TYR331      0.0417
     38  CE2      -87.4010   49.8160   13.9660 C.ar  331  TYR331      0.0417
     39  CZ       -86.3280   50.0130   13.1210 C.ar  331  TYR331      0.1957
     40  OH       -85.6160   48.9350   12.6500 O.3   331  TYR331     -0.2866
     41  N        -90.2460   55.4350   15.0260 N.am  332  PHE332     -0.1976
     42  CA       -91.4170   56.2810   15.2430 C.3   332  PHE332      0.1639
     43  C        -91.3310   57.1030   16.5280 C.2   332  PHE332      0.2290
     44  O        -92.0130   58.1190   16.6690 O.2   332  PHE332     -0.2864
     45  CB       -92.6950   55.4380   15.2530 C.3   332  PHE332      0.0560
     46  CG       -92.9930   54.7700   13.9410 C.ar  332  PHE332     -0.0200
     47  CD1      -93.3440   55.5210   12.8320 C.ar  332  PHE332     -0.0042
     48  CD2      -92.9230   53.3920   13.8170 C.ar  332  PHE332     -0.0042
     49  CE1      -93.6210   54.9110   11.6240 C.ar  332  PHE332     -0.0003
     50  CE2      -93.1980   52.7760   12.6100 C.ar  332  PHE332     -0.0003
     51  CZ       -93.5470   53.5380   11.5120 C.ar  332  PHE332     -0.0000
     52  N        -88.0850   61.4380    8.7650 N.3   357  ASP357     -0.1225
     53  CA       -88.7020   60.2800    8.1240 C.3   357  ASP357      0.1805
     54  C        -90.1440   60.0540    8.5850 C.2   357  ASP357      0.2597
     55  O        -90.7930   60.9640    9.1000 O.2   357  ASP357     -0.2718
     56  CB       -87.8530   59.0250    8.3590 C.3   357  ASP357      0.1424
     57  CG       -87.9880   58.0080    7.2370 C.2   357  ASP357      0.3668
     58  OD1      -89.1330   57.6770    6.8680 O.co2 357  ASP357     -0.2456
     59  OD2      -86.9500   57.5490    6.7170 O.co2 357  ASP357     -0.2456
     60  N        -90.6360   58.8340    8.3870 N.am  358  ASP358     -0.1974
     61  CA       -92.0030   58.4680    8.7430 C.3   358  ASP358      0.1709
     62  C        -92.2310   58.5550   10.2490 C.2   358  ASP358      0.2293
     63  O        -91.4110   58.0830   11.0360 O.2   358  ASP358     -0.2864
     64  CB       -92.3150   57.0570    8.2350 C.3   358  ASP358      0.1436
     65  CG       -93.7520   56.6450    8.4900 C.2   358  ASP358      0.3671
     66  OD1      -94.6270   57.5330    8.5460 O.co2 358  ASP358     -0.2456
     67  OD2      -94.0090   55.4290    8.6150 O.co2 358  ASP358     -0.2456
     68  N        -96.8690   51.1510   12.2710 N.3   367  ASP367     -0.1239
     69  CA       -97.0250   51.0500   10.8240 C.3   367  ASP367      0.1674
     70  C        -98.4110   50.5430   10.4370 C.2   367  ASP367      0.2266
     71  O        -98.5730   49.8640    9.4250 O.2   367  ASP367     -0.2867
     72  CB       -95.9480   50.1360   10.2330 C.3   367  ASP367      0.1410
     73  CG       -95.9960   48.7320   10.8060 C.2   367  ASP367      0.3668
     74  OD1      -96.5090   48.5630   11.9330 O.co2 367  ASP367     -0.2456
     75  OD2      -95.5220   47.7960   10.1280 O.co2 367  ASP367     -0.2456
     76  N        -90.4430   62.7480    4.4240 N.3   402  TRP402     -0.1241
     77  CA       -90.8220   61.4290    3.9370 C.3   402  TRP402      0.1605
     78  C        -92.3140   61.4070    3.6360 C.2   402  TRP402      0.2264
     79  O        -93.1240   61.8330    4.4590 O.2   402  TRP402     -0.2867
     80  CB       -90.4860   60.3630    4.9800 C.3   402  TRP402      0.0550
     81  CG       -90.9010   58.9730    4.5980 C.ar  402  TRP402      0.0003
     82  CD1      -90.1320   58.0280    3.9850 C.ar  402  TRP402      0.0946
     83  CD2      -92.1820   58.3670    4.8150 C.ar  402  TRP402      0.0152
     84  NE1      -90.8550   56.8740    3.8030 N.ar  402  TRP402     -0.2442
     85  CE2      -92.1170   57.0570    4.3030 C.ar  402  TRP402      0.0810
     86  CE3      -93.3790   58.8080    5.3890 C.ar  402  TRP402      0.0012
     87  CZ2      -93.2010   56.1830    4.3480 C.ar  402  TRP402      0.0191
     88  CZ3      -94.4540   57.9400    5.4320 C.ar  402  TRP402      0.0001
     89  CH2      -94.3580   56.6420    4.9160 C.ar  402  TRP402      0.0015
     90  N        -98.6940   45.5420    5.1490 N.3   434  ARG434     -0.1245
     91  CA       -98.2090   46.4720    6.1720 C.3   434  ARG434      0.1563
     92  C        -99.3680   47.2830    6.7530 C.2   434  ARG434      0.2260
     93  O        -99.2170   48.4610    7.0770 O.2   434  ARG434     -0.2867
     94  CB       -97.1140   47.4000    5.6240 C.3   434  ARG434      0.0307
     95  CG       -96.1980   47.9900    6.6930 C.3   434  ARG434      0.0489
     96  CD       -95.4510   49.2140    6.1810 C.3   434  ARG434      0.2205
     97  NE       -94.5280   49.7480    7.1800 N.pl3 434  ARG434     -0.0865
     98  CZ       -93.9070   50.9190    7.0740 C.cat 434  ARG434      0.5346
     99  NH1      -94.1130   51.6870    6.0130 N.pl3 434  ARG434      0.1354
    100  NH2      -93.0840   51.3260    8.0310 N.pl3 434  ARG434      0.1354
    101  N        -88.7490   62.4020   -0.1300 N.3   467  LYS467     -0.1245
    102  CA       -88.5650   60.9780   -0.3730 C.3   467  LYS467      0.1561
    103  C        -89.9050   60.2540   -0.5490 C.2   467  LYS467      0.2260
    104  O        -90.6130   59.9900    0.4230 O.2   467  LYS467     -0.2867
    105  CB       -87.7530   60.3660    0.7670 C.3   467  LYS467      0.0271
    106  CG       -87.3350   58.9240    0.5640 C.3   467  LYS467      0.0035
    107  CD       -86.3790   58.5030    1.6650 C.3   467  LYS467      0.0206
    108  CE       -86.9610   57.3940    2.5130 C.3   467  LYS467      0.1093
    109  NZ       -86.0510   57.0020    3.6240 N.3   467  LYS467     -0.1314
    110  N        -92.3150   57.2450   -1.1360 N.3   469  ALA469     -0.1245
    111  CA       -92.3020   55.8100   -0.8460 C.3   469  ALA469      0.1562
    112  C        -93.4850   55.0360   -1.4380 C.2   469  ALA469      0.2260
    113  O        -94.5070   55.6150   -1.8080 O.2   469  ALA469     -0.2867
    114  CB       -92.2200   55.5770    0.6580 C.3   469  ALA469      0.0290
    115  N        -94.9190   51.0970   -0.3530 N.3   471  ASN471     -0.1240
    116  CA       -94.6540   49.9000    0.4370 C.3   471  ASN471      0.1653
    117  C        -95.7180   48.8020    0.3720 C.2   471  ASN471      0.2266
    118  O        -95.9210   48.0820    1.3490 O.2   471  ASN471     -0.2867
    119  CB       -94.4110   50.2890    1.8960 C.3   471  ASN471      0.1155
    120  CG       -93.3170   51.3250    2.0450 C.2   471  ASN471      0.2627
    121  OD1      -92.3620   51.3510    1.2690 O.2   471  ASN471     -0.2716
    122  ND2      -93.4550   52.1920    3.0400 N.am  471  ASN471     -0.0877
    123  N        -87.7670   56.0970   -3.9660 N.3   517  CYS517     -0.1235
    124  CA       -87.9720   54.9680   -3.0180 C.3   517  CYS517      0.1677
    125  C        -89.2470   54.0790   -3.0100 C.2   517  CYS517      0.2270
    126  O        -90.3640   54.5390   -3.2360 O.2   517  CYS517     -0.2867
    127  CB       -87.7300   55.4630   -1.5870 C.3   517  CYS517      0.0956
    128  SG       -87.9120   54.1860   -0.3210 S.3   517  CYS517     -0.0801
    129  N        -89.7170   50.7780   -0.4710 N.3   519  GLY519     -0.1210
    130  CA       -89.2650   49.7080    0.4020 C.3   519  GLY519      0.1956
    131  C        -87.8830   49.2610   -0.0230 C.2   519  GLY519      0.2612
    132  O        -87.5640   48.0720   -0.0210 O.2   519  GLY519     -0.2717
    133  N        -87.0570   50.2370   -0.3820 N.am  520  GLY520     -0.1956
    134  CA       -85.7830   49.9710   -1.0170 C.3   520  GLY520      0.1869
    135  C        -85.9200   50.2830   -2.4940 C.2   520  GLY520      0.2309
    136  O        -86.4920   51.3080   -2.8640 O.2   520  GLY520     -0.2863
    137  N        -83.7830   55.4440   -3.5710 N.3   536  TRP536     -0.1241
    138  CA       -83.2670   54.6920   -2.4350 C.3   536  TRP536      0.1605
    139  C        -83.0520   53.2450   -2.8580 C.2   536  TRP536      0.2264
    140  O        -84.0050   52.5310   -3.1640 O.2   536  TRP536     -0.2867
    141  CB       -84.2320   54.7770   -1.2510 C.3   536  TRP536      0.0550
    142  CG       -83.8160   53.9840   -0.0470 C.ar  536  TRP536      0.0003
    143  CD1      -84.5570   53.0460    0.6110 C.ar  536  TRP536      0.0946
    144  CD2      -82.5670   54.0700    0.6540 C.ar  536  TRP536      0.0152
    145  NE1      -83.8480   52.5380    1.6720 N.ar  536  TRP536     -0.2442
    146  CE2      -82.6230   53.1510    1.7210 C.ar  536  TRP536      0.0810
    147  CE3      -81.4080   54.8330    0.4820 C.ar  536  TRP536      0.0012
    148  CZ2      -81.5650   52.9740    2.6100 C.ar  536  TRP536      0.0191
    149  CZ3      -80.3580   54.6540    1.3640 C.ar  536  TRP536      0.0001
    150  CH2      -80.4440   53.7330    2.4150 C.ar  536  TRP536      0.0015
    151  N        -83.2480   48.6630    1.4540 N.3   539  ASP539     -0.1239
    152  CA       -83.4260   48.7840    2.8930 C.3   539  ASP539      0.1674
    153  C        -82.2630   48.1250    3.6180 C.2   539  ASP539      0.2266
    154  O        -81.9510   48.4690    4.7570 O.2   539  ASP539     -0.2867
    155  CB       -84.7470   48.1490    3.3250 C.3   539  ASP539      0.1410
    156  CG       -85.9310   49.0590    3.0920 C.2   539  ASP539      0.3668
    157  OD1      -85.7280   50.2890    3.0690 O.co2 539  ASP539     -0.2456
    158  OD2      -87.0580   48.5480    2.9290 O.co2 539  ASP539     -0.2456
    159  N        -79.4740   46.0560   11.3680 N.3   572  HIS572     -0.1241
    160  CA       -80.8380   45.6870   11.7320 C.3   572  HIS572      0.1621
    161  C        -81.4450   44.6380   10.8000 C.2   572  HIS572      0.2264
    162  O        -82.4930   44.0670   11.1000 O.2   572  HIS572     -0.2867
    163  CB       -81.7300   46.9310   11.7710 C.3   572  HIS572      0.0745
    164  CG       -81.2880   47.9590   12.7660 C.ar  572  HIS572      0.0817
    165  ND1      -81.1890   49.2990   12.4580 N.ar  572  HIS572     -0.2268
    166  CD2      -80.9190   47.8430   14.0640 C.ar  572  HIS572      0.1154
    167  CE1      -80.7770   49.9640   13.5230 C.ar  572  HIS572      0.1986
    168  NE2      -80.6060   49.1040   14.5110 N.ar  572  HIS572     -0.2212
    169  N        -77.4300   57.1450    8.1880 N.3   595  GLU595     -0.1245
    170  CA       -78.7380   56.7570    8.7000 C.3   595  GLU595      0.1567
    171  C        -78.5760   55.9060    9.9530 C.2   595  GLU595      0.2260
    172  O        -78.7540   54.6870    9.9200 O.2   595  GLU595     -0.2867
    173  CB       -79.5230   55.9950    7.6310 C.3   595  GLU595      0.0388
    174  CG       -80.9980   55.7940    7.9460 C.3   595  GLU595      0.1160
    175  CD       -81.7890   55.3580    6.7280 C.2   595  GLU595      0.3649
    176  OE1      -81.1740   54.8360    5.7730 O.co2 595  GLU595     -0.2457
    177  OE2      -83.0250   55.5320    6.7240 O.co2 595  GLU595     -0.2457
@<TRIPOS>BOND
     1   123   124    1
     2   137   138    1
     3   126   125    2
     4   140   139    2
     5   124   125    1
     6   124   127    1
     7   136   135    2
     8   139   138    1
     9   135   134    1
    10   138   141    1
    11   113   112    2
    12   127   128    1
    13   112   111    1
    14   141   142    1
    15     1     2    1
    16   110   111    1
    17   134   133    1
    18   111   114    1
    19   103   102    1
    20   103   104    2
    21   129   130    1
    22   133   131   am
    23   102   101    1
    24   102   105    1
    25   115   116    1
    26     2     3    1
    27     2     5    1
    28   142   143   ar
    29   142   144   ar
    30   131   132    2
    31   131   130    1
    32   117   116    1
    33   117   118    2
    34   116   119    1
    35   147   144   ar
    36   147   149   ar
    37     3     4    2
    38   106   105    1
    39   106   107    1
    40   143   145   ar
    41     5     6    1
    42   144   146   ar
    43   121   120    2
    44   149   150   ar
    45   151   152    1
    46     7     6   ar
    47     7     9   ar
    48     6     8   ar
    49   107   108    1
    50   145   146   ar
    51   146   148   ar
    52   119   120    1
    53   120   122   am
    54   150   148   ar
    55   108   109    1
    56     9    10   ar
    57   152   155    1
    58   152   153    1
    59   158   156   ar
    60     8    10   ar
    61     8    11   ar
    62   157   156   ar
    63   156   155    1
    64    10    12   ar
    65   153   154    2
    66    78    77    1
    67    78    79    2
    68    11    13   ar
    69    84    82   ar
    70    84    85   ar
    71    77    76    1
    72    77    80    1
    73    82    81   ar
    74    85    87   ar
    75    85    83   ar
    76    87    89   ar
    77    81    83   ar
    78    81    80    1
    79    83    86   ar
    80    89    88   ar
    81    12    14   ar
    82    13    14   ar
    83    90    91    1
    84    86    88   ar
    85    94    91    1
    86    94    95    1
    87   176   175   ar
    88    99    98    1
    89    91    92    1
    90    96    95    1
    91    96    97    1
    92    59    57   ar
    93   177   175   ar
    94   175   174    1
    95    92    93    2
    96    58    57   ar
    97    98    97    2
    98    98   100    1
    99    57    56    1
   100   173   174    1
   101   173   170    1
   102    53    56    1
   103    53    54    1
   104    53    52    1
   105   169   170    1
   106    64    65    1
   107    64    61    1
   108    21    23   ar
   109    21    20   ar
   110    60    54   am
   111    60    61    1
   112    65    66   ar
   113    65    67   ar
   114    23    24   ar
   115    54    55    2
   116   170   171    1
   117    61    62    1
   118    20    19    1
   119    20    22   ar
   120    19    16    1
   121    24    22   ar
   122    24    26   ar
   123    22    25   ar
   124    26    28   ar
   125    71    70    2
   126    25    27   ar
   127   172   171    2
   128    28    27   ar
   129    75    73   ar
   130    15    16    1
   131    16    17    1
   132    72    73    1
   133    72    69    1
   134    62    63    2
   135    70    69    1
   136   161   162    2
   137   161   160    1
   138    73    74   ar
   139    69    68    1
   140    17    18    2
   141   159   160    1
   142    51    49   ar
   143    51    50   ar
   144    49    47   ar
   145   160   163    1
   146   163   164    1
   147   165   164   ar
   148   165   167   ar
   149    50    48   ar
   150    40    39    1
   151    37    39   ar
   152    37    35   ar
   153   164   166   ar
   154    47    46   ar
   155    39    38   ar
   156    35    34   ar
   157    32    31    2
   158   167   168   ar
   159    48    46   ar
   160    46    45    1
   161    30    31    1
   162    30    29    1
   163    30    33    1
   164    38    36   ar
   165   166   168   ar
   166    34    36   ar
   167    34    33    1
   168    31    41   am
   169    41    42    1
   170    42    45    1
   171    42    43    1
   172    43    44    2
