@<TRIPOS>MOLECULE
tmp/4fnyA00.pdb
 194 183 0 0 0
SMALL
GASTEIGER

@<TRIPOS>ATOM
      1  N          3.7950   10.9520   50.0130 N.3    20  LEU20      -0.1231
      2  CA         4.1160    9.9920   48.9590 C.3    20  LEU20       0.1693
      3  C          5.5900    9.5970   48.9350 C.2    20  LEU20       0.2592
      4  O          5.9060    8.4250   48.7460 O.2    20  LEU20      -0.2718
      5  CB         3.7150   10.5520   47.5930 C.3    20  LEU20       0.0284
      6  CG         2.2140   10.7330   47.3590 C.3    20  LEU20       0.0019
      7  CD1        1.9530   11.4620   46.0470 C.3    20  LEU20       0.0001
      8  CD2        1.5120    9.3840   47.3910 C.3    20  LEU20       0.0001
      9  N          6.4820   10.5700   49.1130 N.am   21  GLY21      -0.1957
     10  CA         7.9160   10.3680   48.8920 C.3    21  GLY21       0.1869
     11  C          8.8050   10.8670   50.0230 C.2    21  GLY21       0.2309
     12  O          8.7910   12.0590   50.3710 O.2    21  GLY21      -0.2863
     13  N          7.1250   15.0240   48.9560 N.3    25  VAL25      -0.1245
     14  CA         6.0290   14.9110   47.9920 C.3    25  VAL25       0.1561
     15  C          4.7810   14.3630   48.6820 C.2    25  VAL25       0.2260
     16  O          4.8590   13.4150   49.4670 O.2    25  VAL25      -0.2867
     17  CB         6.3790   13.9950   46.7930 C.3    25  VAL25       0.0252
     18  CG1        5.2950   14.0910   45.7330 C.3    25  VAL25       0.0019
     19  CG2        7.7360   14.3600   46.1980 C.3    25  VAL25       0.0019
     20  N         -0.4570   15.9570   42.8500 N.3    37  ALA37      -0.1245
     21  CA         0.7300   15.6650   43.6370 C.3    37  ALA37       0.1562
     22  C          1.3990   17.0080   43.9210 C.2    37  ALA37       0.2260
     23  O          1.4560   17.8710   43.0490 O.2    37  ALA37      -0.2867
     24  CB         1.6680   14.7400   42.8860 C.3    37  ALA37       0.0290
     25  N          4.8090   19.0940   45.3860 N.3    39  LYS39      -0.1245
     26  CA         6.1880   19.1680   45.8230 C.3    39  LYS39       0.1561
     27  C          6.3640   20.4130   46.6840 C.2    39  LYS39       0.2260
     28  O          6.0050   21.5140   46.2680 O.2    39  LYS39      -0.2867
     29  CB         7.1490   19.2000   44.6350 C.3    39  LYS39       0.0271
     30  CG         8.5830   18.9040   45.0460 C.3    39  LYS39       0.0035
     31  CD         9.5840   19.5190   44.0880 C.3    39  LYS39       0.0206
     32  CE        11.0010   19.0750   44.4360 C.3    39  LYS39       0.1093
     33  NZ        11.9550   19.3860   43.3380 N.3    39  LYS39      -0.1314
     34  N         12.5010   24.9760   38.5050 N.3    56  GLU56      -0.1245
     35  CA        11.8460   23.7080   38.2030 C.3    56  GLU56       0.1567
     36  C         10.4040   23.9310   37.7530 C.2    56  GLU56       0.2260
     37  O          9.9630   23.3430   36.7690 O.2    56  GLU56      -0.2867
     38  CB        11.8790   22.7530   39.4010 C.3    56  GLU56       0.0388
     39  CG        11.2190   21.4030   39.1100 C.3    56  GLU56       0.1160
     40  CD        11.8190   20.2420   39.8930 C.2    56  GLU56       0.3649
     41  OE1       12.2090   20.4560   41.0620 O.co2  56  GLU56      -0.2457
     42  OE2       11.8940   19.1120   39.3440 O.co2  56  GLU56      -0.2457
     43  N          9.2260   22.8150   34.0790 N.3    60  ILE60      -0.1245
     44  CA         8.1950   21.7800   33.9670 C.3    60  ILE60       0.1561
     45  C          6.9370   22.3520   33.3010 C.2    60  ILE60       0.2260
     46  O          6.2880   21.6690   32.5080 O.2    60  ILE60      -0.2867
     47  CB         7.8310   21.1640   35.3400 C.3    60  ILE60       0.0252
     48  CG1        8.9440   20.2440   35.8450 C.3    60  ILE60       0.0019
     49  CG2        6.5800   20.3060   35.2330 C.3    60  ILE60       0.0019
     50  CD1       10.3580   20.7050   35.5420 C.3    60  ILE60       0.0001
     51  N          6.6790   22.5850   29.3370 N.3    63  PHE63      -0.1241
     52  CA         6.5540   21.3320   28.5710 C.3    63  PHE63       0.1605
     53  C          5.0910   20.9440   28.3160 C.2    63  PHE63       0.2264
     54  O          4.2970   20.8290   29.2540 O.2    63  PHE63      -0.2867
     55  CB         7.2520   20.1650   29.2820 C.3    63  PHE63       0.0534
     56  CG         8.7430   20.3160   29.4340 C.ar   63  PHE63      -0.0203
     57  CD1        9.5180   20.9260   28.4570 C.ar   63  PHE63      -0.0042
     58  CD2        9.3780   19.7960   30.5520 C.ar   63  PHE63      -0.0042
     59  CE1       10.8880   21.0420   28.6060 C.ar   63  PHE63      -0.0003
     60  CE2       10.7480   19.9070   30.7070 C.ar   63  PHE63      -0.0003
     61  CZ        11.5020   20.5290   29.7310 C.ar   63  PHE63      -0.0000
     62  N          5.3530   13.4040   29.5110 N.3    68  ILE68      -0.1231
     63  CA         6.0760   14.1430   30.5320 C.3    68  ILE68       0.1692
     64  C          5.0510   14.6350   31.5350 C.2    68  ILE68       0.2591
     65  O          4.0490   15.2360   31.1570 O.2    68  ILE68      -0.2718
     66  CB         6.8600   15.3610   29.9680 C.3    68  ILE68       0.0266
     67  CG1        8.0360   14.9050   29.1020 C.3    68  ILE68       0.0019
     68  CG2        7.4200   16.2150   31.0920 C.3    68  ILE68       0.0020
     69  CD1        7.6590   14.7250   27.6620 C.3    68  ILE68       0.0001
     70  N          5.3200   14.3820   32.8130 N.am   69  VAL69      -0.1980
     71  CA         4.4440   14.7750   33.9010 C.3    69  VAL69       0.1595
     72  C          4.1550   16.2820   33.8540 C.2    69  VAL69       0.2287
     73  O          5.0690   17.1030   33.7450 O.2    69  VAL69      -0.2864
     74  CB         5.0630   14.3680   35.2510 C.3    69  VAL69       0.0276
     75  CG1        4.3410   15.0340   36.4110 C.3    69  VAL69       0.0022
     76  CG2        5.0120   12.8520   35.3990 C.3    69  VAL69       0.0022
     77  N          1.6480   19.1490   40.6100 N.3    85  LEU85      -0.1231
     78  CA         1.7490   18.2820   39.4400 C.3    85  LEU85       0.1693
     79  C          0.5350   17.3460   39.3850 C.2    85  LEU85       0.2592
     80  O         -0.0830   17.0790   40.4160 O.2    85  LEU85      -0.2718
     81  CB         3.0400   17.4580   39.4910 C.3    85  LEU85       0.0284
     82  CG         4.3440   18.2530   39.7200 C.3    85  LEU85       0.0019
     83  CD1        5.4040   17.4090   40.4150 C.3    85  LEU85       0.0001
     84  CD2        4.9110   18.8090   38.4230 C.3    85  LEU85       0.0001
     85  N          0.1860   16.8890   38.1800 N.am   86  GLU86      -0.1966
     86  CA        -0.8370   15.8650   37.9950 C.3    86  GLU86       0.1733
     87  C         -0.5050   14.6400   38.8360 C.2    86  GLU86       0.2616
     88  O          0.6430   14.2110   38.8590 O.2    86  GLU86      -0.2715
     89  CB        -0.9540   15.4560   36.5110 C.3    86  GLU86       0.0429
     90  CG         0.3260   14.9130   35.8780 C.3    86  GLU86       0.1163
     91  CD         0.1240   14.3450   34.4780 C.2    86  GLU86       0.3649
     92  OE1       -0.8210   13.5590   34.2700 O.co2  86  GLU86      -0.2457
     93  OE2        0.9370   14.6630   33.5770 O.co2  86  GLU86      -0.2457
     94  N         -1.5010   14.0830   39.5210 N.am   87  LEU87      -0.1963
     95  CA        -1.2950   12.8840   40.3310 C.3    87  LEU87       0.1728
     96  C         -1.2160   11.6650   39.4220 C.2    87  LEU87       0.2616
     97  O         -2.1390   11.3900   38.6690 O.2    87  LEU87      -0.2715
     98  CB        -2.4210   12.6870   41.3480 C.3    87  LEU87       0.0311
     99  CG        -2.2300   11.4970   42.3060 C.3    87  LEU87       0.0022
    100  CD1       -1.0200   11.6710   43.2220 C.3    87  LEU87       0.0001
    101  CD2       -3.4900   11.2730   43.1160 C.3    87  LEU87       0.0001
    102  N         -0.1090   10.9350   39.5170 N.am   88  MET88      -0.1963
    103  CA         0.0990    9.7310   38.7360 C.3    88  MET88       0.1736
    104  C         -0.1800    8.5260   39.6380 C.2    88  MET88       0.2616
    105  O          0.7020    8.0370   40.3420 O.2    88  MET88      -0.2715
    106  CB         1.5270    9.7090   38.1820 C.3    88  MET88       0.0427
    107  CG         1.8600   10.8770   37.2620 C.3    88  MET88       0.0599
    108  SD         1.0540   10.7660   35.6510 S.3    88  MET88      -0.1393
    109  CE         1.8590    9.3310   34.9400 C.3    88  MET88       0.0692
    110  N         -1.4230    8.0530   39.5860 N.am   89  ALA89      -0.1977
    111  CA        -1.9560    7.0570   40.5280 C.3    89  ALA89       0.1597
    112  C         -1.2160    5.7180   40.5230 C.2    89  ALA89       0.2287
    113  O         -1.2130    5.0130   41.5220 O.2    89  ALA89      -0.2864
    114  CB        -3.4400    6.8290   40.2550 C.3    89  ALA89       0.0319
    115  N          1.9480    5.2520   40.4860 N.3    91  GLY91      -0.1210
    116  CA         3.2020    5.3170   41.2330 C.3    91  GLY91       0.1956
    117  C          4.4050    5.2470   40.3110 C.2    91  GLY91       0.2611
    118  O          4.2710    5.3540   39.0930 O.2    91  GLY91      -0.2717
    119  N          5.5840    5.0760   40.9010 N.am   92  ASP92      -0.1973
    120  CA         6.8270    4.9760   40.1360 C.3    92  ASP92       0.1709
    121  C          6.9530    3.6100   39.4470 C.2    92  ASP92       0.2293
    122  O          6.4270    2.6060   39.9350 O.2    92  ASP92      -0.2864
    123  CB         8.0500    5.2480   41.0240 C.3    92  ASP92       0.1436
    124  CG         8.3870    4.0800   41.9240 C.2    92  ASP92       0.3671
    125  OD1        7.8270    4.0000   43.0420 O.co2  92  ASP92      -0.2456
    126  OD2        9.2240    3.2410   41.5220 O.co2  92  ASP92      -0.2456
    127  N         11.9460   15.8910   24.7650 N.3   125  LEU125     -0.1245
    128  CA        12.9710   16.6290   25.5230 C.3   125  LEU125      0.1561
    129  C         14.1880   16.9450   24.6590 C.2   125  LEU125      0.2260
    130  O         14.7240   18.0560   24.7150 O.2   125  LEU125     -0.2867
    131  CB        13.4090   15.8670   26.7810 C.3   125  LEU125      0.0270
    132  CG        12.2830   15.5700   27.7910 C.3   125  LEU125      0.0019
    133  CD1       12.7340   14.5790   28.8570 C.3   125  LEU125      0.0001
    134  CD2       11.7340   16.8530   28.4050 C.3   125  LEU125      0.0001
    135  N         16.4760   19.8140   26.1210 N.3   130  PHE130     -0.1241
    136  CA        16.5330   19.6980   27.5620 C.3   130  PHE130      0.1605
    137  C         17.2630   18.4030   27.8730 C.2   130  PHE130      0.2264
    138  O         16.9140   17.3720   27.3370 O.2   130  PHE130     -0.2867
    139  CB        15.1190   19.6700   28.1400 C.3   130  PHE130      0.0534
    140  CG        15.0730   19.4400   29.6260 C.ar  130  PHE130     -0.0203
    141  CD1       15.1840   20.5010   30.5090 C.ar  130  PHE130     -0.0042
    142  CD2       14.9020   18.1640   30.1420 C.ar  130  PHE130     -0.0042
    143  CE1       15.1310   20.2880   31.8740 C.ar  130  PHE130     -0.0003
    144  CE2       14.8530   17.9470   31.5050 C.ar  130  PHE130     -0.0003
    145  CZ        14.9640   19.0070   32.3750 C.ar  130  PHE130     -0.0000
    146  N         17.8320   15.7600   30.6610 N.3   132  HIS132     -0.1241
    147  CA        17.2730   15.2700   31.9080 C.3   132  HIS132      0.1621
    148  C         18.3380   14.8700   32.8860 C.2   132  HIS132      0.2264
    149  O         18.2720   15.2620   34.0420 O.2   132  HIS132     -0.2867
    150  CB        16.3570   14.0860   31.6180 C.3   132  HIS132      0.0745
    151  CG        15.4850   13.6840   32.7780 C.ar  132  HIS132      0.0817
    152  ND1       15.9670   13.0550   33.8600 N.ar  132  HIS132     -0.2268
    153  CD2       14.1120   13.8190   32.9810 C.ar  132  HIS132      0.1154
    154  CE1       14.9610   12.7940   34.7190 C.ar  132  HIS132      0.1986
    155  NE2       13.8250   13.2640   34.1820 N.ar  132  HIS132     -0.2212
    156  N          6.8840    7.4550   35.9130 N.3   141  LEU141     -0.1245
    157  CA         5.6350    7.3740   36.6520 C.3   141  LEU141      0.1561
    158  C          4.5440    6.8230   35.7420 C.2   141  LEU141      0.2260
    159  O          4.6270    6.9560   34.5220 O.2   141  LEU141     -0.2867
    160  CB         5.2720    8.7650   37.1860 C.3   141  LEU141      0.0270
    161  CG         6.0530    9.1790   38.4370 C.3   141  LEU141      0.0019
    162  CD1        6.0780   10.6830   38.5970 C.3   141  LEU141      0.0001
    163  CD2        5.4550    8.5390   39.6790 C.3   141  LEU141      0.0001
    164  N          7.7010   10.7480   32.1190 N.3   153  ILE153     -0.1231
    165  CA         8.9910   11.1100   32.7360 C.3   153  ILE153      0.1692
    166  C          8.7910   12.1200   33.8700 C.2   153  ILE153      0.2593
    167  O          8.0910   13.1230   33.7070 O.2   153  ILE153     -0.2718
    168  CB         9.9510   11.7430   31.7030 C.3   153  ILE153      0.0266
    169  CG1       10.1710   10.7940   30.5220 C.3   153  ILE153      0.0019
    170  CG2       11.2640   12.1420   32.3700 C.3   153  ILE153      0.0020
    171  CD1       10.9980   11.3820   29.4030 C.3   153  ILE153      0.0001
    172  N          9.4030   11.8450   35.0170 N.am  154  GLY154     -0.1942
    173  CA         9.4240   12.7830   36.1410 C.3   154  GLY154      0.2014
    174  C         10.8550   13.0030   36.5890 C.2   154  GLY154      0.2639
    175  O         11.8030   12.6810   35.8700 O.2   154  GLY154     -0.2714
    176  N         11.0150   13.5750   37.7710 N.am  155  ASP155     -0.1957
    177  CA        12.3350   13.6930   38.3860 C.3   155  ASP155      0.1840
    178  C         12.1710   13.9550   39.8700 C.2   155  ASP155      0.2622
    179  O         11.5140   14.9170   40.2500 O.2   155  ASP155     -0.2715
    180  CB        13.1370   14.8200   37.7390 C.3   155  ASP155      0.1450
    181  CG        14.6360   14.7160   38.0140 C.2   155  ASP155      0.3671
    182  OD1       15.0860   13.7440   38.6410 O.co2 155  ASP155     -0.2456
    183  OD2       15.3760   15.6200   37.5900 O.co2 155  ASP155     -0.2456
    184  N         12.7500   13.0920   40.7000 N.am  156  PHE156     -0.1974
    185  CA        12.6820   13.2510   42.1580 C.3   156  PHE156      0.1639
    186  C         13.9200   13.9520   42.6890 C.2   156  PHE156      0.2290
    187  O         13.9950   15.1790   42.6420 O.2   156  PHE156     -0.2864
    188  CB        12.4950   11.8980   42.8450 C.3   156  PHE156      0.0560
    189  CG        11.1550   11.2810   42.5770 C.ar  156  PHE156     -0.0200
    190  CD1       10.0760   11.5530   43.4000 C.ar  156  PHE156     -0.0042
    191  CD2       10.9640   10.4400   41.4850 C.ar  156  PHE156     -0.0042
    192  CE1        8.8420   10.9790   43.1530 C.ar  156  PHE156     -0.0003
    193  CE2        9.7240    9.8710   41.2250 C.ar  156  PHE156     -0.0003
    194  CZ         8.6640   10.1410   42.0600 C.ar  156  PHE156     -0.0000
@<TRIPOS>BOND
     1   129   130    2
     2   129   128    1
     3   127   128    1
     4   128   131    1
     5   135   136    1
     6   131   132    1
     7   138   137    2
     8   136   137    1
     9   136   139    1
    10    69    67    1
    11   132   134    1
    12   132   133    1
    13   139   140    1
    14    53    52    1
    15    53    54    2
    16    57    59   ar
    17    57    56   ar
    18    52    55    1
    19    52    51    1
    20    59    61   ar
    21    67    66    1
    22    55    56    1
    23   171   169    1
    24    56    58   ar
    25    62    63    1
    26   140   142   ar
    27   140   141   ar
    28    61    60   ar
    29    66    63    1
    30    66    68    1
    31   142   144   ar
    32   141   143   ar
    33   169   168    1
    34    63    64    1
    35    58    60   ar
    36   146   147    1
    37    65    64    2
    38   144   145   ar
    39    64    70   am
    40   150   147    1
    41   150   151    1
    42   168   170    1
    43   168   165    1
    44   143   145   ar
    45   147   148    1
    46   164   165    1
    47    46    45    2
    48   165   166    1
    49   151   153   ar
    50   151   152   ar
    51    70    71    1
    52   148   149    2
    53   153   155   ar
    54    45    44    1
    55    93    91   ar
    56   167   166    2
    57    73    72    2
    58    72    71    1
    59   152   154   ar
    60   166   172   am
    61    71    74    1
    62    44    43    1
    63    44    47    1
    64   155   154   ar
    65    92    91   ar
    66    91    90    1
    67   159   158    2
    68   109   108    1
    69   172   173    1
    70    49    47    1
    71    74    76    1
    72    74    75    1
    73    47    48    1
    74    50    48    1
    75   108   107    1
    76   158   157    1
    77   175   174    2
    78    90    89    1
    79   156   157    1
    80   173   174    1
    81    89    86    1
    82   174   176   am
    83   157   160    1
    84    37    36    2
    85   160   161    1
    86   107   106    1
    87   183   181   ar
    88   180   181    1
    89   180   177    1
    90    36    35    1
    91   176   177    1
    92    86    85    1
    93    86    87    1
    94   181   182   ar
    95    85    79   am
    96   106   103    1
    97    35    34    1
    98    35    38    1
    99   177   178    1
   100    84    82    1
   101   161   162    1
   102   161   163    1
   103    97    96    2
   104   103   102    1
   105   103   104    1
   106    87    88    2
   107    87    94   am
   108   118   117    2
   109    39    38    1
   110    39    40    1
   111    42    40   ar
   112    79    78    1
   113    79    80    2
   114    96   102   am
   115    96    95    1
   116    78    81    1
   117    78    77    1
   118   121   122    2
   119   121   120    1
   120    81    82    1
   121    94    95    1
   122   110   104   am
   123   110   111    1
   124   104   105    2
   125    82    83    1
   126   178   179    2
   127   178   184   am
   128    40    41   ar
   129   120   119    1
   130   120   123    1
   131   114   111    1
   132   117   119   am
   133   117   116    1
   134    95    98    1
   135   115   116    1
   136   112   111    1
   137   112   113    2
   138   184   185    1
   139   123   124    1
   140   193   191   ar
   141   193   194   ar
   142    98    99    1
   143   191   189   ar
   144   126   124   ar
   145   124   125   ar
   146   194   192   ar
   147   185   186    1
   148   185   188    1
   149    99   101    1
   150    99   100    1
   151   189   188    1
   152   189   190   ar
   153   187   186    2
   154    20    21    1
   155    24    21    1
   156    23    22    2
   157   192   190   ar
   158    33    32    1
   159    21    22    1
   160    31    32    1
   161    31    30    1
   162    29    30    1
   163    29    26    1
   164    25    26    1
   165    18    17    1
   166    26    27    1
   167     7     6    1
   168    19    17    1
   169    28    27    2
   170    17    14    1
   171     6     8    1
   172     6     5    1
   173     5     2    1
   174    14    15    1
   175    14    13    1
   176    15    16    2
   177     4     3    2
   178    10     9    1
   179    10    11    1
   180     3     2    1
   181     3     9   am
   182     2     1    1
   183    11    12    2
