@<TRIPOS>MOLECULE
tmp/4fnzA00.pdb
 198 188 0 0 0
SMALL
GASTEIGER

@<TRIPOS>ATOM
      1  N         23.4400   11.4360   53.1730 N.3    30  LEU30      -0.1231
      2  CA        23.0760   10.5120   54.2670 C.3    30  LEU30       0.1693
      3  C         21.6280    9.9930   54.1410 C.2    30  LEU30       0.2592
      4  O         21.3840    8.7870   54.1800 O.2    30  LEU30      -0.2718
      5  CB        23.2050   11.1990   55.6370 C.3    30  LEU30       0.0284
      6  CG        24.5670   11.6860   56.1210 C.3    30  LEU30       0.0019
      7  CD1       24.4390   12.2630   57.5210 C.3    30  LEU30       0.0001
      8  CD2       25.5950   10.5660   56.0960 C.3    30  LEU30       0.0001
      9  N         20.6750   10.9210   54.0320 N.am   31  GLY31      -0.1957
     10  CA        19.2500   10.5930   53.9570 C.3    31  GLY31       0.1869
     11  C         18.4330   11.6490   53.2230 C.2    31  GLY31       0.2309
     12  O         18.9770   12.6630   52.7660 O.2    31  GLY31      -0.2863
     13  N         19.7680   15.5320   54.0360 N.3    35  VAL35      -0.1245
     14  CA        20.8470   15.6980   55.0200 C.3    35  VAL35       0.1561
     15  C         22.1990   15.1570   54.5350 C.2    35  VAL35       0.2260
     16  O         22.2720   14.0860   53.9190 O.2    35  VAL35      -0.2867
     17  CB        20.4910   15.0080   56.3440 C.3    35  VAL35       0.0252
     18  CG1       21.6450   15.0960   57.3260 C.3    35  VAL35       0.0019
     19  CG2       19.2490   15.6350   56.9370 C.3    35  VAL35       0.0019
     20  N         26.6060   17.1180   60.7100 N.3    48  ALA48      -0.1245
     21  CA        25.4970   16.8080   59.8160 C.3    48  ALA48       0.1562
     22  C         24.8460   18.1200   59.4280 C.2    48  ALA48       0.2260
     23  O         24.6380   18.9850   60.2850 O.2    48  ALA48      -0.2867
     24  CB        24.4850   15.8980   60.4700 C.3    48  ALA48       0.0290
     25  N         21.5170   19.7070   57.6250 N.3    50  LYS50      -0.1245
     26  CA        20.1560   19.5780   57.1170 C.3    50  LYS50       0.1561
     27  C         19.8790   20.8020   56.2920 C.2    50  LYS50       0.2260
     28  O         20.1070   21.9110   56.7460 O.2    50  LYS50      -0.2867
     29  CB        19.1550   19.5000   58.2640 C.3    50  LYS50       0.0271
     30  CG        17.7120   19.2950   57.8300 C.3    50  LYS50       0.0035
     31  CD        16.7780   19.2820   59.0400 C.3    50  LYS50       0.0206
     32  CE        15.4190   18.6810   58.6880 C.3    50  LYS50       0.1093
     33  NZ        14.5760   18.4740   59.8950 N.3    50  LYS50      -0.1314
     34  N         12.2700   25.3520   63.6760 N.3    67  GLU67      -0.1245
     35  CA        13.0090   24.1560   64.0300 C.3    67  GLU67       0.1567
     36  C         14.4500   24.4760   64.4950 C.2    67  GLU67       0.2260
     37  O         14.9120   23.9570   65.5080 O.2    67  GLU67      -0.2867
     38  CB        13.0250   23.2080   62.8390 C.3    67  GLU67       0.0388
     39  CG        13.1890   21.7640   63.2300 C.3    67  GLU67       0.1160
     40  CD        13.3040   20.8480   62.0330 C.2    67  GLU67       0.3649
     41  OE1       13.1220   21.3200   60.8890 O.co2  67  GLU67      -0.2457
     42  OE2       13.5730   19.6470   62.2460 O.co2  67  GLU67      -0.2457
     43  N         15.7480   23.4540   68.2760 N.3    71  ILE71      -0.1245
     44  CA        16.9040   22.5690   68.4880 C.3    71  ILE71       0.1561
     45  C         18.0420   23.2980   69.2150 C.2    71  ILE71       0.2260
     46  O         18.6940   22.7390   70.0970 O.2    71  ILE71      -0.2867
     47  CB        17.4380   22.0170   67.1450 C.3    71  ILE71       0.0252
     48  CG1       16.3640   21.2150   66.4070 C.3    71  ILE71       0.0019
     49  CG2       18.6320   21.1100   67.3660 C.3    71  ILE71       0.0019
     50  CD1       16.5810   21.1970   64.9060 C.3    71  ILE71       0.0001
     51  N         17.7860   23.5060   73.2140 N.3    74  PHE74      -0.1241
     52  CA        18.0460   22.2830   73.9660 C.3    74  PHE74       0.1605
     53  C         19.5170   22.1650   74.3680 C.2    74  PHE74       0.2264
     54  O         20.4210   22.3300   73.5510 O.2    74  PHE74      -0.2867
     55  CB        17.6980   21.0520   73.1400 C.3    74  PHE74       0.0534
     56  CG        16.2410   20.8920   72.8460 C.ar   74  PHE74      -0.0203
     57  CD1       15.2760   21.2050   73.7800 C.ar   74  PHE74      -0.0042
     58  CD2       15.8350   20.3800   71.6330 C.ar   74  PHE74      -0.0042
     59  CE1       13.9400   21.0450   73.4930 C.ar   74  PHE74      -0.0003
     60  CE2       14.4920   20.2130   71.3430 C.ar   74  PHE74      -0.0003
     61  CZ        13.5440   20.5440   72.2770 C.ar   74  PHE74      -0.0000
     62  N         20.4160   14.7110   73.5850 N.3    79  ILE79      -0.1231
     63  CA        19.6640   15.3650   72.5160 C.3    79  ILE79       0.1692
     64  C         20.6540   15.9830   71.5350 C.2    79  ILE79       0.2591
     65  O         21.5080   16.7890   71.9190 O.2    79  ILE79      -0.2718
     66  CB        18.7350   16.4790   73.0480 C.3    79  ILE79       0.0266
     67  CG1       17.7850   15.9110   74.1040 C.3    79  ILE79       0.0019
     68  CG2       17.9590   17.1190   71.9060 C.3    79  ILE79       0.0020
     69  CD1       16.5270   16.7270   74.3040 C.3    79  ILE79       0.0001
     70  N         20.5100   15.6140   70.2660 N.am   80  VAL80      -0.1980
     71  CA        21.4660   15.9790   69.2270 C.3    80  VAL80       0.1595
     72  C         21.6860   17.4830   69.1970 C.2    80  VAL80       0.2287
     73  O         20.7310   18.2460   69.1360 O.2    80  VAL80      -0.2864
     74  CB        21.0070   15.4470   67.8500 C.3    80  VAL80       0.0276
     75  CG1       21.7470   16.1350   66.7220 C.3    80  VAL80       0.0022
     76  CG2       21.2060   13.9420   67.7810 C.3    80  VAL80       0.0022
     77  N         24.1210   20.2660   62.6010 N.3    96  LEU96      -0.1231
     78  CA        23.8890   19.4230   63.7530 C.3    96  LEU96       0.1693
     79  C         25.0910   18.5260   64.0610 C.2    96  LEU96       0.2592
     80  O         25.9110   18.2490   63.1880 O.2    96  LEU96      -0.2718
     81  CB        22.6530   18.5550   63.4880 C.3    96  LEU96       0.0284
     82  CG        21.3790   19.2870   63.0600 C.3    96  LEU96       0.0019
     83  CD1       20.3440   18.3330   62.4670 C.3    96  LEU96       0.0001
     84  CD2       20.8220   20.0400   64.2470 C.3    96  LEU96       0.0001
     85  N         25.1730   18.0900   65.3160 N.am   97  GLU97      -0.1966
     86  CA        26.0490   17.0030   65.7550 C.3    97  GLU97       0.1733
     87  C         25.9140   15.7900   64.8380 C.2    97  GLU97       0.2616
     88  O         24.8410   15.2020   64.7640 O.2    97  GLU97      -0.2715
     89  CB        25.6380   16.6150   67.1770 C.3    97  GLU97       0.0429
     90  CG        26.4510   15.5490   67.8820 C.3    97  GLU97       0.1163
     91  CD        25.9500   15.2790   69.3030 C.2    97  GLU97       0.3649
     92  OE1       26.5220   14.4120   69.9790 O.co2  97  GLU97      -0.2457
     93  OE2       24.9790   15.9220   69.7610 O.co2  97  GLU97      -0.2457
     94  N         26.9910   15.4390   64.1240 N.am   98  LEU98      -0.1963
     95  CA        27.0520   14.2210   63.2930 C.3    98  LEU98       0.1728
     96  C         26.9380   12.9980   64.1710 C.2    98  LEU98       0.2616
     97  O         27.7250   12.8370   65.1010 O.2    98  LEU98      -0.2715
     98  CB        28.3770   14.1330   62.5400 C.3    98  LEU98       0.0311
     99  CG        28.5510   12.9490   61.5860 C.3    98  LEU98       0.0022
    100  CD1       27.6530   13.1200   60.3740 C.3    98  LEU98       0.0001
    101  CD2       29.9910   12.7950   61.1420 C.3    98  LEU98       0.0001
    102  N         25.9500   12.1510   63.8760 N.am   99  MET99      -0.1963
    103  CA        25.7120   10.8990   64.6020 C.3    99  MET99       0.1736
    104  C         26.0570    9.7650   63.6510 C.2    99  MET99       0.2616
    105  O         25.2690    9.4260   62.7590 O.2    99  MET99      -0.2715
    106  CB        24.2500   10.7840   65.0390 C.3    99  MET99       0.0427
    107  CG        23.7750   11.9430   65.8890 C.3    99  MET99       0.0599
    108  SD        24.4700   11.9190   67.5370 S.3    99  MET99      -0.1393
    109  CE        23.5340   10.5570   68.2270 C.3    99  MET99       0.0692
    110  N         27.2470    9.2000   63.8440 N.am  100  ALA100     -0.1963
    111  CA        27.8240    8.2480   62.8970 C.3   100  ALA100      0.1728
    112  C         27.0720    6.9180   62.8370 C.2   100  ALA100      0.2617
    113  O         27.0880    6.2410   61.8150 O.2   100  ALA100     -0.2715
    114  CB        29.2880    8.0070   63.2310 C.3   100  ALA100      0.0334
    115  N         26.4020    6.5510   63.9200 N.am  101  GLY101     -0.1940
    116  CA        25.7370    5.2560   63.9860 C.3   101  GLY101      0.2014
    117  C         24.3580    5.1640   63.3790 C.2   101  GLY101      0.2639
    118  O         23.7490    4.1060   63.4380 O.2   101  GLY101     -0.2714
    119  N         23.8350    6.2660   62.8390 N.am  102  GLY102     -0.1939
    120  CA        22.5110    6.2670   62.2060 C.3   102  GLY102      0.2014
    121  C         21.3520    6.1940   63.1870 C.2   102  GLY102      0.2638
    122  O         21.5260    6.4650   64.3740 O.2   102  GLY102     -0.2714
    123  N         20.1650    5.8320   62.6910 N.am  103  ASP103     -0.1971
    124  CA        18.9520    5.7740   63.5300 C.3   103  ASP103      0.1709
    125  C         18.8790    4.4470   64.2480 C.2   103  ASP103      0.2293
    126  O         19.4240    3.4440   63.7840 O.2   103  ASP103     -0.2864
    127  CB        17.6620    6.0110   62.7280 C.3   103  ASP103      0.1436
    128  CG        17.4090    4.9410   61.6780 C.2   103  ASP103      0.3671
    129  OD1       18.1480    4.9090   60.6690 O.co2 103  ASP103     -0.2456
    130  OD2       16.4660    4.1390   61.8450 O.co2 103  ASP103     -0.2456
    131  N         13.3730   16.7690   78.6280 N.3   140  LEU140     -0.1245
    132  CA        12.2050   17.3830   77.9920 C.3   140  LEU140      0.1561
    133  C         11.0190   17.5800   78.9630 C.2   140  LEU140      0.2260
    134  O         10.3510   18.6140   78.9250 O.2   140  LEU140     -0.2867
    135  CB        11.7860   16.5620   76.7790 C.3   140  LEU140      0.0270
    136  CG        12.8070   16.4900   75.6460 C.3   140  LEU140      0.0019
    137  CD1       12.2770   15.7060   74.4600 C.3   140  LEU140      0.0001
    138  CD2       13.1600   17.9060   75.2370 C.3   140  LEU140      0.0001
    139  N          8.5400   20.2730   77.6170 N.3   145  PHE145     -0.1241
    140  CA         8.4530   20.1610   76.1620 C.3   145  PHE145      0.1605
    141  C          7.9730   18.7590   75.8530 C.2   145  PHE145      0.2264
    142  O          8.5120   17.7840   76.3670 O.2   145  PHE145     -0.2867
    143  CB         9.8220   20.4010   75.5060 C.3   145  PHE145      0.0534
    144  CG         9.7960   20.4080   73.9990 C.ar  145  PHE145     -0.0203
    145  CD1        9.7960   21.6030   73.2980 C.ar  145  PHE145     -0.0042
    146  CD2        9.7910   19.2220   73.2800 C.ar  145  PHE145     -0.0042
    147  CE1        9.7670   21.6170   71.9110 C.ar  145  PHE145     -0.0003
    148  CE2        9.7780   19.2210   71.8890 C.ar  145  PHE145     -0.0003
    149  CZ         9.7580   20.4210   71.2030 C.ar  145  PHE145     -0.0000
    150  N          7.4240   15.9360   73.0690 N.3   147  HIS147     -0.1241
    151  CA         7.9970   15.5230   71.8000 C.3   147  HIS147      0.1621
    152  C          6.9550   15.0750   70.8380 C.2   147  HIS147      0.2264
    153  O          6.9810   15.4810   69.6820 O.2   147  HIS147     -0.2867
    154  CB         8.9950   14.3890   72.0030 C.3   147  HIS147      0.0745
    155  CG         9.8290   14.1140   70.7850 C.ar  147  HIS147      0.0817
    156  ND1        9.3930   13.3520   69.7660 N.ar  147  HIS147     -0.2268
    157  CD2       11.0850   14.5640   70.4270 C.ar  147  HIS147      0.1154
    158  CE1       10.3190   13.3040   68.8160 C.ar  147  HIS147      0.1986
    159  NE2       11.3590   14.0480   69.2160 N.ar  147  HIS147     -0.2212
    160  N         18.9840    8.7090   67.4180 N.3   156  LEU156     -0.1245
    161  CA        20.2380    8.4720   66.6860 C.3   156  LEU156      0.1561
    162  C         21.3420    7.9500   67.5940 C.2   156  LEU156      0.2260
    163  O         21.2640    8.0720   68.8140 O.2   156  LEU156     -0.2867
    164  CB        20.7060    9.7470   66.0150 C.3   156  LEU156      0.0270
    165  CG        19.6960   10.4020   65.0880 C.3   156  LEU156      0.0019
    166  CD1       20.3240   11.6350   64.4770 C.3   156  LEU156      0.0001
    167  CD2       19.2190    9.4360   64.0080 C.3   156  LEU156      0.0001
    168  N         17.8300   11.5720   71.3220 N.3   168  ILE168     -0.1231
    169  CA        16.6780   12.0210   70.5480 C.3   168  ILE168      0.1692
    170  C         17.2470   12.9450   69.4810 C.2   168  ILE168      0.2593
    171  O         17.9190   13.9270   69.7970 O.2   168  ILE168     -0.2718
    172  CB        15.6470   12.8160   71.3890 C.3   168  ILE168      0.0266
    173  CG1       15.2260   12.0550   72.6450 C.3   168  ILE168      0.0019
    174  CG2       14.4060   13.1040   70.5640 C.3   168  ILE168      0.0020
    175  CD1       14.4990   12.9200   73.6510 C.3   168  ILE168      0.0001
    176  N         17.0150   12.6090   68.2220 N.am  169  GLY169     -0.1942
    177  CA        17.5980   13.3770   67.1370 C.3   169  GLY169      0.2014
    178  C         16.6700   13.7040   65.9950 C.2   169  GLY169      0.2639
    179  O         17.1350   14.1530   64.9600 O.2   169  GLY169     -0.2714
    180  N         15.3680   13.4950   66.1610 N.am  170  ASP170     -0.1957
    181  CA        14.4070   13.9050   65.1440 C.3   170  ASP170      0.1840
    182  C         13.0310   14.2020   65.7410 C.2   170  ASP170      0.2622
    183  O         12.6710   13.6840   66.8050 O.2   170  ASP170     -0.2715
    184  CB        14.3080   12.8440   64.0460 C.3   170  ASP170      0.1450
    185  CG        13.6580   13.3750   62.7580 C.2   170  ASP170      0.3671
    186  OD1       13.5270   14.6140   62.6200 O.co2 170  ASP170     -0.2456
    187  OD2       13.2870   12.5500   61.8860 O.co2 170  ASP170     -0.2456
    188  N         12.2870   15.0660   65.0520 N.am  171  PHE171     -0.1974
    189  CA        10.9410   15.4450   65.4710 C.3   171  PHE171      0.1639
    190  C          9.9000   14.4420   64.9970 C.2   171  PHE171      0.2290
    191  O          8.9710   14.1370   65.7300 O.2   171  PHE171     -0.2864
    192  CB        10.5930   16.8640   64.9860 C.3   171  PHE171      0.0560
    193  CG        11.2450   17.9560   65.8030 C.ar  171  PHE171     -0.0200
    194  CD1       11.0250   18.0360   67.1750 C.ar  171  PHE171     -0.0042
    195  CD2       12.0840   18.8960   65.2100 C.ar  171  PHE171     -0.0042
    196  CE1       11.6300   19.0170   67.9400 C.ar  171  PHE171     -0.0003
    197  CE2       12.6830   19.8870   65.9700 C.ar  171  PHE171     -0.0003
    198  CZ        12.4560   19.9460   67.3350 C.ar  171  PHE171     -0.0000
@<TRIPOS>BOND
     1    12    11    2
     2     1     2    1
     3    11    10    1
     4    16    15    2
     5    10     9    1
     6     9     3   am
     7    13    14    1
     8     3     4    2
     9     3     2    1
    10     2     5    1
    11    15    14    1
    12    14    17    1
    13     5     6    1
    14     8     6    1
    15     6     7    1
    16    27    28    2
    17    27    26    1
    18    17    19    1
    19    17    18    1
    20    26    25    1
    21    26    29    1
    22    30    29    1
    23    30    31    1
    24    32    31    1
    25    32    33    1
    26    22    21    1
    27    22    23    2
    28    21    24    1
    29    21    20    1
    30   100    99    1
    31   129   128   ar
    32    41    40   ar
    33   101    99    1
    34    99    98    1
    35   128   130   ar
    36   128   127    1
    37   113   112    2
    38   187   185   ar
    39    40    42   ar
    40    40    39    1
    41   120   119    1
    42   120   121    1
    43    83    82    1
    44    98    95    1
    45    77    78    1
    46   186   185   ar
    47   123   121   am
    48   123   124    1
    49   127   124    1
    50   185   184    1
    51   105   104    2
    52   112   111    1
    53   112   115   am
    54    38    39    1
    55    38    35    1
    56   119   117   am
    57   111   114    1
    58   111   110    1
    59    82    81    1
    60    82    84    1
    61   121   122    2
    62    80    79    2
    63    95    94    1
    64    95    96    1
    65   117   118    2
    66   117   116    1
    67    81    78    1
    68   124   125    1
    69   104   110   am
    70   104   103    1
    71    34    35    1
    72    78    79    1
    73   126   125    2
    74   102    96   am
    75   102   103    1
    76   115   116    1
    77   167   165    1
    78    35    36    1
    79   184   181    1
    80    79    85   am
    81    94    87   am
    82    96    97    2
    83   166   165    1
    84    36    37    2
    85   103   106    1
    86    88    87    2
    87    87    86    1
    88    50    48    1
    89   179   178    2
    90   192   189    1
    91   192   193    1
    92   190   189    1
    93   190   191    2
    94   106   107    1
    95   188   189    1
    96   188   182   am
    97   165   164    1
    98   181   182    1
    99   181   180    1
   100   195   193   ar
   101   195   197   ar
   102    85    86    1
   103   182   183    2
   104    86    89    1
   105   193   194   ar
   106   107   108    1
   107   197   198   ar
   108   178   180   am
   109   178   177    1
   110   164   161    1
   111    48    47    1
   112   161   160    1
   113   161   162    1
   114    75    74    1
   115   177   176    1
   116    47    49    1
   117    47    44    1
   118   194   196   ar
   119    89    90    1
   120   198   196   ar
   121   108   109    1
   122   162   163    2
   123    76    74    1
   124    74    71    1
   125    90    91    1
   126   176   170   am
   127    43    44    1
   128    44    45    1
   129   158   159   ar
   130   158   156   ar
   131    73    72    2
   132    72    71    1
   133    45    46    2
   134   159   157   ar
   135    71    70    1
   136    91    93   ar
   137    91    92   ar
   138   170   171    2
   139   170   169    1
   140   153   152    2
   141   156   155   ar
   142    70    64   am
   143   157   155   ar
   144   169   168    1
   145   169   172    1
   146   174   172    1
   147   155   154    1
   148   152   151    1
   149   149   148   ar
   150   149   147   ar
   151    60    58   ar
   152    60    61   ar
   153   172   173    1
   154    64    65    2
   155    64    63    1
   156    58    56   ar
   157   151   154    1
   158   151   150    1
   159   148   146   ar
   160    68    66    1
   161   147   145   ar
   162    61    59   ar
   163    63    66    1
   164    63    62    1
   165   173   175    1
   166    56    55    1
   167    56    57   ar
   168    66    67    1
   169    55    52    1
   170    51    52    1
   171   146   144   ar
   172   145   144   ar
   173    59    57   ar
   174    54    53    2
   175    52    53    1
   176   144   143    1
   177    67    69    1
   178   137   136    1
   179   138   136    1
   180   143   140    1
   181   136   135    1
   182   141   140    1
   183   141   142    2
   184   140   139    1
   185   135   132    1
   186   132   131    1
   187   132   133    1
   188   134   133    2
