@<TRIPOS>MOLECULE
tmp/4fo0A00.pdb
 176 167 0 0 0
SMALL
GASTEIGER

@<TRIPOS>ATOM
      1  N        -40.2660   11.0030  -23.8700 N.3    21  HIS21      -0.1227
      2  CA       -39.1010   11.3880  -23.0920 C.3    21  HIS21       0.1737
      3  C        -39.4950   11.6420  -21.6500 C.2    21  HIS21       0.2438
      4  O        -39.9390   12.7370  -21.2960 O.2    21  HIS21      -0.2733
      5  CB       -38.4710   12.6470  -23.6550 C.3    21  HIS21       0.0758
      6  CG       -37.1460   12.9640  -23.0500 C.ar   21  HIS21       0.0818
      7  ND1      -36.5130   14.1780  -23.2330 N.ar   21  HIS21      -0.2268
      8  CD2      -36.3270   12.2260  -22.2620 C.ar   21  HIS21       0.1154
      9  CE1      -35.3600   14.1680  -22.5890 C.ar   21  HIS21       0.1986
     10  NE2      -35.2240   12.9980  -21.9870 N.ar   21  HIS21      -0.2212
     11  N        -39.3290   10.6260  -20.8090 N.am   22  PRO22      -0.2718
     12  CA       -39.6370   10.7070  -19.3760 C.3    22  PRO22       0.1535
     13  C        -38.6020   11.5670  -18.6520 C.2    22  PRO22       0.2599
     14  O        -37.4700   11.6780  -19.1060 O.2    22  PRO22      -0.2715
     15  CB       -39.5080    9.2560  -18.9080 C.3    22  PRO22       0.0310
     16  CG       -39.3120    8.4260  -20.1680 C.3    22  PRO22       0.0237
     17  CD       -38.7270    9.3380  -21.1790 C.3    22  PRO22       0.0939
     18  N        -39.0030   12.1750  -17.5440 N.am   23  GLY23      -0.1941
     19  CA       -38.1000   12.9410  -16.6990 C.3    23  GLY23       0.2014
     20  C        -38.5300   12.8010  -15.2450 C.2    23  GLY23       0.2640
     21  O        -39.6550   12.3690  -14.9530 O.2    23  GLY23      -0.2714
     22  N        -37.6480   13.1550  -14.3220 N.am   24  SER24      -0.1935
     23  CA       -37.9960   13.1280  -12.9040 C.3    24  SER24       0.2055
     24  C        -39.2210   14.0040  -12.6330 C.2    24  SER24       0.2644
     25  O        -40.0930   13.6530  -11.8400 O.2    24  SER24      -0.2714
     26  CB       -36.8240   13.6270  -12.0580 C.3    24  SER24       0.2130
     27  OG       -35.6710   12.8430  -12.2970 O.3    24  SER24      -0.2179
     28  N        -39.2910   15.1460  -13.3060 N.am   25  THR25      -0.1936
     29  CA       -40.3500   16.1000  -13.0300 C.3    25  THR25       0.2028
     30  C        -41.2810   16.3150  -14.2230 C.2    25  THR25       0.2642
     31  O        -42.4840   16.5350  -14.0500 O.2    25  THR25      -0.2714
     32  CB       -39.7690   17.4170  -12.4570 C.3    25  THR25       0.1808
     33  OG1      -39.3920   17.1770  -11.1000 O.3    25  THR25      -0.2208
     34  CG2      -40.7880   18.5400  -12.4530 C.3    25  THR25       0.0379
     35  N        -40.7540   16.2250  -15.4340 N.am   26  THR26      -0.1950
     36  CA       -41.6130   16.4420  -16.5960 C.3    26  THR26       0.1897
     37  C        -41.5360   15.3170  -17.6060 C.2    26  THR26       0.2313
     38  O        -40.4520   14.9440  -18.0390 O.2    26  THR26      -0.2863
     39  CB       -41.2840   17.7490  -17.3150 C.3    26  THR26       0.1794
     40  OG1      -41.3950   18.8410  -16.3930 O.3    26  THR26      -0.2208
     41  CG2      -42.2440   17.9630  -18.4810 C.3    26  THR26       0.0378
     42  N        -42.1910   14.4300  -21.4050 N.3    28  ARG28      -0.1245
     43  CA       -42.3820   15.1010  -22.6840 C.3    28  ARG28       0.1563
     44  C        -42.7980   14.0560  -23.6990 C.2    28  ARG28       0.2260
     45  O        -42.0930   13.0630  -23.9280 O.2    28  ARG28      -0.2867
     46  CB       -41.1380   15.9100  -23.0920 C.3    28  ARG28       0.0307
     47  CG       -41.1840   17.2980  -22.4600 C.3    28  ARG28       0.0489
     48  CD       -39.8620   18.0210  -22.4050 C.3    28  ARG28       0.2205
     49  NE       -39.0980   17.6810  -21.2110 N.pl3  28  ARG28      -0.0865
     50  CZ       -38.9110   18.4800  -20.1590 C.cat  28  ARG28       0.5346
     51  NH1      -39.4310   19.7020  -20.1180 N.pl3  28  ARG28       0.1354
     52  NH2      -38.1800   18.0480  -19.1380 N.pl3  28  ARG28       0.1354
     53  N        -33.7060   10.7440  -11.9350 N.3   158  GLY158     -0.1225
     54  CA       -33.5540   10.0940  -13.2280 C.3   158  GLY158      0.1811
     55  C        -33.6020    8.5790  -13.2080 C.2   158  GLY158      0.2280
     56  O        -33.2860    7.9290  -14.2130 O.2   158  GLY158     -0.2866
     57  N        -31.0140    9.3260  -24.3120 N.3   235  GLU235     -0.1245
     58  CA       -31.4330   10.7050  -24.4330 C.3   235  GLU235      0.1567
     59  C        -30.2370   11.5700  -24.8690 C.2   235  GLU235      0.2260
     60  O        -30.4050   12.6020  -25.5160 O.2   235  GLU235     -0.2867
     61  CB       -32.0950   11.1960  -23.1270 C.3   235  GLU235      0.0388
     62  CG       -31.1420   11.3540  -21.9320 C.3   235  GLU235      0.1160
     63  CD       -31.8270   11.2790  -20.5480 C.2   235  GLU235      0.3649
     64  OE1      -31.1380   10.8990  -19.5710 O.co2 235  GLU235     -0.2457
     65  OE2      -33.0290   11.6060  -20.4200 O.co2 235  GLU235     -0.2457
     66  N        -26.7590   17.1860  -19.8830 N.3   252  ASP252     -0.1239
     67  CA       -28.1830   17.3730  -19.6680 C.3   252  ASP252      0.1674
     68  C        -28.4100   17.7120  -18.2040 C.2   252  ASP252      0.2266
     69  O        -28.3110   16.8380  -17.3380 O.2   252  ASP252     -0.2867
     70  CB       -28.9670   16.1250  -20.0800 C.3   252  ASP252      0.1410
     71  CG       -30.4980   16.2920  -19.9160 C.2   252  ASP252      0.3668
     72  OD1      -30.9450   17.0680  -19.0370 O.co2 252  ASP252     -0.2456
     73  OD2      -31.2600   15.6350  -20.6700 O.co2 252  ASP252     -0.2456
     74  N        -31.0410   18.4020  -15.6360 N.3   254  GLY254     -0.1210
     75  CA       -32.4690   18.3050  -15.4310 C.3   254  GLY254      0.1956
     76  C        -32.8550   18.8710  -14.0890 C.2   254  GLY254      0.2612
     77  O        -32.1250   19.6610  -13.4820 O.2   254  GLY254     -0.2717
     78  N        -34.0180   18.4660  -13.6100 N.am  255  ASP255     -0.1959
     79  CA       -34.4570   18.9670  -12.3350 C.3   255  ASP255      0.1840
     80  C        -33.7290   18.2490  -11.2100 C.2   255  ASP255      0.2622
     81  O        -33.5120   18.8150  -10.1520 O.2   255  ASP255     -0.2715
     82  CB       -35.9650   18.8270  -12.1790 C.3   255  ASP255      0.1450
     83  CG       -36.4660   19.4430  -10.8860 C.2   255  ASP255      0.3671
     84  OD1      -36.1580   20.6240  -10.6110 O.co2 255  ASP255     -0.2456
     85  OD2      -37.1460   18.7320  -10.1290 O.co2 255  ASP255     -0.2456
     86  N        -33.3290   17.0080  -11.4460 N.am  256  GLN256     -0.1963
     87  CA       -32.7430   16.2120  -10.3710 C.3   256  GLN256      0.1733
     88  C        -31.4560   15.4770  -10.7080 C.2   256  GLN256      0.2616
     89  O        -30.7150   15.1020   -9.8080 O.2   256  GLN256     -0.2715
     90  CB       -33.7740   15.2310   -9.8400 C.3   256  GLN256      0.0408
     91  CG       -34.7740   15.9440   -8.9810 C.3   256  GLN256      0.0908
     92  CD       -36.0090   15.1670   -8.8030 C.2   256  GLN256      0.2608
     93  OE1      -35.9820   13.9370   -8.6750 O.2   256  GLN256     -0.2717
     94  NE2      -37.1310   15.8640   -8.8230 N.am  256  GLN256     -0.0878
     95  N        -31.1920   15.2590  -11.9920 N.am  257  LYS257     -0.1977
     96  CA       -29.9770   14.5580  -12.3770 C.3   257  LYS257      0.1596
     97  C        -29.2620   15.3630  -13.4150 C.2   257  LYS257      0.2287
     98  O        -29.8940   16.0940  -14.1700 O.2   257  LYS257     -0.2864
     99  CB       -30.2790   13.1500  -12.8990 C.3   257  LYS257      0.0298
    100  CG       -30.9460   13.1050  -14.2480 C.3   257  LYS257      0.0038
    101  CD       -29.9230   13.0580  -15.3750 C.3   257  LYS257      0.0206
    102  CE       -30.5660   13.3800  -16.7190 C.3   257  LYS257      0.1093
    103  NZ       -31.0650   14.7850  -16.7710 N.3   257  LYS257     -0.1314
    104  N        -31.6820   21.1360  -11.1460 N.3   280  GLY280     -0.1225
    105  CA       -32.4120   22.3580  -10.8530 C.3   280  GLY280      0.1811
    106  C        -33.0490   22.4350   -9.4740 C.2   280  GLY280      0.2280
    107  O        -33.1180   23.5050   -8.8740 O.2   280  GLY280     -0.2866
    108  N        -39.3570   26.9240   -7.2080 N.3   313  GLN313     -0.1245
    109  CA       -38.8740   26.7270   -8.5700 C.3   313  GLN313      0.1566
    110  C        -39.0560   28.0140   -9.3470 C.2   313  GLN313      0.2260
    111  O        -38.1530   28.4530  -10.0640 O.2   313  GLN313     -0.2867
    112  CB       -39.5960   25.5910   -9.2940 C.3   313  GLN313      0.0367
    113  CG       -39.3530   24.2370   -8.7100 C.3   313  GLN313      0.0905
    114  CD       -38.4250   23.3940   -9.5530 C.2   313  GLN313      0.2608
    115  OE1      -37.2530   23.1890   -9.2010 O.2   313  GLN313     -0.2717
    116  NE2      -38.9460   22.8780  -10.6690 N.am  313  GLN313     -0.0878
    117  N        -36.6090   30.9060   -8.3040 N.3   316  LYS316     -0.1231
    118  CA       -35.3160   30.6270   -8.8980 C.3   316  LYS316      0.1693
    119  C        -35.2840   31.0080  -10.3830 C.2   316  LYS316      0.2591
    120  O        -34.3270   31.6250  -10.8510 O.2   316  LYS316     -0.2718
    121  CB       -34.9530   29.1520   -8.7640 C.3   316  LYS316      0.0285
    122  CG       -33.7610   28.7730   -9.6340 C.3   316  LYS316      0.0035
    123  CD       -33.5680   27.2830   -9.7520 C.3   316  LYS316      0.0206
    124  CE       -34.6900   26.6390  -10.5330 C.3   316  LYS316      0.1093
    125  NZ       -34.4340   25.1850  -10.6970 N.3   316  LYS316     -0.1314
    126  N        -36.3160   30.6350  -11.1300 N.am  317  GLU317     -0.1979
    127  CA       -36.2670   30.8400  -12.5750 C.3   317  GLU317      0.1602
    128  C        -36.3890   32.2930  -12.9460 C.2   317  GLU317      0.2287
    129  O        -35.9660   32.7070  -14.0320 O.2   317  GLU317     -0.2864
    130  CB       -37.3460   30.0580  -13.2710 C.3   317  GLU317      0.0415
    131  CG       -37.1990   28.5820  -13.1070 C.3   317  GLU317      0.1163
    132  CD       -38.5120   27.8700  -13.2950 C.2   317  GLU317      0.3649
    133  OE1      -39.5480   28.5660  -13.4260 O.co2 317  GLU317     -0.2457
    134  OE2      -38.5030   26.6200  -13.3000 O.co2 317  GLU317     -0.2457
    135  N        -31.5590   20.4780  -21.4930 N.3   417  GLY417     -0.1210
    136  CA       -32.4330   20.4030  -20.3360 C.3   417  GLY417      0.1956
    137  C        -32.6610   21.7440  -19.6470 C.2   417  GLY417      0.2612
    138  O        -32.0830   22.7490  -20.0250 O.2   417  GLY417     -0.2717
    139  N        -33.4970   21.7640  -18.6170 N.am  418  GLY418     -0.1942
    140  CA       -33.9300   23.0150  -18.0330 C.3   418  GLY418      0.2014
    141  C        -33.0110   23.5440  -16.9550 C.2   418  GLY418      0.2639
    142  O        -32.9800   24.7460  -16.6880 O.2   418  GLY418     -0.2714
    143  N        -32.2560   22.6370  -16.3450 N.am  419  GLY419     -0.1954
    144  CA       -31.5260   22.9270  -15.1210 C.3   419  GLY419      0.1869
    145  C        -30.5470   24.0820  -15.2120 C.2   419  GLY419      0.2309
    146  O        -30.2750   24.7360  -14.2170 O.2   419  GLY419     -0.2863
    147  N        -30.8250   26.8200  -17.2910 N.3   421  MET421     -0.1230
    148  CA       -31.4240   27.8650  -18.1040 C.3   421  MET421      0.1702
    149  C        -31.3030   29.2780  -17.5260 C.2   421  MET421      0.2592
    150  O        -32.1670   30.1210  -17.7280 O.2   421  MET421     -0.2718
    151  CB       -32.8620   27.4980  -18.4730 C.3   421  MET421      0.0401
    152  CG       -32.9260   26.6290  -19.7340 C.3   421  MET421      0.0596
    153  SD       -34.5720   26.0820  -20.2250 S.3   421  MET421     -0.1393
    154  CE       -35.5170   27.6020  -20.1590 C.3   421  MET421      0.0692
    155  N        -30.1960   29.5420  -16.8480 N.am  422  PHE422     -0.1976
    156  CA       -29.9490   30.8570  -16.2720 C.3   422  PHE422      0.1639
    157  C        -29.3230   31.8410  -17.2460 C.2   422  PHE422      0.2290
    158  O        -28.5420   31.4780  -18.1190 O.2   422  PHE422     -0.2864
    159  CB       -29.0410   30.7400  -15.0670 C.3   422  PHE422      0.0560
    160  CG       -29.5120   29.7580  -14.0720 C.ar  422  PHE422     -0.0200
    161  CD1      -30.4930   30.1000  -13.1660 C.ar  422  PHE422     -0.0042
    162  CD2      -28.9740   28.4840  -14.0360 C.ar  422  PHE422     -0.0042
    163  CE1      -30.9330   29.1880  -12.2300 C.ar  422  PHE422     -0.0003
    164  CE2      -29.4030   27.5730  -13.1040 C.ar  422  PHE422     -0.0003
    165  CZ       -30.3900   27.9230  -12.1950 C.ar  422  PHE422     -0.0000
    166  N        -34.9770   22.3610  -23.0620 N.3   460  ARG460     -0.1245
    167  CA       -35.7660   21.2660  -22.5270 C.3   460  ARG460      0.1563
    168  C        -36.2620   20.3080  -23.5860 C.2   460  ARG460      0.2260
    169  O        -36.5440   19.1560  -23.2790 O.2   460  ARG460     -0.2867
    170  CB       -36.9310   21.8090  -21.7170 C.3   460  ARG460      0.0307
    171  CG       -36.4680   22.3710  -20.3960 C.3   460  ARG460      0.0489
    172  CD       -37.5050   23.2390  -19.7950 C.3   460  ARG460      0.2205
    173  NE       -37.8320   24.3260  -20.6980 N.pl3 460  ARG460     -0.0865
    174  CZ       -38.6740   25.2970  -20.3960 C.cat 460  ARG460      0.5346
    175  NH1      -39.2720   25.3060  -19.2100 N.pl3 460  ARG460      0.1354
    176  NH2      -38.9190   26.2490  -21.2780 N.pl3 460  ARG460      0.1354
@<TRIPOS>BOND
     1    60    59    2
     2    59    58    1
     3    58    57    1
     4    58    61    1
     5    45    44    2
     6     1     2    1
     7    44    43    1
     8     5     2    1
     9     5     6    1
    10   168   169    2
    11   168   167    1
    12     7     6   ar
    13     7     9   ar
    14    61    62    1
    15     2     3    1
    16    46    43    1
    17    46    47    1
    18   166   167    1
    19     6     8   ar
    20    43    42    1
    21     9    10   ar
    22   167   170    1
    23    47    48    1
    24    48    49    1
    25     8    10   ar
    26    62    63    1
    27   170   171    1
    28     3     4    2
    29     3    11   am
    30   135   136    1
    31   176   174    1
    32    49    50    2
    33    17    11    1
    34    17    16    1
    35    11    12    1
    36   173   174    2
    37   173   172    1
    38    73    71   ar
    39    63    65   ar
    40    63    64   ar
    41   171   172    1
    42   174   175    1
    43   136   137    1
    44   153   154    1
    45   153   152    1
    46    16    15    1
    47    50    51    1
    48    50    52    1
    49    70    71    1
    50    70    67    1
    51   138   137    2
    52    71    72   ar
    53    66    67    1
    54   152   151    1
    55    67    68    1
    56   137   139   am
    57    12    15    1
    58    12    13    1
    59    14    13    2
    60    13    18   am
    61   139   140    1
    62    41    39    1
    63   151   148    1
    64    68    69    2
    65   158   157    2
    66   148   149    1
    67   148   147    1
    68    38    37    2
    69   140   141    1
    70   150   149    2
    71    37    36    1
    72    18    19    1
    73   149   155   am
    74    39    36    1
    75    39    40    1
    76   157   156    1
    77   141   142    2
    78   141   143   am
    79   155   156    1
    80   103   102    1
    81   102   101    1
    82    19    20    1
    83    36    35    1
    84   143   144    1
    85   156   159    1
    86    74    75    1
    87    35    30   am
    88    75    76    1
    89   101   100    1
    90    20    21    2
    91    20    22   am
    92   145   144    1
    93   145   146    2
    94   159   160    1
    95    22    23    1
    96   100    99    1
    97    30    31    2
    98    30    29    1
    99    56    55    2
   100    98    97    2
   101    76    78   am
   102    76    77    2
   103   160   162   ar
   104   160   161   ar
   105   162   164   ar
   106   129   128    2
   107    78    79    1
   108   133   132   ar
   109    97    96    1
   110    28    29    1
   111    28    24   am
   112   134   132   ar
   113   132   131    1
   114   130   131    1
   115   130   127    1
   116    54    55    1
   117    54    53    1
   118   161   163   ar
   119   164   165   ar
   120    29    32    1
   121   128   127    1
   122    23    24    1
   123    23    26    1
   124    99    96    1
   125    24    25    2
   126   127   126    1
   127    32    34    1
   128    32    33    1
   129    96    95    1
   130    79    82    1
   131    79    80    1
   132    27    26    1
   133   163   165   ar
   134    82    83    1
   135    95    88   am
   136    86    80   am
   137    86    87    1
   138    80    81    2
   139   104   105    1
   140   126   119   am
   141    83    84   ar
   142    83    85   ar
   143   105   106    1
   144   120   119    2
   145    88    87    1
   146    88    89    2
   147   125   124    1
   148   116   114   am
   149   124   123    1
   150   119   118    1
   151    87    90    1
   152   111   110    2
   153    90    91    1
   154   123   122    1
   155   122   121    1
   156   114   115    2
   157   114   113    1
   158   106   107    2
   159   110   109    1
   160   112   113    1
   161   112   109    1
   162    91    92    1
   163   118   121    1
   164   118   117    1
   165    94    92   am
   166    92    93    2
   167   109   108    1
