@<TRIPOS>MOLECULE
tmp/4fo1B00.pdb
 126 119 0 0 0
SMALL
GASTEIGER

@<TRIPOS>ATOM
      1  N         31.1340    0.5120    9.1260 N.3    24  ASP24      -0.1225
      2  CA        30.9900   -0.6680    9.9700 C.3    24  ASP24       0.1805
      3  C         30.0430   -1.6540    9.2900 C.2    24  ASP24       0.2598
      4  O         29.6690   -1.4590    8.1320 O.2    24  ASP24      -0.2718
      5  CB        30.4380   -0.2570   11.3350 C.3    24  ASP24       0.1424
      6  CG        30.7990   -1.2330   12.4350 C.2    24  ASP24       0.3668
      7  OD1       30.8160   -2.4550   12.1770 O.co2  24  ASP24      -0.2456
      8  OD2       31.0530   -0.7710   13.5670 O.co2  24  ASP24      -0.2456
      9  N         29.6640   -2.7110   10.0020 N.am   25  GLY25      -0.1942
     10  CA        28.6770   -3.6520    9.4990 C.3    25  GLY25       0.2014
     11  C         29.1320   -4.4600    8.3000 C.2    25  GLY25       0.2639
     12  O         30.3300   -4.5980    8.0550 O.2    25  GLY25      -0.2714
     13  N         28.1660   -4.9880    7.5510 N.am   26  GLY26      -0.1954
     14  CA        28.4460   -5.8560    6.4210 C.3    26  GLY26       0.1869
     15  C         29.2690   -5.2010    5.3280 C.2    26  GLY26       0.2309
     16  O         30.2010   -5.8080    4.7990 O.2    26  GLY26      -0.2863
     17  N         21.6040   -2.8320    4.5200 N.3    42  ASP42      -0.1239
     18  CA        21.8350   -1.6270    5.3090 C.3    42  ASP42       0.1674
     19  C         23.2920   -1.1660    5.3220 C.2    42  ASP42       0.2266
     20  O         24.1860   -1.8680    4.8400 O.2    42  ASP42      -0.2867
     21  CB        21.3660   -1.8700    6.7450 C.3    42  ASP42       0.1410
     22  CG        21.7990   -3.2240    7.2740 C.2    42  ASP42       0.3668
     23  OD1       23.0020   -3.5430    7.1880 O.co2  42  ASP42      -0.2456
     24  OD2       20.9320   -3.9780    7.7670 O.co2  42  ASP42      -0.2456
     25  N         26.1460    0.5680    8.2020 N.3    44  ASP44      -0.1239
     26  CA        26.4240    0.9370    9.5850 C.3    44  ASP44       0.1674
     27  C         27.5550    1.9580    9.6210 C.2    44  ASP44       0.2266
     28  O         28.6270    1.7230    9.0600 O.2    44  ASP44      -0.2867
     29  CB        26.8050   -0.2950   10.4140 C.3    44  ASP44       0.1410
     30  CG        25.6100   -1.1520   10.7700 C.2    44  ASP44       0.3668
     31  OD1       25.3020   -2.0910   10.0090 O.co2  44  ASP44      -0.2456
     32  OD2       24.9850   -0.8870   11.8180 O.co2  44  ASP44      -0.2456
     33  N         29.7830    4.4580   12.2950 N.3    46  ASP46      -0.1239
     34  CA        30.1810    5.0060   13.5830 C.3    46  ASP46       0.1674
     35  C         30.7110    6.4080   13.3320 C.2    46  ASP46       0.2266
     36  O         31.5860    6.5880   12.4840 O.2    46  ASP46      -0.2867
     37  CB        31.2920    4.1540   14.1960 C.3    46  ASP46       0.1410
     38  CG        31.0150    2.6720   14.0910 C.2    46  ASP46       0.3668
     39  OD1       29.8350    2.2810   14.1840 O.co2  46  ASP46      -0.2456
     40  OD2       31.9800    1.8960   13.9260 O.co2  46  ASP46      -0.2456
     41  N         22.0360    2.4710    9.8700 N.3    84  ASP84      -0.1239
     42  CA        22.2250    2.5610   11.3120 C.3    84  ASP84       0.1674
     43  C         23.4210    3.4550   11.6050 C.2    84  ASP84       0.2266
     44  O         24.5240    3.1890   11.1310 O.2    84  ASP84      -0.2867
     45  CB        22.4620    1.1730   11.9160 C.3    84  ASP84       0.1410
     46  CG        21.2010    0.3350   11.9780 C.2    84  ASP84       0.3668
     47  OD1       20.7690   -0.1770   10.9240 O.co2  84  ASP84      -0.2456
     48  OD2       20.6540    0.1690   13.0880 O.co2  84  ASP84      -0.2456
     49  N         25.8550    5.2250   14.6460 N.3    86  HIS86      -0.1241
     50  CA        26.2560    4.9990   16.0250 C.3    86  HIS86       0.1621
     51  C         27.1890    6.1070   16.4850 C.2    86  HIS86       0.2264
     52  O         28.3470    6.1610   16.0670 O.2    86  HIS86      -0.2867
     53  CB        26.9530    3.6430   16.1660 C.3    86  HIS86       0.0745
     54  CG        26.1890    2.5000   15.5710 C.ar   86  HIS86       0.0817
     55  ND1       25.5140    1.5730   16.3350 N.ar   86  HIS86      -0.2268
     56  CD2       26.0010    2.1310   14.2810 C.ar   86  HIS86       0.1154
     57  CE1       24.9440    0.6830   15.5420 C.ar   86  HIS86       0.1986
     58  NE2       25.2240    1.0000   14.2910 N.ar   86  HIS86      -0.2212
     59  N         29.8750    7.8880   18.4250 N.3    88  ILE88      -0.1245
     60  CA        31.0000    7.4780   19.2440 C.3    88  ILE88       0.1561
     61  C         31.7470    8.7150   19.7220 C.2    88  ILE88       0.2260
     62  O         31.7550    9.7520   19.0470 O.2    88  ILE88      -0.2867
     63  CB        31.9520    6.5330   18.4810 C.3    88  ILE88       0.0252
     64  CG1       32.5560    7.2360   17.2660 C.3    88  ILE88       0.0019
     65  CG2       31.2290    5.2570   18.0500 C.3    88  ILE88       0.0019
     66  CD1       33.4310    6.3350   16.4330 C.3    88  ILE88       0.0001
     67  N         31.3190    4.6300   23.4980 N.3    98  GLN98      -0.1245
     68  CA        29.9620    4.6350   22.9720 C.3    98  GLN98       0.1566
     69  C         29.0000    4.3990   24.1290 C.2    98  GLN98       0.2260
     70  O         29.2260    3.5260   24.9650 O.2    98  GLN98      -0.2867
     71  CB        29.7930    3.5480   21.9090 C.3    98  GLN98       0.0367
     72  CG        28.3820    3.4370   21.3540 C.3    98  GLN98       0.0905
     73  CD        28.2440    2.3160   20.3470 C.2    98  GLN98       0.2608
     74  OE1       29.1500    1.4990   20.1830 O.2    98  GLN98      -0.2717
     75  NE2       27.1070    2.2690   19.6680 N.am   98  GLN98      -0.0878
     76  N         36.2690    1.2150   23.6610 N.3   108  PHE108     -0.1241
     77  CA        36.9240    0.6190   22.5010 C.3   108  PHE108      0.1605
     78  C         38.3510    1.1360   22.3880 C.2   108  PHE108      0.2264
     79  O         38.6770    2.2090   22.9020 O.2   108  PHE108     -0.2867
     80  CB        36.1700    0.9480   21.2080 C.3   108  PHE108      0.0534
     81  CG        34.7050    0.6220   21.2530 C.ar  108  PHE108     -0.0203
     82  CD1       34.2440   -0.4910   21.9420 C.ar  108  PHE108     -0.0042
     83  CD2       33.7860    1.4350   20.6040 C.ar  108  PHE108     -0.0042
     84  CE1       32.8890   -0.7880   21.9820 C.ar  108  PHE108     -0.0003
     85  CE2       32.4340    1.1470   20.6390 C.ar  108  PHE108     -0.0003
     86  CZ        31.9830    0.0340   21.3310 C.ar  108  PHE108     -0.0000
     87  N         39.7920    1.3760   14.8320 N.3   113  PHE113     -0.1241
     88  CA        39.1910    2.2570   13.8420 C.3   113  PHE113      0.1605
     89  C         40.2550    2.7510   12.8750 C.2   113  PHE113      0.2264
     90  O         41.0400    3.6420   13.1960 O.2   113  PHE113     -0.2867
     91  CB        38.4800    3.4220   14.5360 C.3   113  PHE113      0.0534
     92  CG        37.3290    2.9930   15.4030 C.ar  113  PHE113     -0.0203
     93  CD1       37.5540    2.4760   16.6710 C.ar  113  PHE113     -0.0042
     94  CD2       36.0230    3.1090   14.9510 C.ar  113  PHE113     -0.0042
     95  CE1       36.4980    2.0750   17.4730 C.ar  113  PHE113     -0.0003
     96  CE2       34.9590    2.7120   15.7460 C.ar  113  PHE113     -0.0003
     97  CZ        35.1970    2.1920   17.0090 C.ar  113  PHE113     -0.0000
     98  N         36.1320    0.1110   10.4380 N.3   126  ILE126     -0.1245
     99  CA        36.7030   -0.6730   11.5300 C.3   126  ILE126      0.1561
    100  C         37.5610   -1.8010   10.9580 C.2   126  ILE126      0.2260
    101  O         37.2840   -2.3160    9.8730 O.2   126  ILE126     -0.2867
    102  CB        35.6290   -1.2300   12.4950 C.3   126  ILE126      0.0252
    103  CG1       34.8570   -2.3950   11.8700 C.3   126  ILE126      0.0019
    104  CG2       34.6790   -0.1220   12.9350 C.3   126  ILE126      0.0019
    105  CD1       33.9710   -3.1280   12.8630 C.3   126  ILE126      0.0001
    106  N         33.4170   -7.5600   17.4210 N.3   134  PHE134     -0.1227
    107  CA        32.0280   -7.1300   17.5360 C.3   134  PHE134      0.1736
    108  C         31.0260   -8.2250   17.1640 C.2   134  PHE134      0.2595
    109  O         29.8610   -8.1720   17.5670 O.2   134  PHE134     -0.2718
    110  CB        31.7920   -5.8580   16.7170 C.3   134  PHE134      0.0547
    111  CG        32.4020   -4.6280   17.3310 C.ar  134  PHE134     -0.0202
    112  CD1       32.0450   -4.2370   18.6130 C.ar  134  PHE134     -0.0042
    113  CD2       33.3210   -3.8610   16.6310 C.ar  134  PHE134     -0.0042
    114  CE1       32.5990   -3.1100   19.1910 C.ar  134  PHE134     -0.0003
    115  CE2       33.8810   -2.7300   17.2030 C.ar  134  PHE134     -0.0003
    116  CZ        33.5180   -2.3540   18.4840 C.ar  134  PHE134     -0.0000
    117  N         31.4760   -9.2110   16.3940 N.am  135  HIS135     -0.1975
    118  CA        30.6650  -10.4000   16.1450 C.3   135  HIS135      0.1656
    119  C         30.7310  -11.3130   17.3660 C.2   135  HIS135      0.2291
    120  O         31.7090  -11.2790   18.1150 O.2   135  HIS135     -0.2864
    121  CB        31.1520  -11.1500   14.9000 C.3   135  HIS135      0.0771
    122  CG        30.6280  -10.5960   13.6100 C.ar  135  HIS135      0.0820
    123  ND1       31.3550   -9.7330   12.8190 N.ar  135  HIS135     -0.2267
    124  CD2       29.4510  -10.7930   12.9680 C.ar  135  HIS135      0.1154
    125  CE1       30.6470   -9.4150   11.7500 C.ar  135  HIS135      0.1986
    126  NE2       29.4870  -10.0440   11.8160 N.ar  135  HIS135     -0.2212
@<TRIPOS>BOND
     1    17    18    1
     2    16    15    2
     3    20    19    2
     4    18    19    1
     5    18    21    1
     6    15    14    1
     7    14    13    1
     8    21    22    1
     9    23    22   ar
    10    22    24   ar
    11    13    11   am
    12    12    11    2
    13     4     3    2
    14    25    26    1
    15    11    10    1
    16    28    27    2
    17     1     2    1
    18     3     2    1
    19     3     9   am
    20    10     9    1
    21    26    27    1
    22    26    29    1
    23    41    42    1
    24   101   100    2
    25     2     5    1
    26    31    30   ar
    27    29    30    1
    28    98    99    1
    29    30    32   ar
    30    47    46   ar
    31   100    99    1
    32    44    43    2
    33    42    43    1
    34    42    45    1
    35     5     6    1
    36    99   102    1
    37   125   126   ar
    38   125   123   ar
    39   126   124   ar
    40   103   102    1
    41   103   105    1
    42    45    46    1
    43    46    48   ar
    44     7     6   ar
    45    33    34    1
    46     6     8   ar
    47    36    35    2
    48   102   104    1
    49   123   122   ar
    50    89    90    2
    51    89    88    1
    52   124   122   ar
    53    35    34    1
    54    34    37    1
    55   122   121    1
    56    88    91    1
    57    88    87    1
    58    40    38   ar
    59    38    39   ar
    60    38    37    1
    61    56    58   ar
    62    56    54   ar
    63    58    57   ar
    64    91    92    1
    65    49    50    1
    66   121   118    1
    67    94    92   ar
    68    94    96   ar
    69    92    93   ar
    70    57    55   ar
    71    54    53    1
    72    54    55   ar
    73    96    97   ar
    74    50    53    1
    75    50    51    1
    76    52    51    2
    77   118   117    1
    78   118   119    1
    79   117   108   am
    80    66    64    1
    81   113   115   ar
    82   113   111   ar
    83    93    95   ar
    84   110   111    1
    85   110   107    1
    86    97    95   ar
    87   108   107    1
    88   108   109    2
    89   115   116   ar
    90    64    63    1
    91   111   112   ar
    92   119   120    2
    93   106   107    1
    94    65    63    1
    95    59    60    1
    96    63    60    1
    97   116   114   ar
    98   112   114   ar
    99    62    61    2
   100    60    61    1
   101    75    73   am
   102    74    73    2
   103    73    72    1
   104    83    85   ar
   105    83    81   ar
   106    85    86   ar
   107    80    81    1
   108    80    77    1
   109    81    82   ar
   110    86    84   ar
   111    72    71    1
   112    71    68    1
   113    82    84   ar
   114    78    77    1
   115    78    79    2
   116    77    76    1
   117    68    67    1
   118    68    69    1
   119    69    70    2
