@<TRIPOS>MOLECULE
tmp/4fo4A01.pdb
 110 101 0 0 0
SMALL
GASTEIGER

@<TRIPOS>ATOM
      1  N          4.2780   25.1800   17.2340 N.3   124  ASP124     -0.1225
      2  CA         3.9480   26.5860   17.1170 C.3   124  ASP124      0.1805
      3  C          2.5010   26.7620   16.7420 C.2   124  ASP124      0.2598
      4  O          1.9600   26.0440   15.9280 O.2   124  ASP124     -0.2718
      5  CB         4.8210   27.2850   16.0850 C.3   124  ASP124      0.1424
      6  CG         4.7320   26.6350   14.7420 C.2   124  ASP124      0.3668
      7  OD1        4.9380   27.3740   13.7320 O.co2 124  ASP124     -0.2456
      8  OD2        4.4650   25.3900   14.7170 O.co2 124  ASP124     -0.2456
      9  N          1.9020   27.7410   17.3750 N.am  125  SER125     -0.1938
     10  CA         0.5120   27.9720   17.2260 C.3   125  SER125      0.2055
     11  C          0.3310   29.4560   17.2360 C.2   125  SER125      0.2643
     12  O          1.1670   30.1730   17.8460 O.2   125  SER125     -0.2714
     13  CB        -0.1730   27.3690   18.4280 C.3   125  SER125      0.2130
     14  OG        -1.5340   27.7080   18.4490 O.3   125  SER125     -0.2179
     15  N         -0.7890   29.9050   16.6500 N.am  126  SER126     -0.1949
     16  CA        -1.2020   31.2770   16.7770 C.3   126  SER126      0.1924
     17  C         -1.7120   31.5360   18.1420 C.2   126  SER126      0.2314
     18  O         -1.9690   32.6860   18.4440 O.2   126  SER126     -0.2863
     19  CB        -2.3050   31.6830   15.8040 C.3   126  SER126      0.2116
     20  OG        -3.4460   30.8230   15.9310 O.3   126  SER126     -0.2180
     21  N          2.7800   30.7290   20.2160 N.3   153  ASN153     -0.1240
     22  CA         3.2650   32.0550   20.6480 C.3   153  ASN153      0.1653
     23  C          2.4160   32.5420   21.7780 C.2   153  ASN153      0.2266
     24  O          1.2150   32.2990   21.7610 O.2   153  ASN153     -0.2867
     25  CB         3.2290   33.0230   19.4770 C.3   153  ASN153      0.1155
     26  CG         4.4750   32.8410   18.5340 C.2   153  ASN153      0.2627
     27  OD1        5.0860   31.7830   18.5390 O.2   153  ASN153     -0.2716
     28  ND2        4.8250   33.8850   17.7340 N.am  153  ASN153     -0.0877
     29  N          8.3750   31.3340   22.7130 N.3   172  LYS172     -0.1245
     30  CA         8.3720   32.2270   21.5960 C.3   172  LYS172      0.1561
     31  C          7.2430   33.2300   21.7540 C.2   172  LYS172      0.2260
     32  O          6.1240   32.8830   22.0630 O.2   172  LYS172     -0.2867
     33  CB         8.3120   31.4710   20.2770 C.3   172  LYS172      0.0271
     34  CG         8.5030   32.3450   19.0640 C.3   172  LYS172      0.0035
     35  CD         9.1410   31.6380   17.8980 C.3   172  LYS172      0.0206
     36  CE         8.2200   30.5710   17.2730 C.3   172  LYS172      0.1093
     37  NZ         6.9360   31.0980   16.7010 N.3   172  LYS172     -0.1314
     38  N          4.9410   36.5620   20.5260 N.3   174  GLY174     -0.1210
     39  CA         4.3920   37.4620   19.5550 C.3   174  GLY174      0.1956
     40  C          3.0060   37.0650   19.0990 C.2   174  GLY174      0.2612
     41  O          2.8050   36.0020   18.4500 O.2   174  GLY174     -0.2717
     42  N          2.0350   37.9170   19.3900 N.am  175  ILE175     -0.1965
     43  CA         0.6830   37.6730   18.8870 C.3   175  ILE175      0.1727
     44  C          0.3340   38.8610   18.0320 C.2   175  ILE175      0.2617
     45  O          0.0270   39.8880   18.5430 O.2   175  ILE175     -0.2715
     46  CB        -0.3640   37.4460   20.0250 C.3   175  ILE175      0.0290
     47  CG1       -0.0750   36.1490   20.7950 C.3   175  ILE175      0.0022
     48  CG2       -1.7940   37.4760   19.4670 C.3   175  ILE175      0.0023
     49  CD1       -0.2970   34.8960   19.9840 C.3   175  ILE175      0.0001
     50  N          0.3290   38.6740   16.7110 N.am  176  GLY176     -0.1941
     51  CA        -0.0150   39.7310   15.7970 C.3   176  GLY176      0.1998
     52  C          0.9530   40.8090   15.2700 C.2   176  GLY176      0.2480
     53  O          0.4910   41.6610   14.5540 O.2   176  GLY176     -0.2729
     54  N          2.2590   40.8300   15.6450 N.am  177  PRO177     -0.2726
     55  CA         3.1190   41.8960   15.1370 C.3   177  PRO177      0.1402
     56  C          3.6610   41.6540   13.7560 C.2   177  PRO177      0.2269
     57  O          4.1820   42.5790   13.1560 O.2   177  PRO177     -0.2865
     58  CB         4.2550   41.9260   16.1240 C.3   177  PRO177      0.0296
     59  CG         4.4290   40.4400   16.3820 C.3   177  PRO177      0.0237
     60  CD         3.0240   39.9400   16.5300 C.3   177  PRO177      0.0939
     61  N          0.6330   39.7710    8.9340 N.3   181  CYS181     -0.1235
     62  CA        -0.4380   39.4000    9.8310 C.3   181  CYS181      0.1677
     63  C         -1.6150   40.3670    9.9280 C.2   181  CYS181      0.2270
     64  O         -1.4470   41.5720   10.0490 O.2   181  CYS181     -0.2867
     65  CB         0.1880   39.1330   11.2030 C.3   181  CYS181      0.0956
     66  SG        -1.0320   38.8230   12.4870 S.3   181  CYS181     -0.0801
     67  N         -4.1840   39.2460   12.1660 N.3   183  THR183     -0.1218
     68  CA        -4.8400   38.7790   13.4030 C.3   183  THR183      0.1862
     69  C         -5.3990   39.8860   14.2500 C.2   183  THR183      0.2287
     70  O         -6.5330   39.8200   14.6960 O.2   183  THR183     -0.2866
     71  CB        -3.8850   37.9400   14.3090 C.3   183  THR183      0.1770
     72  OG1       -3.4410   36.8300   13.5610 O.3   183  THR183     -0.2211
     73  CG2       -4.6190   37.4140   15.6620 C.3   183  THR183      0.0375
     74  N          9.3820   37.0540   18.1410 N.3   214  ASP214     -0.1239
     75  CA         8.9280   36.6250   16.8200 C.3   214  ASP214      0.1674
     76  C          7.9260   37.5830   16.1900 C.2   214  ASP214      0.2266
     77  O          6.7990   37.6510   16.6190 O.2   214  ASP214     -0.2867
     78  CB         8.2500   35.2610   16.9880 C.3   214  ASP214      0.1410
     79  CG         7.7170   34.6710   15.6990 C.2   214  ASP214      0.3668
     80  OD1        8.1680   35.1370   14.6390 O.co2 214  ASP214     -0.2456
     81  OD2        6.8250   33.7300   15.7450 O.co2 214  ASP214     -0.2456
     82  N          1.3860   32.1930    6.9970 N.3   264  MET264     -0.1230
     83  CA         1.0230   30.7850    7.0130 C.3   264  MET264      0.1702
     84  C         -0.4550   30.6330    7.3600 C.2   264  MET264      0.2592
     85  O         -1.0150   29.5400    7.2590 O.2   264  MET264     -0.2718
     86  CB         1.8890   29.9950    8.0120 C.3   264  MET264      0.0401
     87  CG         3.3280   29.7750    7.5480 C.3   264  MET264      0.0596
     88  SD         3.4470   28.7520    6.0880 S.3   264  MET264     -0.1393
     89  CE         3.4390   27.1140    6.8830 C.3   264  MET264      0.0692
     90  N         -1.0670   31.7190    7.8300 N.am  265  GLY265     -0.1957
     91  CA        -2.5080   31.7650    8.0190 C.3   265  GLY265      0.1869
     92  C         -3.2360   32.3510    6.8250 C.2   265  GLY265      0.2309
     93  O         -4.4070   32.5990    6.9270 O.2   265  GLY265     -0.2863
     94  N         -2.8450   27.9750    3.5110 N.3   270  MET270     -0.1196
     95  CA        -3.7440   27.0120    4.1670 C.3   270  MET270      0.1786
     96  C         -4.3110   26.0140    3.1630 C.2   270  MET270      0.2306
     97  O         -4.7520   24.9470    3.5580 O.2   270  MET270     -0.2863
     98  CB        -4.8780   27.7110    4.9530 C.2   270  MET270      0.0070
     99  CG        -4.4370   28.5190    6.1730 C.2   270  MET270      0.0282
    100  SD        -5.7970   29.1740    7.2070 S.3   270  MET270     -0.1125
    101  CE        -6.6810   30.4450    6.2900 C.3   270  MET270      0.0742
    102  N         -5.9710   34.7810    8.6610 N.3   276  GLU276     -0.1245
    103  CA        -5.3540   35.7300    9.5690 C.3   276  GLU276      0.1567
    104  C         -3.9890   36.2580    9.0620 C.2   276  GLU276      0.2260
    105  O         -3.1490   36.7610    9.8370 O.2   276  GLU276     -0.2867
    106  CB        -5.3040   35.0770   10.9410 C.3   276  GLU276      0.0388
    107  CG        -6.7420   34.9600   11.4620 C.3   276  GLU276      0.1160
    108  CD        -6.8300   34.5870   12.9290 C.2   276  GLU276      0.3649
    109  OE1       -7.9000   34.0490   13.3210 O.co2 276  GLU276     -0.2457
    110  OE2       -5.8330   34.7840   13.6620 O.co2 276  GLU276     -0.2457
@<TRIPOS>BOND
     1    96    97    2
     2    96    95    1
     3    94    95    1
     4    95    98    1
     5    98    99    2
     6    88    89    1
     7    88    87    1
     8    99   100    1
     9   101   100    1
    10    92    93    2
    11    92    91    1
    12    82    83    1
    13    83    84    1
    14    83    86    1
    15    85    84    2
    16    84    90   am
    17    87    86    1
    18    90    91    1
    19   102   103    1
    20    61    62    1
    21   104   103    1
    22   104   105    2
    23   103   106    1
    24    62    63    1
    25    62    65    1
    26    63    64    2
    27   106   107    1
    28    65    66    1
    29   107   108    1
    30    67    68    1
    31   108   109   ar
    32   108   110   ar
    33    57    56    2
    34    68    69    1
    35    68    71    1
    36    72    71    1
    37     7     6   ar
    38    56    55    1
    39    69    70    2
    40    71    73    1
    41    53    52    2
    42    80    79   ar
    43     8     6   ar
    44     6     5    1
    45    55    54    1
    46    55    58    1
    47    52    54   am
    48    52    51    1
    49    54    60    1
    50    79    81   ar
    51    79    78    1
    52    51    50    1
    53    19    20    1
    54    19    16    1
    55     4     3    2
    56     5     2    1
    57    58    59    1
    58    76    77    2
    59    76    75    1
    60    59    60    1
    61    15    16    1
    62    15    11   am
    63    37    36    1
    64    50    44   am
    65     3     2    1
    66     3     9   am
    67    16    17    1
    68    75    78    1
    69    75    74    1
    70     2     1    1
    71    10    11    1
    72    10     9    1
    73    10    13    1
    74    11    12    2
    75    36    35    1
    76    28    26   am
    77    35    34    1
    78    44    45    2
    79    44    43    1
    80    17    18    2
    81    13    14    1
    82    41    40    2
    83    26    27    2
    84    26    25    1
    85    43    42    1
    86    43    46    1
    87    34    33    1
    88    40    42   am
    89    40    39    1
    90    48    46    1
    91    25    22    1
    92    39    38    1
    93    49    47    1
    94    46    47    1
    95    21    22    1
    96    33    30    1
    97    22    23    1
    98    30    31    1
    99    30    29    1
   100    31    32    2
   101    24    23    2
