@<TRIPOS>MOLECULE
tmp/4fo4A00.pdb
 172 163 0 0 0
SMALL
GASTEIGER

@<TRIPOS>ATOM
      1  N         11.8480   32.2640   10.4010 N.3    49  ALA49      -0.1231
      2  CA        10.4810   31.8490   10.5500 C.3    49  ALA49       0.1694
      3  C         10.1750   30.5330    9.8240 C.2    49  ALA49       0.2593
      4  O         10.6680   30.2440    8.6960 O.2    49  ALA49      -0.2718
      5  CB         9.5650   32.9530   10.0260 C.3    49  ALA49       0.0304
      6  N          9.2930   29.7440   10.4230 N.am   50  SER50      -0.1938
      7  CA         8.9150   28.4530    9.8400 C.3    50  SER50       0.2055
      8  C          7.8240   28.6710    8.8240 C.2    50  SER50       0.2642
      9  O          6.7240   28.1370    8.9480 O.2    50  SER50      -0.2714
     10  CB         8.4840   27.4380   10.9100 C.3    50  SER50       0.2130
     11  OG         7.4990   28.0230   11.7530 O.3    50  SER50      -0.2179
     12  N          8.1680   29.3650    7.7440 N.am   51  MET51      -0.1976
     13  CA         7.1800   29.7210    6.7370 C.3    51  MET51       0.1605
     14  C          7.6270   29.1940    5.4040 C.2    51  MET51       0.2287
     15  O          8.8470   29.1080    5.1020 O.2    51  MET51      -0.2864
     16  CB         6.9830   31.2680    6.6950 C.3    51  MET51       0.0413
     17  CG         6.6500   31.8410    8.0510 C.3    51  MET51       0.0598
     18  SD         6.6600   33.6560    8.1300 S.3    51  MET51      -0.1393
     19  CE         5.2920   34.0190    7.0040 C.3    51  MET51       0.0692
     20  N          2.7800   30.7290   20.2160 N.3   153  ASN153     -0.1240
     21  CA         3.2650   32.0550   20.6480 C.3   153  ASN153      0.1653
     22  C          2.4160   32.5420   21.7780 C.2   153  ASN153      0.2266
     23  O          1.2150   32.2990   21.7610 O.2   153  ASN153     -0.2867
     24  CB         3.2290   33.0230   19.4770 C.3   153  ASN153      0.1155
     25  CG         4.4750   32.8410   18.5340 C.2   153  ASN153      0.2627
     26  OD1        5.0860   31.7830   18.5390 O.2   153  ASN153     -0.2716
     27  ND2        4.8250   33.8850   17.7340 N.am  153  ASN153     -0.0877
     28  N          8.3750   31.3340   22.7130 N.3   172  LYS172     -0.1245
     29  CA         8.3720   32.2270   21.5960 C.3   172  LYS172      0.1561
     30  C          7.2430   33.2300   21.7540 C.2   172  LYS172      0.2260
     31  O          6.1240   32.8830   22.0630 O.2   172  LYS172     -0.2867
     32  CB         8.3120   31.4710   20.2770 C.3   172  LYS172      0.0271
     33  CG         8.5030   32.3450   19.0640 C.3   172  LYS172      0.0035
     34  CD         9.1410   31.6380   17.8980 C.3   172  LYS172      0.0206
     35  CE         8.2200   30.5710   17.2730 C.3   172  LYS172      0.1093
     36  NZ         6.9360   31.0980   16.7010 N.3   172  LYS172     -0.1314
     37  N          4.9410   36.5620   20.5260 N.3   174  GLY174     -0.1225
     38  CA         4.3920   37.4620   19.5550 C.3   174  GLY174      0.1811
     39  C          3.0060   37.0650   19.0990 C.2   174  GLY174      0.2280
     40  O          2.8050   36.0020   18.4500 O.2   174  GLY174     -0.2866
     41  N          0.3290   38.6740   16.7110 N.3   176  GLY176     -0.1210
     42  CA        -0.0150   39.7310   15.7970 C.3   176  GLY176      0.1940
     43  C          0.9530   40.8090   15.2700 C.2   176  GLY176      0.2454
     44  O          0.4910   41.6610   14.5540 O.2   176  GLY176     -0.2732
     45  N          2.2590   40.8300   15.6450 N.am  177  PRO177     -0.2717
     46  CA         3.1190   41.8960   15.1370 C.3   177  PRO177      0.1536
     47  C          3.6610   41.6540   13.7560 C.2   177  PRO177      0.2599
     48  O          4.1820   42.5790   13.1560 O.2   177  PRO177     -0.2715
     49  CB         4.2550   41.9260   16.1240 C.3   177  PRO177      0.0310
     50  CG         4.4290   40.4400   16.3820 C.3   177  PRO177      0.0237
     51  CD         3.0240   39.9400   16.5300 C.3   177  PRO177      0.0939
     52  N          3.4680   40.4590   13.1910 N.am  178  GLY178     -0.1941
     53  CA         4.0740   40.1630   11.8870 C.3   178  GLY178      0.2014
     54  C          3.6700   41.0570   10.7040 C.2   178  GLY178      0.2640
     55  O          2.5060   41.4920   10.5500 O.2   178  GLY178     -0.2714
     56  N          4.6230   41.2880    9.8260 N.am  179  SER179     -0.1935
     57  CA         4.4050   42.0360    8.6000 C.3   179  SER179      0.2055
     58  C          3.1290   41.5910    7.8840 C.2   179  SER179      0.2643
     59  O          2.3000   42.4460    7.5220 O.2   179  SER179     -0.2714
     60  CB         5.6160   41.8890    7.6570 C.3   179  SER179      0.2130
     61  OG         5.8810   40.5280    7.2900 O.3   179  SER179     -0.2179
     62  N          2.9430   40.2760    7.7660 N.am  180  ILE180     -0.1963
     63  CA         1.9120   39.7050    6.9000 C.3   180  ILE180      0.1727
     64  C          0.6550   39.3340    7.7050 C.2   180  ILE180      0.2616
     65  O         -0.2990   38.7350    7.1950 O.2   180  ILE180     -0.2715
     66  CB         2.3800   38.4110    6.1510 C.3   180  ILE180      0.0290
     67  CG1        3.2810   37.5320    7.0220 C.3   180  ILE180      0.0022
     68  CG2        3.0820   38.7700    4.8410 C.3   180  ILE180      0.0023
     69  CD1        2.7250   37.0960    8.3740 C.3   180  ILE180      0.0001
     70  N          0.6330   39.7710    8.9340 N.am  181  CYS181     -0.1968
     71  CA        -0.4380   39.4000    9.8310 C.3   181  CYS181      0.1712
     72  C         -1.6150   40.3670    9.9280 C.2   181  CYS181      0.2296
     73  O         -1.4470   41.5720   10.0490 O.2   181  CYS181     -0.2864
     74  CB         0.1880   39.1330   11.2030 C.3   181  CYS181      0.0983
     75  SG        -1.0320   38.8230   12.4870 S.3   181  CYS181     -0.0798
     76  N         -4.1840   39.2460   12.1660 N.3   183  THR183     -0.1218
     77  CA        -4.8400   38.7790   13.4030 C.3   183  THR183      0.1862
     78  C         -5.3990   39.8860   14.2500 C.2   183  THR183      0.2287
     79  O         -6.5330   39.8200   14.6960 O.2   183  THR183     -0.2866
     80  CB        -3.8850   37.9400   14.3090 C.3   183  THR183      0.1770
     81  OG1       -3.4410   36.8300   13.5610 O.3   183  THR183     -0.2211
     82  CG2       -4.6190   37.4140   15.6620 C.3   183  THR183      0.0375
     83  N          9.3820   37.0540   18.1410 N.3   214  ASP214     -0.1225
     84  CA         8.9280   36.6250   16.8200 C.3   214  ASP214      0.1805
     85  C          7.9260   37.5830   16.1900 C.2   214  ASP214      0.2598
     86  O          6.7990   37.6510   16.6190 O.2   214  ASP214     -0.2718
     87  CB         8.2500   35.2610   16.9880 C.3   214  ASP214      0.1424
     88  CG         7.7170   34.6710   15.6990 C.2   214  ASP214      0.3668
     89  OD1        8.1680   35.1370   14.6390 O.co2 214  ASP214     -0.2456
     90  OD2        6.8250   33.7300   15.7450 O.co2 214  ASP214     -0.2456
     91  N          8.3370   38.2670   15.1240 N.am  215  GLY215     -0.1942
     92  CA         7.4920   39.0760   14.3200 C.3   215  GLY215      0.2014
     93  C          7.6760   40.5800   14.5060 C.2   215  GLY215      0.2639
     94  O          7.9280   41.0620   15.5810 O.2   215  GLY215     -0.2714
     95  N          7.5330   41.3450   13.4360 N.am  216  GLY216     -0.1939
     96  CA         7.5380   42.7930   13.6000 C.3   216  GLY216      0.2014
     97  C          8.9010   43.4750   13.4780 C.2   216  GLY216      0.2638
     98  O          8.9800   44.7050   13.5940 O.2   216  GLY216     -0.2714
     99  N          9.9480   42.6810   13.2760 N.am  217  ILE217     -0.1977
    100  CA        11.2860   43.1790   13.1260 C.3   217  ILE217      0.1596
    101  C         11.4030   43.6980   11.6960 C.2   217  ILE217      0.2287
    102  O         11.1990   42.9350   10.7540 O.2   217  ILE217     -0.2864
    103  CB        12.3560   42.0860   13.2810 C.3   217  ILE217      0.0276
    104  CG1       12.3730   41.5050   14.6920 C.3   217  ILE217      0.0022
    105  CG2       13.7390   42.6870   12.9920 C.3   217  ILE217      0.0022
    106  CD1       12.5940   42.4890   15.7610 C.3   217  ILE217      0.0001
    107  N         13.1170   36.0450   15.9210 N.3   235  MET235     -0.1182
    108  CA        12.7170   35.3090   14.7600 C.3   235  MET235      0.1917
    109  C         12.1880   36.2550   13.6950 C.2   235  MET235      0.2634
    110  O         11.3930   37.1820   13.9830 O.2   235  MET235     -0.2714
    111  CB        11.6910   34.2160   15.1230 C.2   235  MET235      0.0083
    112  CG        11.0250   33.5230   13.9270 C.2   235  MET235      0.0282
    113  SD         9.8870   32.1760   14.3110 S.3   235  MET235     -0.1125
    114  CE        11.0750   30.8300   14.5900 C.3   235  MET235      0.0742
    115  N         12.6060   36.0420   12.4410 N.am  236  VAL236     -0.1963
    116  CA        12.2250   36.9670   11.3930 C.3   236  VAL236      0.1727
    117  C         11.6980   36.2140   10.2010 C.2   236  VAL236      0.2617
    118  O         12.2140   35.1430    9.8540 O.2   236  VAL236     -0.2715
    119  CB        13.4000   37.9020   10.9820 C.3   236  VAL236      0.0290
    120  CG1       13.7980   38.8020   12.1450 C.3   236  VAL236      0.0023
    121  CG2       14.6390   37.1340   10.5290 C.3   236  VAL236      0.0023
    122  N         10.6850   36.7970    9.5640 N.am  237  GLY237     -0.1940
    123  CA        10.1960   36.3240    8.3190 C.3   237  GLY237      0.2014
    124  C         10.5400   37.2870    7.1980 C.2   237  GLY237      0.2639
    125  O         11.3600   37.0050    6.3420 O.2   237  GLY237     -0.2714
    126  N          9.9290   38.4480    7.2380 N.am  238  SER238     -0.1949
    127  CA        10.0520   39.3520    6.1360 C.3   238  SER238      0.1924
    128  C         11.5110   39.7990    5.9130 C.2   238  SER238      0.2314
    129  O         11.8800   39.9620    4.7900 O.2   238  SER238     -0.2863
    130  CB         9.1030   40.5350    6.2840 C.3   238  SER238      0.2116
    131  OG         9.7410   41.5900    6.9120 O.3   238  SER238     -0.2180
    132  N          5.9370   36.3560   -0.5580 N.3   261  TYR261     -0.1241
    133  CA         6.0150   36.2400    0.9040 C.3   261  TYR261      0.1605
    134  C          4.5650   36.1970    1.3910 C.2   261  TYR261      0.2264
    135  O          3.7730   37.1010    1.0660 O.2   261  TYR261     -0.2867
    136  CB         6.8130   37.3690    1.5390 C.3   261  TYR261      0.0534
    137  CG         6.8520   37.3090    3.0610 C.ar  261  TYR261     -0.0201
    138  CD1        7.2350   36.1410    3.7190 C.ar  261  TYR261     -0.0009
    139  CD2        6.5550   38.4010    3.8340 C.ar  261  TYR261     -0.0009
    140  CE1        7.2840   36.0660    5.1070 C.ar  261  TYR261      0.0417
    141  CE2        6.5990   38.3260    5.2540 C.ar  261  TYR261      0.0417
    142  CZ         6.9490   37.1480    5.8790 C.ar  261  TYR261      0.1957
    143  OH         6.9950   37.0410    7.2640 O.3   261  TYR261     -0.2866
    144  N          1.6650   34.9880    4.7400 N.3   263  GLY263     -0.1210
    145  CA         1.4220   34.4410    6.0850 C.3   263  GLY263      0.1956
    146  C          1.0420   32.9630    5.9810 C.2   263  GLY263      0.2612
    147  O          0.4790   32.5080    4.9590 O.2   263  GLY263     -0.2717
    148  N          1.3860   32.1930    6.9970 N.am  264  MET264     -0.1965
    149  CA         1.0230   30.7850    7.0130 C.3   264  MET264      0.1736
    150  C         -0.4550   30.6330    7.3600 C.2   264  MET264      0.2617
    151  O         -1.0150   29.5400    7.2590 O.2   264  MET264     -0.2715
    152  CB         1.8890   29.9950    8.0120 C.3   264  MET264      0.0427
    153  CG         3.3280   29.7750    7.5480 C.3   264  MET264      0.0599
    154  SD         3.4470   28.7520    6.0880 S.3   264  MET264     -0.1393
    155  CE         3.4390   27.1140    6.8830 C.3   264  MET264      0.0692
    156  N         -1.0670   31.7190    7.8300 N.am  265  GLY265     -0.1955
    157  CA        -2.5080   31.7650    8.0190 C.3   265  GLY265      0.1869
    158  C         -3.2360   32.3510    6.8250 C.2   265  GLY265      0.2309
    159  O         -4.4070   32.5990    6.9270 O.2   265  GLY265     -0.2863
    160  N         -5.9710   34.7810    8.6610 N.3   276  GLU276     -0.1231
    161  CA        -5.3540   35.7300    9.5690 C.3   276  GLU276      0.1699
    162  C         -3.9890   36.2580    9.0620 C.2   276  GLU276      0.2592
    163  O         -3.1490   36.7610    9.8370 O.2   276  GLU276     -0.2718
    164  CB        -5.3040   35.0770   10.9410 C.3   276  GLU276      0.0402
    165  CG        -6.7420   34.9600   11.4620 C.3   276  GLU276      0.1161
    166  CD        -6.8300   34.5870   12.9290 C.2   276  GLU276      0.3649
    167  OE1       -7.9000   34.0490   13.3210 O.co2 276  GLU276     -0.2457
    168  OE2       -5.8330   34.7840   13.6620 O.co2 276  GLU276     -0.2457
    169  N         -3.8220   36.1690    7.7390 N.am  277  GLY277     -0.1957
    170  CA        -2.6540   36.6830    7.1160 C.3   277  GLY277      0.1869
    171  C         -2.9790   36.9410    5.6630 C.2   277  GLY277      0.2309
    172  O         -4.0870   36.6020    5.2330 O.2   277  GLY277     -0.2863
@<TRIPOS>BOND
     1   132   133    1
     2   133   134    1
     3   133   136    1
     4   135   134    2
     5   136   137    1
     6   137   138   ar
     7   137   139   ar
     8   138   140   ar
     9   139   141   ar
    10   144   145    1
    11   129   128    2
    12    68    66    1
    13   147   146    2
    14    15    14    2
    15   140   142   ar
    16   172   171    2
    17   141   142   ar
    18    14    13    1
    19   171   170    1
    20   142   143    1
    21   128   127    1
    22   146   145    1
    23   146   148   am
    24   154   155    1
    25   154   153    1
    26   127   130    1
    27   127   126    1
    28    66    63    1
    29    66    67    1
    30   130   131    1
    31   125   124    2
    32    16    13    1
    33    16    17    1
    34    13    12    1
    35   158   159    2
    36   158   157    1
    37    63    64    1
    38    63    62    1
    39   148   149    1
    40    19    18    1
    41   149   150    1
    42   149   152    1
    43    67    69    1
    44   170   169    1
    45    65    64    2
    46   124   126   am
    47   124   123    1
    48   151   150    2
    49    61    60    1
    50   150   156   am
    51    59    58    2
    52   153   152    1
    53    60    57    1
    54    64    70   am
    55   169   162   am
    56    12     8   am
    57    62    58   am
    58   156   157    1
    59    58    57    1
    60    17    18    1
    61   123   122    1
    62    57    56    1
    63   160   161    1
    64     4     3    2
    65     8     9    2
    66     8     7    1
    67    70    71    1
    68   162   161    1
    69   162   163    2
    70   122   117   am
    71   161   164    1
    72     3     6   am
    73     3     2    1
    74    56    54   am
    75    71    72    1
    76    71    74    1
    77     7     6    1
    78     7    10    1
    79   118   117    2
    80    72    73    2
    81     5     2    1
    82   117   116    1
    83     1     2    1
    84   121   119    1
    85    55    54    2
    86    54    53    1
    87   102   101    2
    88    10    11    1
    89   164   165    1
    90   119   116    1
    91   119   120    1
    92    74    75    1
    93   116   115    1
    94   165   166    1
    95   101   100    1
    96    53    52    1
    97    76    77    1
    98   115   109   am
    99   166   167   ar
   100   166   168   ar
   101   105   103    1
   102   100    99    1
   103   100   103    1
   104    48    47    2
   105    52    47   am
   106    99    97   am
   107   103   104    1
   108    77    78    1
   109    77    80    1
   110    95    96    1
   111    95    93   am
   112    97    98    2
   113    97    96    1
   114    81    80    1
   115   109   110    2
   116   109   108    1
   117    47    46    1
   118   112   113    1
   119   112   111    2
   120    78    79    2
   121    80    82    1
   122   113   114    1
   123    92    93    1
   124    92    91    1
   125    93    94    2
   126    44    43    2
   127    89    88   ar
   128   104   106    1
   129   108   111    1
   130   108   107    1
   131    91    85   am
   132    46    45    1
   133    46    49    1
   134    43    45   am
   135    43    42    1
   136    45    51    1
   137    88    90   ar
   138    88    87    1
   139    42    41    1
   140    49    50    1
   141    85    86    2
   142    85    84    1
   143    50    51    1
   144    36    35    1
   145    84    87    1
   146    84    83    1
   147    35    34    1
   148    27    25   am
   149    34    33    1
   150    40    39    2
   151    25    26    2
   152    25    24    1
   153    33    32    1
   154    39    38    1
   155    24    21    1
   156    38    37    1
   157    20    21    1
   158    32    29    1
   159    21    22    1
   160    29    30    1
   161    29    28    1
   162    30    31    2
   163    23    22    2
