@<TRIPOS>MOLECULE
tmp/4fo6A01.pdb
 71 67 0 0 0
SMALL
GASTEIGER

@<TRIPOS>ATOM
      1  N         21.6610   -4.6050  -10.2390 N.3   145  GLU145     -0.1245
      2  CA        20.8060   -5.3180  -11.1920 C.3   145  GLU145      0.1567
      3  C         20.8640   -6.8290  -10.9800 C.2   145  GLU145      0.2260
      4  O         19.8350   -7.5030  -10.9930 O.2   145  GLU145     -0.2867
      5  CB        21.1980   -4.9930  -12.6420 C.3   145  GLU145      0.0388
      6  CG        20.6190   -5.9270  -13.7030 C.3   145  GLU145      0.1160
      7  CD        21.7090   -6.7490  -14.3760 C.2   145  GLU145      0.3649
      8  OE1       22.4230   -7.4720  -13.6660 O.co2 145  GLU145     -0.2457
      9  OE2       21.8580   -6.6040  -15.5890 O.co2 145  GLU145     -0.2457
     10  N         17.9830   -9.5280  -10.2530 N.3   149  GLN149     -0.1245
     11  CA        17.8310  -10.6940  -11.1350 C.3   149  GLN149      0.1566
     12  C         17.8110  -12.0200  -10.3660 C.2   149  GLN149      0.2260
     13  O         16.9460  -12.8650  -10.6010 O.2   149  GLN149     -0.2867
     14  CB        18.9340  -10.7360  -12.1890 C.3   149  GLN149      0.0367
     15  CG        18.5330  -10.1580  -13.5300 C.3   149  GLN149      0.0905
     16  CD        19.6940  -10.0460  -14.4980 C.2   149  GLN149      0.2608
     17  OE1       20.6120  -10.8630  -14.4810 O.2   149  GLN149     -0.2717
     18  NE2       19.6590   -9.0230  -15.3480 N.am  149  GLN149     -0.0878
     19  N         14.7900  -14.6520  -10.2730 N.3   153  GLN153     -0.1245
     20  CA        15.0030  -15.9880  -10.8260 C.3   153  GLN153      0.1566
     21  C         14.5360  -17.0760   -9.8550 C.2   153  GLN153      0.2260
     22  O         14.0050  -18.1050  -10.2680 O.2   153  GLN153     -0.2867
     23  CB        16.4780  -16.1810  -11.1930 C.3   153  GLN153      0.0367
     24  CG        16.8230  -17.5760  -11.6870 C.3   153  GLN153      0.0905
     25  CD        17.1170  -18.4840  -10.5170 C.2   153  GLN153      0.2608
     26  OE1       17.9760  -18.1590   -9.6960 O.2   153  GLN153     -0.2717
     27  NE2       16.4280  -19.6440  -10.4370 N.am  153  GLN153     -0.0878
     28  N          9.0100  -18.4820  -11.7530 N.3   157  SER157     -0.1202
     29  CA         7.9130  -17.9990  -12.5690 C.3   157  SER157      0.2020
     30  C          8.5520  -17.6800  -13.9070 C.2   157  SER157      0.2619
     31  O          9.6980  -18.0590  -14.1490 O.2   157  SER157     -0.2717
     32  CB         7.2750  -16.7560  -11.9500 C.3   157  SER157      0.2103
     33  OG         6.6340  -17.0790  -10.7670 O.3   157  SER157     -0.2182
     34  N          7.8290  -17.0050  -14.7890 N.am  158  GLY158     -0.1942
     35  CA         8.3820  -16.6920  -16.0960 C.3   158  GLY158      0.2014
     36  C          9.1530  -15.3820  -16.1240 C.2   158  GLY158      0.2639
     37  O          9.3220  -14.7880  -17.1880 O.2   158  GLY158     -0.2714
     38  N          9.6160  -14.9310  -14.9580 N.am  159  LEU159     -0.1963
     39  CA        10.1660  -13.5830  -14.8120 C.3   159  LEU159      0.1728
     40  C         11.4190  -13.3050  -15.6320 C.2   159  LEU159      0.2616
     41  O         12.4290  -13.9980  -15.5040 O.2   159  LEU159     -0.2715
     42  CB        10.4620  -13.2950  -13.3420 C.3   159  LEU159      0.0311
     43  CG         9.2860  -12.8430  -12.4840 C.3   159  LEU159      0.0022
     44  CD1        7.9930  -13.5130  -12.9100 C.3   159  LEU159      0.0001
     45  CD2        9.5760  -13.0880  -11.0110 C.3   159  LEU159      0.0001
     46  N         11.3500  -12.2550  -16.4490 N.am  160  LEU160     -0.1963
     47  CA        12.5260  -11.7190  -17.1260 C.3   160  LEU160      0.1728
     48  C         12.9020  -10.4010  -16.4590 C.2   160  LEU160      0.2616
     49  O         12.0330   -9.6090  -16.0930 O.2   160  LEU160     -0.2715
     50  CB        12.2430  -11.4670  -18.6030 C.3   160  LEU160      0.0311
     51  CG        12.1500  -12.6510  -19.5670 C.3   160  LEU160      0.0022
     52  CD1       11.0020  -13.5590  -19.2040 C.3   160  LEU160      0.0001
     53  CD2       11.9780  -12.1320  -20.9810 C.3   160  LEU160      0.0001
     54  N         14.1940  -10.1590  -16.3160 N.am  161  CYS161     -0.1954
     55  CA        14.6710   -8.9460  -15.6610 C.3   161  CYS161      0.1843
     56  C         15.7210   -8.2530  -16.5000 C.2   161  CYS161      0.2625
     57  O         16.7180   -8.8590  -16.8940 O.2   161  CYS161     -0.2714
     58  CB        15.2520   -9.2730  -14.2960 C.3   161  CYS161      0.0997
     59  SG        14.0750  -10.0220  -13.1990 S.3   161  CYS161     -0.0797
     60  N         15.4900   -6.9740  -16.7910 N.am  162  VAL162     -0.1963
     61  CA        16.4080   -6.2090  -17.6380 C.3   162  VAL162      0.1727
     62  C         16.7190   -4.8540  -17.0170 C.2   162  VAL162      0.2616
     63  O         15.8000   -4.1510  -16.6130 O.2   162  VAL162     -0.2715
     64  CB        15.7670   -5.9040  -19.0060 C.3   162  VAL162      0.0290
     65  CG1       16.8020   -5.3020  -19.9430 C.3   162  VAL162      0.0023
     66  CG2       15.1530   -7.1540  -19.5990 C.3   162  VAL162      0.0023
     67  N         17.9940   -4.4830  -16.9640 N.am  163  ALA163     -0.1977
     68  CA        18.3770   -3.1600  -16.4820 C.3   163  ALA163      0.1597
     69  C         18.2230   -2.1250  -17.5920 C.2   163  ALA163      0.2287
     70  O         18.7980   -2.2680  -18.6700 O.2   163  ALA163     -0.2864
     71  CB        19.8030   -3.1750  -15.9610 C.3   163  ALA163      0.0319
@<TRIPOS>BOND
     1    53    51    1
     2    65    64    1
     3    66    64    1
     4    51    52    1
     5    51    50    1
     6    64    61    1
     7    70    69    2
     8    50    47    1
     9    61    62    1
    10    61    60    1
    11    69    68    1
    12    37    36    2
    13    47    48    1
    14    47    46    1
    15    62    67   am
    16    62    63    2
    17    67    68    1
    18    57    56    2
    19    60    56   am
    20    56    55    1
    21    68    71    1
    22    48    54   am
    23    48    49    2
    24    46    40   am
    25    54    55    1
    26    36    35    1
    27    36    38   am
    28    35    34    1
    29    55    58    1
    30    40    41    2
    31    40    39    1
    32     9     7   ar
    33    18    16   am
    34    38    39    1
    35    39    42    1
    36    34    30   am
    37    16    17    2
    38    16    15    1
    39     7     6    1
    40     7     8   ar
    41    58    59    1
    42    31    30    2
    43    30    29    1
    44     6     5    1
    45    15    14    1
    46    42    43    1
    47    44    43    1
    48     5     2    1
    49    29    32    1
    50    29    28    1
    51    43    45    1
    52    14    11    1
    53    32    33    1
    54    24    23    1
    55    24    25    1
    56    23    20    1
    57     2     3    1
    58     2     1    1
    59    11    12    1
    60    11    10    1
    61     4     3    2
    62    20    19    1
    63    20    21    1
    64    13    12    2
    65    25    27   am
    66    25    26    2
    67    22    21    2
