@<TRIPOS>MOLECULE
tmp/4fo8C00.pdb
 140 137 0 0 0
SMALL
GASTEIGER

@<TRIPOS>ATOM
      1  N         44.6440   24.7580  -25.8290 N.3    58  PRO58      -0.2116
      2  CA        45.0990   23.4380  -25.3360 C.3    58  PRO58       0.1372
      3  C         44.0500   22.7700  -24.4690 C.2    58  PRO58       0.2244
      4  O         44.1080   21.5620  -24.2590 O.2    58  PRO58      -0.2868
      5  CB        46.3250   23.7870  -24.4410 C.3    58  PRO58       0.0268
      6  CG        46.9370   25.0450  -25.2010 C.3    58  PRO58       0.0207
      7  CD        45.5860   25.8280  -25.4540 C.3    58  PRO58       0.0892
      8  N         42.2740   19.5370  -25.2860 N.3    61  TYR61      -0.1241
      9  CA        42.6470   19.1720  -26.6150 C.3    61  TYR61       0.1605
     10  C         43.3660   17.8370  -26.5860 C.2    61  TYR61       0.2264
     11  O         44.5000   17.7400  -26.0570 O.2    61  TYR61      -0.2867
     12  CB        43.5730   20.2200  -27.2160 C.3    61  TYR61       0.0534
     13  CG        43.9050   20.0020  -28.6730 C.ar   61  TYR61      -0.0201
     14  CD1       42.9400   20.2390  -29.6700 C.ar   61  TYR61      -0.0009
     15  CD2       45.1850   19.5880  -29.0580 C.ar   61  TYR61      -0.0009
     16  CE1       43.2630   20.1300  -31.0270 C.ar   61  TYR61       0.0417
     17  CE2       45.5280   19.4250  -30.4210 C.ar   61  TYR61       0.0417
     18  CZ        44.5790   19.7210  -31.3950 C.ar   61  TYR61       0.1957
     19  OH        44.9230   19.6060  -32.6970 O.3    61  TYR61      -0.2866
     20  N         44.5020   16.9140  -23.1170 N.3    64  PHE64      -0.1241
     21  CA        45.3960   17.7990  -22.3650 C.3    64  PHE64       0.1605
     22  C         44.5880   18.5300  -21.3000 C.2    64  PHE64       0.2264
     23  O         43.5380   19.1550  -21.6170 O.2    64  PHE64      -0.2867
     24  CB        46.0520   18.8220  -23.2790 C.3    64  PHE64       0.0534
     25  CG        47.1710   19.5630  -22.5950 C.ar   64  PHE64      -0.0203
     26  CD1       48.4350   18.9680  -22.4710 C.ar   64  PHE64      -0.0042
     27  CD2       46.9930   20.8670  -22.1100 C.ar   64  PHE64      -0.0042
     28  CE1       49.4800   19.6390  -21.7960 C.ar   64  PHE64      -0.0003
     29  CE2       48.0440   21.5510  -21.4760 C.ar   64  PHE64      -0.0003
     30  CZ        49.3140   20.8860  -21.3280 C.ar   64  PHE64      -0.0000
     31  N         51.0190   25.1090  -21.8920 N.3    69  CYS69      -0.1235
     32  CA        52.0260   24.1230  -21.5720 C.3    69  CYS69       0.1677
     33  C         53.2070   24.8750  -20.9070 C.2    69  CYS69       0.2270
     34  O         53.6000   26.0010  -21.3380 O.2    69  CYS69      -0.2867
     35  CB        52.5660   23.3860  -22.8250 C.3    69  CYS69       0.0956
     36  SG        51.3020   22.5830  -23.8270 S.3    69  CYS69      -0.0801
     37  N         55.3540   20.4150  -24.0240 N.3    78  HIS78      -0.1241
     38  CA        54.0530   19.9230  -23.6710 C.3    78  HIS78       0.1621
     39  C         53.9600   19.5850  -22.1530 C.2    78  HIS78       0.2264
     40  O         53.0750   18.8180  -21.7370 O.2    78  HIS78      -0.2867
     41  CB        53.6720   18.6900  -24.5540 C.3    78  HIS78       0.0745
     42  CG        53.6230   18.9930  -26.0290 C.ar   78  HIS78       0.0817
     43  ND1       53.7640   18.0190  -26.9880 N.ar   78  HIS78      -0.2268
     44  CD2       53.4890   20.1680  -26.7040 C.ar   78  HIS78       0.1154
     45  CE1       53.6860   18.5660  -28.1930 C.ar   78  HIS78       0.1986
     46  NE2       53.5380   19.8700  -28.0500 N.ar   78  HIS78      -0.2212
     47  N         53.9960   28.0760  -23.3550 N.3    95  ASP95      -0.1225
     48  CA        53.4920   27.9590  -24.7180 C.3    95  ASP95       0.1805
     49  C         51.9920   28.2310  -24.6590 C.2    95  ASP95       0.2598
     50  O         51.2350   27.5190  -23.9500 O.2    95  ASP95      -0.2718
     51  CB        53.8450   26.5560  -25.2920 C.3    95  ASP95       0.1424
     52  CG        53.4480   26.3840  -26.7870 C.2    95  ASP95       0.3668
     53  OD1       52.7510   27.2290  -27.3410 O.co2  95  ASP95      -0.2456
     54  OD2       53.7890   25.3460  -27.4120 O.co2  95  ASP95      -0.2456
     55  N         51.6060   29.3150  -25.3400 N.am   96  ILE96      -0.1966
     56  CA        50.2340   29.7790  -25.3950 C.3    96  ILE96       0.1727
     57  C         49.5410   29.4630  -26.7290 C.2    96  ILE96       0.2616
     58  O         50.1340   29.6160  -27.8020 O.2    96  ILE96      -0.2715
     59  CB        50.2290   31.3270  -25.2270 C.3    96  ILE96       0.0290
     60  CG1       50.8560   31.7240  -23.8690 C.3    96  ILE96       0.0022
     61  CG2       48.7740   31.9000  -25.4630 C.3    96  ILE96       0.0023
     62  CD1       50.2120   31.0260  -22.5680 C.3    96  ILE96       0.0001
     63  N         48.2690   29.0640  -26.7010 N.am   97  THR97      -0.1951
     64  CA        47.5200   29.1340  -27.9350 C.3    97  THR97       0.1897
     65  C         46.1420   29.6720  -27.6030 C.2    97  THR97       0.2313
     66  O         45.5100   29.1490  -26.7360 O.2    97  THR97      -0.2863
     67  CB        47.4060   27.7800  -28.7430 C.3    97  THR97       0.1794
     68  OG1       48.7070   27.2480  -29.0030 O.3    97  THR97      -0.2208
     69  CG2       46.6040   28.0290  -30.1030 C.3    97  THR97       0.0378
     70  N         49.3090   31.0710  -31.9570 N.3   106  ASP106     -0.1239
     71  CA        50.1440   30.1100  -31.2160 C.3   106  ASP106      0.1674
     72  C         51.5780   30.6100  -31.1400 C.2   106  ASP106      0.2266
     73  O         52.2090   30.9560  -32.1790 O.2   106  ASP106     -0.2867
     74  CB        50.0440   28.7710  -31.9750 C.3   106  ASP106      0.1410
     75  CG        50.7450   27.6130  -31.3020 C.2   106  ASP106      0.3668
     76  OD1       51.2750   27.7620  -30.1390 O.co2 106  ASP106     -0.2456
     77  OD2       50.8170   26.5460  -32.0050 O.co2 106  ASP106     -0.2456
     78  N         53.5520   23.6240  -37.6820 N.3   169  HIS169     -0.1241
     79  CA        52.3640   23.1020  -38.3940 C.3   169  HIS169      0.1621
     80  C         51.5810   24.2620  -38.9320 C.2   169  HIS169      0.2264
     81  O         51.6610   25.3950  -38.3940 O.2   169  HIS169     -0.2867
     82  CB        51.4990   22.3310  -37.3810 C.3   169  HIS169      0.0745
     83  CG        51.2850   23.1110  -36.1110 C.ar  169  HIS169      0.0817
     84  ND1       50.2010   23.9350  -35.9110 N.ar  169  HIS169     -0.2268
     85  CD2       52.0780   23.2530  -35.0100 C.ar  169  HIS169      0.1154
     86  CE1       50.3160   24.5520  -34.7380 C.ar  169  HIS169      0.1986
     87  NE2       51.4510   24.1460  -34.1690 N.ar  169  HIS169     -0.2212
     88  N         43.6500   24.0770  -35.1610 N.3   175  PHE175     -0.1227
     89  CA        44.8530   24.2810  -34.3500 C.3   175  PHE175      0.1736
     90  C         46.0650   23.7130  -35.1600 C.2   175  PHE175      0.2595
     91  O         47.0980   24.3780  -35.2750 O.2   175  PHE175     -0.2718
     92  CB        44.6140   23.5060  -33.0510 C.3   175  PHE175      0.0547
     93  CG        45.5510   23.8270  -31.8850 C.ar  175  PHE175     -0.0202
     94  CD1       46.7770   24.5150  -32.0490 C.ar  175  PHE175     -0.0042
     95  CD2       45.2140   23.3380  -30.6290 C.ar  175  PHE175     -0.0042
     96  CE1       47.6470   24.7460  -30.9340 C.ar  175  PHE175     -0.0003
     97  CE2       46.0180   23.5470  -29.5040 C.ar  175  PHE175     -0.0003
     98  CZ        47.2590   24.2700  -29.6470 C.ar  175  PHE175     -0.0000
     99  N         45.9210   22.4840  -35.7070 N.am  176  HIS176     -0.1975
    100  CA        47.0080   21.7580  -36.3590 C.3   176  HIS176      0.1656
    101  C         46.5640   21.3220  -37.7250 C.2   176  HIS176      0.2291
    102  O         45.7370   20.4410  -37.8400 O.2   176  HIS176     -0.2864
    103  CB        47.4430   20.5210  -35.5220 C.3   176  HIS176      0.0771
    104  CG        48.0020   20.8750  -34.1850 C.ar  176  HIS176      0.0820
    105  ND1       47.2450   20.8960  -33.0250 N.ar  176  HIS176     -0.2267
    106  CD2       49.2320   21.3170  -33.8370 C.ar  176  HIS176      0.1154
    107  CE1       48.0030   21.2870  -32.0250 C.ar  176  HIS176      0.1986
    108  NE2       49.2170   21.5330  -32.4930 N.ar  176  HIS176     -0.2212
    109  N         58.6540   26.6310  -34.6390 N.3   202  GLU202     -0.1245
    110  CA        58.6930   26.3630  -33.2030 C.3   202  GLU202      0.1567
    111  C         59.8240   25.3790  -32.8930 C.2   202  GLU202      0.2260
    112  O         59.6350   24.3370  -32.2630 O.2   202  GLU202     -0.2867
    113  CB        57.2800   25.8900  -32.6890 C.3   202  GLU202      0.0388
    114  CG        56.6590   24.6390  -33.4060 C.3   202  GLU202      0.1160
    115  CD        55.3530   24.2610  -32.7660 C.2   202  GLU202      0.3649
    116  OE1       55.4380   23.6950  -31.6820 O.co2 202  GLU202     -0.2457
    117  OE2       54.2670   24.4860  -33.3530 O.co2 202  GLU202     -0.2457
    118  N         52.1010   13.1980  -22.3510 N.3   219  TRP219     -0.1241
    119  CA        52.3210   14.5170  -22.9600 C.3   219  TRP219      0.1605
    120  C         53.7580   15.0510  -22.6880 C.2   219  TRP219      0.2264
    121  O         54.3930   15.5610  -23.5940 O.2   219  TRP219     -0.2867
    122  CB        51.3510   15.5390  -22.3780 C.3   219  TRP219      0.0550
    123  CG        49.9430   15.4240  -22.9360 C.ar  219  TRP219      0.0003
    124  CD1       48.8560   14.7930  -22.3770 C.ar  219  TRP219      0.0946
    125  CD2       49.5130   15.9340  -24.2050 C.ar  219  TRP219      0.0152
    126  NE1       47.7360   14.9120  -23.2410 N.ar  219  TRP219     -0.2442
    127  CE2       48.1240   15.5990  -24.3590 C.ar  219  TRP219      0.0810
    128  CE3       50.1610   16.6620  -25.2240 C.ar  219  TRP219      0.0012
    129  CZ2       47.3870   15.9780  -25.4710 C.ar  219  TRP219      0.0191
    130  CZ3       49.4110   16.9890  -26.3900 C.ar  219  TRP219      0.0001
    131  CH2       48.0450   16.6570  -26.4760 C.ar  219  TRP219      0.0015
    132  N         58.4610   30.0300  -30.2650 N.3   233  GLU233     -0.1245
    133  CA        57.4650   29.7770  -31.3220 C.3   233  GLU233      0.1567
    134  C         56.7650   31.0670  -31.7410 C.2   233  GLU233      0.2260
    135  O         56.4960   31.9480  -30.9010 O.2   233  GLU233     -0.2867
    136  CB        56.4150   28.7530  -30.8840 C.3   233  GLU233      0.0388
    137  CG        55.2890   28.5300  -31.9560 C.3   233  GLU233      0.1160
    138  CD        54.2350   27.5630  -31.4610 C.2   233  GLU233      0.3649
    139  OE1       54.2240   27.3270  -30.2200 O.co2 233  GLU233     -0.2457
    140  OE2       53.4360   27.0500  -32.3070 O.co2 233  GLU233     -0.2457
@<TRIPOS>BOND
     1    80    79    1
     2    80    81    2
     3    79    78    1
     4    79    82    1
     5   102   101    2
     6   101   100    1
     7    82    83    1
     8   100    99    1
     9   100   103    1
    10    83    84   ar
    11    83    85   ar
    12    84    86   ar
    13    99    90   am
    14   103   104    1
    15    91    90    2
    16    88    89    1
    17    90    89    1
    18    85    87   ar
    19    86    87   ar
    20   109   110    1
    21    89    92    1
    22   104   106   ar
    23   104   105   ar
    24   106   108   ar
    25   114   115    1
    26   114   113    1
    27   117   115   ar
    28   110   111    1
    29   110   113    1
    30    92    93    1
    31   105   107   ar
    32   111   112    2
    33   115   116   ar
    34    19    18    1
    35   108   107   ar
    36   140   138   ar
    37    73    72    2
    38    94    93   ar
    39    94    96   ar
    40    77    75   ar
    41    74    75    1
    42    74    71    1
    43    70    71    1
    44   137   138    1
    45   137   136    1
    46    93    95   ar
    47   134   133    1
    48   134   135    2
    49   138   139   ar
    50    18    16   ar
    51    18    17   ar
    52   133   136    1
    53   133   132    1
    54    75    76   ar
    55    71    72    1
    56    16    14   ar
    57    96    98   ar
    58    95    97   ar
    59    17    15   ar
    60    69    67    1
    61    14    13   ar
    62    98    97   ar
    63    15    13   ar
    64    68    67    1
    65    67    64    1
    66    13    12    1
    67    45    46   ar
    68    45    43   ar
    69    46    44   ar
    70    64    65    1
    71    64    63    1
    72    58    57    2
    73    65    66    2
    74    54    52   ar
    75    53    52   ar
    76    12     9    1
    77    43    42   ar
    78    52    51    1
    79    57    63   am
    80    57    56    1
    81    44    42   ar
    82     9    10    1
    83     9     8    1
    84    10    11    2
    85   131   130   ar
    86   131   129   ar
    87   130   128   ar
    88    42    41    1
    89     1     7    1
    90     1     2    1
    91   129   127   ar
    92    61    59    1
    93     7     6    1
    94    56    55    1
    95    56    59    1
    96    55    49   am
    97     2     3    1
    98     2     5    1
    99    51    48    1
   100    59    60    1
   101   128   125   ar
   102     6     5    1
   103    48    49    1
   104    48    47    1
   105    49    50    2
   106    41    38    1
   107     3     4    2
   108   127   125   ar
   109   127   126   ar
   110   125   123   ar
   111    37    38    1
   112    60    62    1
   113    36    35    1
   114    38    39    1
   115   121   120    2
   116    24    25    1
   117    24    21    1
   118   126   124   ar
   119    20    21    1
   120   119   120    1
   121   119   122    1
   122   119   118    1
   123   123   122    1
   124   123   124   ar
   125    35    32    1
   126    25    26   ar
   127    25    27   ar
   128    26    28   ar
   129    21    22    1
   130    39    40    2
   131    27    29   ar
   132    31    32    1
   133    28    30   ar
   134    23    22    2
   135    32    33    1
   136    29    30   ar
   137    34    33    2
