@<TRIPOS>MOLECULE
tmp/4fobA00.pdb
 189 180 0 0 0
SMALL
GASTEIGER

@<TRIPOS>ATOM
      1  N         23.8750   11.0850    1.0270 N.3    30  LEU30      -0.1231
      2  CA        23.6540   10.0780    2.0570 C.3    30  LEU30       0.1693
      3  C         22.2430    9.4850    1.9670 C.2    30  LEU30       0.2593
      4  O         21.9470    8.4930    2.6170 O.2    30  LEU30      -0.2718
      5  CB        23.8840   10.6870    3.4450 C.3    30  LEU30       0.0284
      6  CG        25.3030   11.0910    3.8760 C.3    30  LEU30       0.0019
      7  CD1       25.2350   11.7500    5.2530 C.3    30  LEU30       0.0001
      8  CD2       26.2860    9.9210    3.8950 C.3    30  LEU30       0.0001
      9  N         21.3780   10.0910    1.1580 N.am   31  GLY31      -0.1942
     10  CA        20.0030    9.6270    1.0050 C.3    31  GLY31       0.2014
     11  C         19.0500   10.7910    1.1230 C.2    31  GLY31       0.2639
     12  O         19.4780   11.9340    1.2230 O.2    31  GLY31      -0.2714
     13  N         17.7530   10.5050    1.1060 N.am   32  HIS32      -0.1959
     14  CA        16.7420   11.5520    1.2240 C.3    32  HIS32       0.1787
     15  C         15.6430   11.1520    2.1520 C.2    32  HIS32       0.2620
     16  O         15.4030    9.9680    2.3610 O.2    32  HIS32      -0.2715
     17  CB        16.1590   11.9070   -0.1480 C.3    32  HIS32       0.0785
     18  CG        15.4980   10.7470   -0.8610 C.ar   32  HIS32       0.0821
     19  ND1       16.1880    9.6820   -1.3090 N.ar   32  HIS32      -0.2267
     20  CD2       14.1650   10.5290   -1.2140 C.ar   32  HIS32       0.1154
     21  CE1       15.3420    8.8170   -1.9060 C.ar   32  HIS32       0.1986
     22  NE2       14.1070    9.3400   -1.8520 N.ar   32  HIS32      -0.2212
     23  N         14.9860   12.1520    2.7350 N.am   33  GLY33      -0.1954
     24  CA        13.6860   11.9610    3.3780 C.3    33  GLY33       0.1869
     25  C         12.6200   12.4150    2.4000 C.2    33  GLY33       0.2309
     26  O         12.7620   12.2220    1.1890 O.2    33  GLY33      -0.2863
     27  N         19.9850   14.6540    1.6500 N.3    38  VAL38      -0.1245
     28  CA        20.9760   14.9080    2.7020 C.3    38  VAL38       0.1561
     29  C         22.3670   14.4980    2.2070 C.2    38  VAL38       0.2260
     30  O         22.5460   13.4140    1.6220 O.2    38  VAL38      -0.2867
     31  CB        20.6070   14.1860    4.0220 C.3    38  VAL38       0.0252
     32  CG1       21.6460   14.4300    5.0980 C.3    38  VAL38       0.0019
     33  CG2       19.2380   14.6530    4.5130 C.3    38  VAL38       0.0019
     34  N         26.5850   16.7140    8.3710 N.3    50  ALA50      -0.1245
     35  CA        25.4900   16.4100    7.4700 C.3    50  ALA50       0.1562
     36  C         24.9060   17.7230    6.9810 C.2    50  ALA50       0.2260
     37  O         24.7640   18.6870    7.7600 O.2    50  ALA50      -0.2867
     38  CB        24.4350   15.5790    8.1710 C.3    50  ALA50       0.0290
     39  N         21.6210   19.2430    5.2390 N.3    52  LYS52      -0.1245
     40  CA        20.2540   19.1460    4.7890 C.3    52  LYS52       0.1561
     41  C         20.0000   20.2980    3.8120 C.2    52  LYS52       0.2260
     42  O         20.3750   21.4450    4.0830 O.2    52  LYS52      -0.2867
     43  CB        19.3110   19.2090    5.9980 C.3    52  LYS52       0.0271
     44  CG        17.8520   19.1090    5.6040 C.3    52  LYS52       0.0035
     45  CD        16.9510   18.6880    6.7480 C.3    52  LYS52       0.0206
     46  CE        15.5690   18.3240    6.2030 C.3    52  LYS52       0.1093
     47  NZ        14.5960   17.9190    7.2550 N.3    52  LYS52      -0.1314
     48  N         12.6270   24.7880   11.0020 N.3    69  GLU69      -0.1245
     49  CA        13.4170   23.5850   11.3380 C.3    69  GLU69       0.1567
     50  C         14.7760   24.0000   11.8980 C.2    69  GLU69       0.2260
     51  O         15.2230   23.4770   12.9130 O.2    69  GLU69      -0.2867
     52  CB        13.5710   22.6850   10.0930 C.3    69  GLU69       0.0388
     53  CG        14.7000   21.6660   10.1430 C.3    69  GLU69       0.1160
     54  CD        14.6970   20.6940    8.9640 C.2    69  GLU69       0.3649
     55  OE1       14.0850   20.9770    7.9080 O.co2  69  GLU69      -0.2457
     56  OE2       15.3070   19.6160    9.1050 O.co2  69  GLU69      -0.2457
     57  N         20.7870   15.6220   17.9290 N.3    82  VAL82      -0.1245
     58  CA        21.8340   16.0410   16.9620 C.3    82  VAL82       0.1561
     59  C         22.1080   17.5440   17.0590 C.2    82  VAL82       0.2260
     60  O         21.1790   18.3540   17.1720 O.2    82  VAL82      -0.2867
     61  CB        21.5410   15.6680   15.4870 C.3    82  VAL82       0.0252
     62  CG1       21.4710   14.1560   15.3050 C.3    82  VAL82       0.0019
     63  CG2       20.3000   16.3450   14.9500 C.3    82  VAL82       0.0019
     64  N         24.3890   20.0410   10.1630 N.3    98  LEU98      -0.1231
     65  CA        24.1040   19.2090   11.3230 C.3    98  LEU98       0.1693
     66  C         25.2280   18.2350   11.6710 C.2    98  LEU98       0.2592
     67  O         26.0630   17.8810   10.8290 O.2    98  LEU98      -0.2718
     68  CB        22.8030   18.4320   11.0790 C.3    98  LEU98       0.0284
     69  CG        21.6250   19.3920   10.8650 C.3    98  LEU98       0.0019
     70  CD1       20.5110   18.8070   10.0110 C.3    98  LEU98       0.0001
     71  CD2       21.1070   19.8480   12.2200 C.3    98  LEU98       0.0001
     72  N         25.2310   17.7960   12.9240 N.am   99  GLU99      -0.1966
     73  CA        26.1630   16.7920   13.3870 C.3    99  GLU99       0.1733
     74  C         26.0700   15.5650   12.4750 C.2    99  GLU99       0.2616
     75  O         25.0070   14.9750   12.3340 O.2    99  GLU99      -0.2715
     76  CB        25.8050   16.4000   14.8210 C.3    99  GLU99       0.0429
     77  CG        26.6560   15.3230   15.4750 C.3    99  GLU99       0.1163
     78  CD        26.2140   15.0280   16.8970 C.2    99  GLU99       0.3649
     79  OE1       26.8690   14.2080   17.5770 O.co2  99  GLU99      -0.2457
     80  OE2       25.2040   15.6130   17.3650 O.co2  99  GLU99      -0.2457
     81  N         27.1860   15.1780   11.8700 N.am  100  LEU100     -0.1963
     82  CA        27.2120   14.0010   10.9990 C.3   100  LEU100      0.1728
     83  C         26.9890   12.7350   11.8100 C.2   100  LEU100      0.2616
     84  O         27.6830   12.4930   12.7810 O.2   100  LEU100     -0.2715
     85  CB        28.5670   13.9000   10.3000 C.3   100  LEU100      0.0311
     86  CG        28.7310   12.7540    9.3040 C.3   100  LEU100      0.0022
     87  CD1       27.6450   12.7880    8.2540 C.3   100  LEU100      0.0001
     88  CD2       30.1240   12.8330    8.6680 C.3   100  LEU100      0.0001
     89  N         26.0180   11.9310   11.4180 N.am  101  MET101     -0.1963
     90  CA        25.7220   10.6960   12.1370 C.3   101  MET101      0.1736
     91  C         26.0700    9.5210   11.2260 C.2   101  MET101      0.2616
     92  O         25.2690    9.0740   10.3930 O.2   101  MET101     -0.2715
     93  CB        24.2590   10.7000   12.5850 C.3   101  MET101      0.0427
     94  CG        23.9810   11.8270   13.5730 C.3   101  MET101      0.0599
     95  SD        24.8100   11.6710   15.1610 S.3   101  MET101     -0.1393
     96  CE        23.7850   10.3820   15.8880 C.3   101  MET101      0.0692
     97  N         27.3020    9.0480   11.3790 N.am  102  ALA102     -0.1963
     98  CA        27.8760    8.0750   10.4230 C.3   102  ALA102      0.1728
     99  C         27.2080    6.7030   10.4690 C.2   102  ALA102      0.2617
    100  O         27.3250    5.9280    9.5140 O.2   102  ALA102     -0.2715
    101  CB        29.3850    7.9480   10.6480 C.3   102  ALA102      0.0334
    102  N         26.5030    6.3970   11.5620 N.am  103  GLY103     -0.1940
    103  CA        25.7670    5.1280   11.6660 C.3   103  GLY103      0.2014
    104  C         24.4050    5.1080   10.9980 C.2   103  GLY103      0.2639
    105  O         23.7510    4.0660   10.9640 O.2   103  GLY103     -0.2714
    106  N         23.9580    6.2530   10.4770 N.am  104  GLY104     -0.1939
    107  CA        22.6530    6.3500    9.8500 C.3   104  GLY104      0.2014
    108  C         21.4550    6.2120   10.7770 C.2   104  GLY104      0.2638
    109  O         21.5890    6.2840   12.0070 O.2   104  GLY104     -0.2714
    110  N         20.2760    6.0160   10.1930 N.am  105  ASP105     -0.1971
    111  CA        19.0350    5.9260   10.9940 C.3   105  ASP105      0.1709
    112  C         18.9190    4.5910   11.7310 C.2   105  ASP105      0.2293
    113  O         19.4510    3.5660   11.2960 O.2   105  ASP105     -0.2864
    114  CB        17.7700    6.2310   10.1600 C.3   105  ASP105      0.1436
    115  CG        17.2920    5.0500    9.3260 C.2   105  ASP105      0.3671
    116  OD1       17.7310    4.9180    8.1720 O.co2 105  ASP105     -0.2456
    117  OD2       16.4620    4.2530    9.8160 O.co2 105  ASP105     -0.2456
    118  N         19.6000    0.5960   10.6720 N.3   109  PHE109     -0.1241
    119  CA        20.6010   -0.0610   11.4870 C.3   109  PHE109      0.1605
    120  C         20.1120   -1.3840   12.0860 C.2   109  PHE109      0.2264
    121  O         20.7910   -2.4120   12.0050 O.2   109  PHE109     -0.2867
    122  CB        21.0330    0.8470   12.6410 C.3   109  PHE109      0.0534
    123  CG        21.8990    0.1510   13.6310 C.ar  109  PHE109     -0.0203
    124  CD1       23.2520   -0.0310   13.3720 C.ar  109  PHE109     -0.0042
    125  CD2       21.3670   -0.3520   14.8070 C.ar  109  PHE109     -0.0042
    126  CE1       24.0590   -0.7050   14.2790 C.ar  109  PHE109     -0.0003
    127  CE2       22.1690   -1.0240   15.7170 C.ar  109  PHE109     -0.0003
    128  CZ        23.5200   -1.1970   15.4490 C.ar  109  PHE109     -0.0000
    129  N         19.6170   -4.0320    9.4260 N.3   112  GLU112     -0.1245
    130  CA        20.8550   -4.4660    8.7730 C.3   112  GLU112      0.1567
    131  C         21.8560   -5.1170    9.7260 C.2   112  GLU112      0.2260
    132  O         22.7580   -5.8160    9.2870 O.2   112  GLU112     -0.2867
    133  CB        21.4810   -3.2890    8.0240 C.3   112  GLU112      0.0388
    134  CG        20.7330   -2.9830    6.7270 C.3   112  GLU112      0.1160
    135  CD        20.7790   -1.5160    6.3250 C.2   112  GLU112      0.3649
    136  OE1       21.7890   -0.8300    6.6110 O.co2 112  GLU112     -0.2457
    137  OE2       19.7900   -1.0520    5.7150 O.co2 112  GLU112     -0.2457
    138  N         12.7780    5.5230   12.8250 N.3   152  ARG152     -0.1231
    139  CA        13.1590    6.2460   11.5960 C.3   152  ARG152      0.1694
    140  C         13.6700    7.6760   11.8390 C.2   152  ARG152      0.2592
    141  O         14.3060    8.2690   10.9640 O.2   152  ARG152     -0.2718
    142  CB        11.9730    6.3150   10.6190 C.3   152  ARG152      0.0321
    143  CG        10.8160    7.1700   11.1240 C.3   152  ARG152      0.0489
    144  CD         9.6530    7.3280   10.1500 C.3   152  ARG152      0.2205
    145  NE         8.5030    7.9250   10.8480 N.pl3 152  ARG152     -0.0865
    146  CZ         7.6150    7.2440   11.5790 C.cat 152  ARG152      0.5346
    147  NH1        7.7110    5.9290   11.7000 N.pl3 152  ARG152      0.1354
    148  NH2        6.6170    7.8740   12.2000 N.pl3 152  ARG152      0.1354
    149  N         13.3400    8.2440   12.9930 N.am  153  ASN153     -0.1960
    150  CA        13.6820    9.6210   13.3360 C.3   153  ASN153      0.1819
    151  C         14.8600    9.7190   14.3010 C.2   153  ASN153      0.2621
    152  O         15.1930   10.8090   14.7630 O.2   153  ASN153     -0.2715
    153  CB        12.4330   10.3360   13.9020 C.3   153  ASN153      0.1195
    154  CG        11.3900   10.6010   12.8280 C.2   153  ASN153      0.2630
    155  OD1       11.7390   10.7410   11.6500 O.2   153  ASN153     -0.2716
    156  ND2       10.1110   10.6420   13.2100 N.am  153  ASN153     -0.0877
    157  N         15.4720    8.5750   14.6000 N.am  154  CYS154     -0.1954
    158  CA        16.6760    8.5040   15.4280 C.3   154  CYS154      0.1843
    159  C         17.8670    8.1220   14.5840 C.2   154  CYS154      0.2625
    160  O         17.7290    7.4450   13.5630 O.2   154  CYS154     -0.2714
    161  CB        16.5120    7.4990   16.5650 C.3   154  CYS154      0.0997
    162  SG        15.0680    7.8630   17.5990 S.3   154  CYS154     -0.0797
    163  N         19.0350    8.5850   15.0160 N.am  155  LEU155     -0.1977
    164  CA        20.2800    8.3920   14.2850 C.3   155  LEU155      0.1596
    165  C         21.3550    7.8280   15.2180 C.2   155  LEU155      0.2287
    166  O         21.2800    7.9940   16.4450 O.2   155  LEU155     -0.2864
    167  CB        20.7440    9.7440   13.7040 C.3   155  LEU155      0.0297
    168  CG        19.8530   10.4130   12.6480 C.3   155  LEU155      0.0022
    169  CD1       20.2620   11.8590   12.3720 C.3   155  LEU155      0.0001
    170  CD2       19.8580    9.6370   11.3390 C.3   155  LEU155      0.0001
    171  N         28.3510    2.8160   13.3580 N.3   159  PRO159     -0.2116
    172  CA        27.7540    1.4700   13.3570 C.3   159  PRO159      0.1372
    173  C         28.2220    0.5720   14.5050 C.2   159  PRO159      0.2244
    174  O         27.4650   -0.2840   14.9830 O.2   159  PRO159     -0.2868
    175  CB        28.2300    0.8650   12.0300 C.3   159  PRO159      0.0268
    176  CG        28.7420    1.9950   11.2170 C.3   159  PRO159      0.0207
    177  CD        29.1610    3.0750   12.1530 C.3   159  PRO159      0.0892
    178  N         16.9440   12.8160   15.6800 N.3   168  GLY168     -0.1210
    179  CA        17.4890   13.5260   14.5140 C.3   168  GLY168      0.1956
    180  C         16.5340   14.2620   13.5890 C.2   168  GLY168      0.2611
    181  O         16.9770   14.9220   12.6470 O.2   168  GLY168     -0.2717
    182  N         15.2370   14.1270   13.8160 N.am  169  ASP169     -0.1973
    183  CA        14.2290   14.7790   12.9940 C.3   169  ASP169      0.1709
    184  C         13.1580   15.4010   13.8920 C.2   169  ASP169      0.2293
    185  O         12.6900   14.7570   14.8400 O.2   169  ASP169     -0.2864
    186  CB        13.5370   13.7760   12.0810 C.3   169  ASP169      0.1436
    187  CG        12.5730   14.4480   11.1140 C.2   169  ASP169      0.3671
    188  OD1       13.0230   14.9240   10.0650 O.co2 169  ASP169     -0.2456
    189  OD2       11.3590   14.5080   11.4000 O.co2 169  ASP169     -0.2456
@<TRIPOS>BOND
     1    21    22   ar
     2    21    19   ar
     3    22    20   ar
     4    19    18   ar
     5    20    18   ar
     6    18    17    1
     7    17    14    1
     8    10    11    1
     9    10     9    1
    10     1     2    1
    11    13    11   am
    12    13    14    1
    13    11    12    2
    14     9     3   am
    15    26    25    2
    16    14    15    1
    17    30    29    2
    18    27    28    1
    19     3     2    1
    20     3     4    2
    21     2     5    1
    22    15    16    2
    23    15    23   am
    24    29    28    1
    25    25    24    1
    26    28    31    1
    27    23    24    1
    28     5     6    1
    29    41    42    2
    30    41    40    1
    31     6     8    1
    32     6     7    1
    33    31    33    1
    34    31    32    1
    35    40    39    1
    36    40    43    1
    37    44    43    1
    38    44    45    1
    39   137   135   ar
    40    46    45    1
    41    46    47    1
    42   135   136   ar
    43   135   134    1
    44   134   133    1
    45    36    35    1
    46    36    37    2
    47    35    38    1
    48    35    34    1
    49    55    54   ar
    50   133   130    1
    51   116   115   ar
    52    87    86    1
    53    88    86    1
    54   130   129    1
    55   130   131    1
    56    54    56   ar
    57    54    53    1
    58   132   131    2
    59    86    85    1
    60   115   117   ar
    61   115   114    1
    62   100    99    2
    63   107   106    1
    64   107   108    1
    65    70    69    1
    66   188   187   ar
    67    52    53    1
    68    52    49    1
    69   144   145    1
    70   144   143    1
    71   114   111    1
    72    64    65    1
    73   110   108   am
    74   110   111    1
    75    85    82    1
    76    92    91    2
    77    98    99    1
    78    98   101    1
    79    98    97    1
    80    99   102   am
    81   106   104   am
    82   142   143    1
    83   142   139    1
    84   118   119    1
    85   108   109    2
    86    67    66    2
    87   145   146    2
    88    69    68    1
    89    69    71    1
    90   105   104    2
    91   141   140    2
    92   111   112    1
    93   104   103    1
    94    82    83    1
    95    82    81    1
    96    48    49    1
    97    68    65    1
    98   187   189   ar
    99   187   186    1
   100   176   175    1
   101   176   177    1
   102    91    97   am
   103    91    90    1
   104   113   112    2
   105    65    66    1
   106    49    50    1
   107   170   168    1
   108    89    83   am
   109    89    90    1
   110   119   120    1
   111   119   122    1
   112   102   103    1
   113   146   147    1
   114   146   148    1
   115   139   140    1
   116   139   138    1
   117   155   154    2
   118    66    72   am
   119    83    84    2
   120   140   149   am
   121    81    74   am
   122    50    51    2
   123   121   120    2
   124   175   172    1
   125   186   183    1
   126    90    93    1
   127   177   171    1
   128    75    74    2
   129   169   168    1
   130    74    73    1
   131    93    94    1
   132   122   123    1
   133   181   180    2
   134   168   167    1
   135   154   156   am
   136   154   153    1
   137    72    73    1
   138   149   150    1
   139   183   182    1
   140   183   184    1
   141   150   153    1
   142   150   151    1
   143   172   171    1
   144   172   173    1
   145   124   123   ar
   146   124   126   ar
   147    73    76    1
   148   160   159    2
   149    94    95    1
   150   180   182   am
   151   180   179    1
   152   123   125   ar
   153   167   164    1
   154   184   185    2
   155   126   128   ar
   156   164   163    1
   157   164   165    1
   158   151   157   am
   159   151   152    2
   160   173   174    2
   161   179   178    1
   162   159   163   am
   163   159   158    1
   164   157   158    1
   165   125   127   ar
   166    76    77    1
   167    63    61    1
   168    95    96    1
   169   165   166    2
   170    62    61    1
   171   158   161    1
   172   128   127   ar
   173    77    78    1
   174    61    58    1
   175   161   162    1
   176    78    80   ar
   177    78    79   ar
   178    58    59    1
   179    58    57    1
   180    59    60    2
