@<TRIPOS>MOLECULE
tmp/4focA00.pdb
 162 154 0 0 0
SMALL
GASTEIGER

@<TRIPOS>ATOM
      1  N         29.2670   13.7610   -0.5710 N.3    28  ARG28      -0.1231
      2  CA        28.4300   12.6870   -1.0950 C.3    28  ARG28       0.1694
      3  C         26.9940   12.7880   -0.5830 C.2    28  ARG28       0.2593
      4  O         26.7400   13.4000    0.4650 O.2    28  ARG28      -0.2718
      5  CB        29.0010   11.3260   -0.6860 C.3    28  ARG28       0.0321
      6  CG        29.2550   11.1990    0.8120 C.3    28  ARG28       0.0489
      7  CD        29.2830    9.7560    1.2850 C.3    28  ARG28       0.2205
      8  NE        30.2020    8.9300    0.5100 N.pl3  28  ARG28      -0.0865
      9  CZ        31.5280    8.9210    0.6410 C.cat  28  ARG28       0.5346
     10  NH1       32.1390    9.7080    1.5210 N.pl3  28  ARG28       0.1354
     11  NH2       32.2540    8.1170   -0.1270 N.pl3  28  ARG28       0.1354
     12  N         26.0630   12.2000   -1.3330 N.am   29  GLY29      -0.1942
     13  CA        24.6870   12.0470   -0.8900 C.3    29  GLY29       0.2014
     14  C         24.5830   11.0060    0.2170 C.2    29  GLY29       0.2639
     15  O         25.2660    9.9870    0.1960 O.2    29  GLY29      -0.2714
     16  N         23.7400   11.2790    1.2010 N.am   30  LEU30      -0.1963
     17  CA        23.4700   10.3410    2.2850 C.3    30  LEU30       0.1728
     18  C         22.0340    9.8320    2.2620 C.2    30  LEU30       0.2617
     19  O         21.6470    9.0360    3.1100 O.2    30  LEU30      -0.2715
     20  CB        23.7590   11.0170    3.6280 C.3    30  LEU30       0.0311
     21  CG        25.2070   11.3910    3.9220 C.3    30  LEU30       0.0022
     22  CD1       25.2720   12.1320    5.2490 C.3    30  LEU30       0.0001
     23  CD2       26.1250   10.1770    3.9620 C.3    30  LEU30       0.0001
     24  N         21.2530   10.2860    1.2870 N.am   31  GLY31      -0.1940
     25  CA        19.8450    9.9240    1.1680 C.3    31  GLY31       0.2014
     26  C         18.9860   11.1460    1.3790 C.2    31  GLY31       0.2639
     27  O         19.4950   12.2650    1.4190 O.2    31  GLY31      -0.2714
     28  N         17.6810   10.9390    1.5150 N.am   32  HIS32      -0.1959
     29  CA        16.7630   12.0520    1.7410 C.3    32  HIS32       0.1787
     30  C         15.9050   11.8370    2.9510 C.2    32  HIS32       0.2620
     31  O         15.6140   10.6970    3.3320 O.2    32  HIS32      -0.2715
     32  CB        15.9000   12.3200    0.5080 C.3    32  HIS32       0.0785
     33  CG        15.2810   11.0830   -0.0880 C.ar   32  HIS32       0.0821
     34  ND1       15.6490   10.5990   -1.2900 N.ar   32  HIS32      -0.2267
     35  CD2       14.2940   10.2270    0.3980 C.ar   32  HIS32       0.1154
     36  CE1       14.9310    9.4920   -1.5650 C.ar   32  HIS32       0.1986
     37  NE2       14.1030    9.2650   -0.5300 N.ar   32  HIS32      -0.2212
     38  N         15.5120   12.9530    3.5650 N.am   33  GLY33      -0.1954
     39  CA        14.6150   12.9670    4.7180 C.3    33  GLY33       0.1869
     40  C         13.3170   13.6730    4.3660 C.2    33  GLY33       0.2309
     41  O         12.7160   13.3880    3.3280 O.2    33  GLY33      -0.2863
     42  N         19.9830   14.9510    1.9550 N.3    38  VAL38      -0.1245
     43  CA        20.9460   15.2360    2.9960 C.3    38  VAL38       0.1561
     44  C         22.2910   14.8230    2.4180 C.2    38  VAL38       0.2260
     45  O         22.3980   13.7530    1.8150 O.2    38  VAL38      -0.2867
     46  CB        20.6460   14.4420    4.2770 C.3    38  VAL38       0.0252
     47  CG1       21.7060   14.7030    5.3310 C.3    38  VAL38       0.0019
     48  CG2       19.2580   14.7870    4.8020 C.3    38  VAL38       0.0019
     49  N         26.5340   16.9640    8.3910 N.3    50  ALA50      -0.1245
     50  CA        25.4390   16.5970    7.5240 C.3    50  ALA50       0.1562
     51  C         24.8200   17.9020    7.0640 C.2    50  ALA50       0.2260
     52  O         24.6890   18.8430    7.8540 O.2    50  ALA50      -0.2867
     53  CB        24.4210   15.7450    8.2610 C.3    50  ALA50       0.0290
     54  N         21.5480   19.4810    5.3670 N.3    52  LYS52      -0.1245
     55  CA        20.1680   19.3810    4.9400 C.3    52  LYS52       0.1561
     56  C         19.9250   20.4880    3.9260 C.2    52  LYS52       0.2260
     57  O         20.2740   21.6350    4.1800 O.2    52  LYS52      -0.2867
     58  CB        19.2480   19.5310    6.1510 C.3    52  LYS52       0.0271
     59  CG        17.8130   19.0940    5.9330 C.3    52  LYS52       0.0035
     60  CD        17.2150   18.5560    7.2260 C.3    52  LYS52       0.0206
     61  CE        15.7890   18.0500    7.0300 C.3    52  LYS52       0.1093
     62  NZ        15.2750   17.3510    8.2470 N.3    52  LYS52      -0.1314
     63  N         20.8060   16.0700   17.9710 N.3    82  VAL82      -0.1245
     64  CA        21.8550   16.4380   17.0030 C.3    82  VAL82       0.1561
     65  C         22.1700   17.9340   17.0880 C.2    82  VAL82       0.2260
     66  O         21.2650   18.7500   17.1800 O.2    82  VAL82      -0.2867
     67  CB        21.5380   16.0800   15.5390 C.3    82  VAL82       0.0252
     68  CG1       21.4000   14.5520   15.3700 C.3    82  VAL82       0.0019
     69  CG2       20.3170   16.8220   14.9930 C.3    82  VAL82       0.0019
     70  N         24.4040   20.3190   10.1840 N.3    98  LEU98      -0.1231
     71  CA        24.1730   19.5570   11.4050 C.3    98  LEU98       0.1693
     72  C         25.3030   18.5820   11.7270 C.2    98  LEU98       0.2592
     73  O         26.1100   18.2320   10.8670 O.2    98  LEU98      -0.2718
     74  CB        22.8560   18.7850   11.2740 C.3    98  LEU98       0.0284
     75  CG        21.6070   19.6330   11.0300 C.3    98  LEU98       0.0019
     76  CD1       20.4230   18.7690   10.6170 C.3    98  LEU98       0.0001
     77  CD2       21.2680   20.4660   12.2560 C.3    98  LEU98       0.0001
     78  N         25.3480   18.1510   12.9800 N.am   99  GLU99      -0.1966
     79  CA        26.2470   17.0970   13.4210 C.3    99  GLU99       0.1733
     80  C         26.1560   15.8790   12.4840 C.2    99  GLU99       0.2616
     81  O         25.0720   15.3510   12.2750 O.2    99  GLU99      -0.2715
     82  CB        25.8550   16.7070   14.8420 C.3    99  GLU99       0.0429
     83  CG        26.6380   15.5650   15.4500 C.3    99  GLU99       0.1163
     84  CD        26.2860   15.3250   16.9040 C.2    99  GLU99       0.3649
     85  OE1       26.9390   14.4570   17.5180 O.co2  99  GLU99      -0.2457
     86  OE2       25.3420   15.9550   17.4380 O.co2  99  GLU99      -0.2457
     87  N         27.2730   15.4780   11.8750 N.am  100  LEU100     -0.1963
     88  CA        27.2820   14.2660   11.0450 C.3   100  LEU100      0.1728
     89  C         27.0630   13.0110   11.8990 C.2   100  LEU100      0.2616
     90  O         27.7890   12.7680   12.8500 O.2   100  LEU100     -0.2715
     91  CB        28.5930   14.1390   10.2390 C.3   100  LEU100      0.0311
     92  CG        28.6500   12.9310    9.2960 C.3   100  LEU100      0.0022
     93  CD1       27.6000   13.0320    8.2010 C.3   100  LEU100      0.0001
     94  CD2       30.0510   12.7720    8.7050 C.3   100  LEU100      0.0001
     95  N         26.0650   12.2050   11.5380 N.am  101  MET101     -0.1963
     96  CA        25.7370   10.9890   12.2680 C.3   101  MET101      0.1736
     97  C         26.0830    9.7960   11.3740 C.2   101  MET101      0.2616
     98  O         25.2830    9.3490   10.5570 O.2   101  MET101     -0.2715
     99  CB        24.2670   11.0290   12.7190 C.3   101  MET101      0.0427
    100  CG        23.9610   12.2190   13.6290 C.3   101  MET101      0.0599
    101  SD        24.7230   12.1340   15.2610 S.3   101  MET101     -0.1393
    102  CE        23.7160   10.8430   16.0060 C.3   101  MET101      0.0692
    103  N         27.3200    9.3330   11.5310 N.am  102  ALA102     -0.1963
    104  CA        27.9480    8.3800   10.5990 C.3   102  ALA102      0.1728
    105  C         27.2790    7.0110   10.6180 C.2   102  ALA102      0.2617
    106  O         27.4050    6.2470    9.6600 O.2   102  ALA102     -0.2715
    107  CB        29.4420    8.2590   10.9040 C.3   102  ALA102      0.0334
    108  N         26.5600    6.7100   11.6960 N.am  103  GLY103     -0.1940
    109  CA        25.8050    5.4690   11.8170 C.3   103  GLY103      0.2014
    110  C         24.4460    5.4570   11.1420 C.2   103  GLY103      0.2639
    111  O         23.7770    4.4180   11.1280 O.2   103  GLY103     -0.2714
    112  N         24.0180    6.5910   10.5990 N.am  104  GLY104     -0.1939
    113  CA        22.7140    6.7020    9.9370 C.3   104  GLY104      0.2014
    114  C         21.5130    6.5730   10.8620 C.2   104  GLY104      0.2638
    115  O         21.6420    6.7040   12.0920 O.2   104  GLY104     -0.2714
    116  N         20.3350    6.3440   10.2800 N.am  105  ASP105     -0.1971
    117  CA        19.1070    6.3240   11.0920 C.3   105  ASP105      0.1709
    118  C         18.9730    4.9940   11.8220 C.2   105  ASP105      0.2293
    119  O         19.4340    3.9560   11.3480 O.2   105  ASP105     -0.2864
    120  CB        17.8430    6.6510   10.2860 C.3   105  ASP105      0.1436
    121  CG        17.3450    5.4840    9.4650 C.2   105  ASP105      0.3671
    122  OD1       17.7940    5.3410    8.3220 O.co2 105  ASP105     -0.2456
    123  OD2       16.5220    4.6910    9.9640 O.co2 105  ASP105     -0.2456
    124  N         12.8220    6.0120   12.8610 N.3   155  ARG155     -0.1231
    125  CA        13.2350    6.7000   11.6250 C.3   155  ARG155      0.1694
    126  C         13.7760    8.1130   11.8930 C.2   155  ARG155      0.2592
    127  O         14.5130    8.6660   11.0790 O.2   155  ARG155     -0.2718
    128  CB        12.0710    6.7410   10.6000 C.3   155  ARG155      0.0321
    129  CG        10.9590    7.7230   10.9520 C.3   155  ARG155      0.0489
    130  CD         9.7220    7.6830   10.0530 C.3   155  ARG155      0.2205
    131  NE         8.5730    8.2570   10.7660 N.pl3 155  ARG155     -0.0865
    132  CZ         7.7370    7.5610   11.5420 C.cat 155  ARG155      0.5346
    133  NH1        7.8810    6.2500   11.6610 N.pl3 155  ARG155      0.1354
    134  NH2        6.7300    8.1580   12.1840 N.pl3 155  ARG155      0.1354
    135  N         13.3990    8.6920   13.0300 N.am  156  ASN156     -0.1974
    136  CA        13.7880   10.0590   13.3740 C.3   156  ASN156      0.1688
    137  C         14.9680   10.1440   14.3410 C.2   156  ASN156      0.2292
    138  O         15.3220   11.2510   14.7760 O.2   156  ASN156     -0.2864
    139  CB        12.5750   10.8220   13.9410 C.3   156  ASN156      0.1181
    140  CG        11.5010   11.0630   12.8900 C.2   156  ASN156      0.2629
    141  OD1       11.8080   11.2320   11.7080 O.2   156  ASN156     -0.2716
    142  ND2       10.2340   11.0520   13.3060 N.am  156  ASN156     -0.0877
    143  N         19.0730    8.9630   15.1180 N.3   158  LEU158     -0.1245
    144  CA        20.3130    8.7440   14.3810 C.3   158  LEU158      0.1561
    145  C         21.4050    8.2030   15.3140 C.2   158  LEU158      0.2260
    146  O         21.3520    8.3700   16.5490 O.2   158  LEU158     -0.2867
    147  CB        20.7440   10.0580   13.7050 C.3   158  LEU158      0.0270
    148  CG        19.7640   10.7000   12.7140 C.3   158  LEU158      0.0019
    149  CD1       20.0540   12.1930   12.5390 C.3   158  LEU158      0.0001
    150  CD2       19.8410   10.0210   11.3490 C.3   158  LEU158      0.0001
    151  N         17.0670   13.3400   15.7780 N.3   171  GLY171     -0.1210
    152  CA        17.6240   14.0640   14.6230 C.3   171  GLY171      0.1956
    153  C         16.6590   14.7570   13.6680 C.2   171  GLY171      0.2611
    154  O         17.0990   15.4550   12.7510 O.2   171  GLY171     -0.2717
    155  N         15.3590   14.5520   13.8410 N.am  172  ASP172     -0.1973
    156  CA        14.3440   15.1830   12.9880 C.3   172  ASP172      0.1709
    157  C         13.2550   15.7780   13.8930 C.2   172  ASP172      0.2293
    158  O         12.8190   15.1270   14.8470 O.2   172  ASP172     -0.2864
    159  CB        13.7230   14.1500   12.0430 C.3   172  ASP172      0.1436
    160  CG        12.7140   14.7570   11.0960 C.2   172  ASP172      0.3671
    161  OD1       13.1350   15.1740   10.0020 O.co2 172  ASP172     -0.2456
    162  OD2       11.5160   14.8360   11.4520 O.co2 172  ASP172     -0.2456
@<TRIPOS>BOND
     1    36    34   ar
     2    36    37   ar
     3    12    13    1
     4    12     3   am
     5    34    33   ar
     6     2     5    1
     7     2     3    1
     8     2     1    1
     9    13    14    1
    10     5     6    1
    11     3     4    2
    12    37    35   ar
    13    11     9    1
    14    33    35   ar
    15    33    32    1
    16    15    14    2
    17    14    16   am
    18    32    29    1
    19     8     9    2
    20     8     7    1
    21     9    10    1
    22     6     7    1
    23    25    24    1
    24    25    26    1
    25    16    17    1
    26    24    18   am
    27    26    27    2
    28    26    28   am
    29    28    29    1
    30    29    30    1
    31    45    44    2
    32    42    43    1
    33    18    17    1
    34    18    19    2
    35    17    20    1
    36    44    43    1
    37    30    31    2
    38    30    38   am
    39    43    46    1
    40    41    40    2
    41    38    39    1
    42    20    21    1
    43    21    23    1
    44    21    22    1
    45    56    57    2
    46    56    55    1
    47    46    48    1
    48    46    47    1
    49    40    39    1
    50    55    54    1
    51    55    58    1
    52    59    58    1
    53    59    60    1
    54    61    60    1
    55    61    62    1
    56    51    50    1
    57    51    52    2
    58    50    53    1
    59    50    49    1
    60    93    92    1
    61   122   121   ar
    62    94    92    1
    63    92    91    1
    64   121   123   ar
    65   121   120    1
    66   106   105    2
    67   113   112    1
    68   113   114    1
    69   161   160   ar
    70   130   131    1
    71   130   129    1
    72    70    71    1
    73    91    88    1
    74   116   114   am
    75   116   117    1
    76   120   117    1
    77    98    97    2
    78   104   105    1
    79   104   107    1
    80   104   103    1
    81   112   110   am
    82   128   129    1
    83   128   125    1
    84    76    75    1
    85   105   108   am
    86   131   132    2
    87   114   115    2
    88    73    72    2
    89    75    74    1
    90    75    77    1
    91    88    87    1
    92    88    89    1
    93   127   126    2
    94   117   118    1
    95   160   162   ar
    96   160   159    1
    97   111   110    2
    98   110   109    1
    99    74    71    1
   100   119   118    2
   101   150   148    1
   102    97   103   am
   103    97    96    1
   104    71    72    1
   105    95    89   am
   106    95    96    1
   107   132   133    1
   108   132   134    1
   109   125   126    1
   110   125   124    1
   111   108   109    1
   112   141   140    2
   113    72    78   am
   114    87    80   am
   115   126   135   am
   116    89    90    2
   117   159   156    1
   118    96    99    1
   119    81    80    2
   120    80    79    1
   121   149   148    1
   122   148   147    1
   123    99   100    1
   124   154   153    2
   125   140   142   am
   126   140   139    1
   127    78    79    1
   128   156   155    1
   129   156   157    1
   130   135   136    1
   131   136   139    1
   132   136   137    1
   133    79    82    1
   134   100   101    1
   135   153   155   am
   136   153   152    1
   137   147   144    1
   138   157   158    2
   139   137   138    2
   140   144   143    1
   141   144   145    1
   142   152   151    1
   143    82    83    1
   144    69    67    1
   145   101   102    1
   146   145   146    2
   147    68    67    1
   148    83    84    1
   149    67    64    1
   150    84    86   ar
   151    84    85   ar
   152    64    65    1
   153    64    63    1
   154    65    66    2
