@<TRIPOS>MOLECULE
tmp/4fodA00.pdb
 192 183 0 0 0
SMALL
GASTEIGER

@<TRIPOS>ATOM
      1  N         23.7260   11.1870    1.2340 N.3    38  LEU38      -0.1231
      2  CA        23.5530   10.1960    2.3110 C.3    38  LEU38       0.1693
      3  C         22.1730    9.5520    2.3120 C.2    38  LEU38       0.2593
      4  O         21.8980    8.6750    3.1360 O.2    38  LEU38      -0.2718
      5  CB        23.7850   10.8500    3.6670 C.3    38  LEU38       0.0284
      6  CG        25.1810   11.3560    3.9670 C.3    38  LEU38       0.0019
      7  CD1       25.1280   12.1830    5.2460 C.3    38  LEU38       0.0001
      8  CD2       26.1680   10.1940    4.0830 C.3    38  LEU38       0.0001
      9  N         21.3020    9.9850    1.4020 N.am   39  GLY39      -0.1942
     10  CA        19.9340    9.4840    1.3390 C.3    39  GLY39       0.2014
     11  C         18.8960   10.5750    1.5060 C.2    39  GLY39       0.2639
     12  O         19.2310   11.7580    1.6210 O.2    39  GLY39      -0.2714
     13  N         17.6330   10.1530    1.5330 N.am   40  HIS40      -0.1959
     14  CA        16.4770   11.0420    1.5340 C.3    40  HIS40       0.1787
     15  C         16.0400   11.3200    2.9430 C.2    40  HIS40       0.2621
     16  O         15.8130   10.3960    3.7040 O.2    40  HIS40      -0.2715
     17  CB        15.3400   10.3550    0.7730 C.3    40  HIS40       0.0785
     18  CG        14.2370   11.2820    0.3260 C.ar   40  HIS40       0.0821
     19  ND1       14.1960   11.8150   -0.9130 N.ar   40  HIS40      -0.2267
     20  CD2       13.0940   11.7410    0.9910 C.ar   40  HIS40       0.1154
     21  CE1       13.0940   12.5880   -1.0340 C.ar   40  HIS40       0.1986
     22  NE2       12.4210   12.5420    0.1330 N.ar   40  HIS40      -0.2212
     23  N         15.8910   12.5900    3.3040 N.am   41  GLY41      -0.1940
     24  CA        15.4020   12.9540    4.6360 C.3    41  GLY41       0.2014
     25  C         14.5330   14.1880    4.5960 C.2    41  GLY41       0.2638
     26  O         13.7400   14.3640    3.6660 O.2    41  GLY41      -0.2714
     27  N         14.6820   15.0510    5.6010 N.am   42  ALA42      -0.1977
     28  CA        13.9470   16.3170    5.6290 C.3    42  ALA42       0.1597
     29  C         14.3720   17.1650    4.4310 C.2    42  ALA42       0.2287
     30  O         15.5770   17.3820    4.2100 O.2    42  ALA42      -0.2864
     31  CB        14.1940   17.0650    6.9310 C.3    42  ALA42       0.0319
     32  N         19.8960   14.4340    1.8750 N.3    46  VAL46      -0.1245
     33  CA        20.8020   14.9370    2.8970 C.3    46  VAL46       0.1561
     34  C         22.2050   14.5780    2.4360 C.2    46  VAL46       0.2260
     35  O         22.4130   13.4820    1.9010 O.2    46  VAL46      -0.2867
     36  CB        20.5160   14.2770    4.2710 C.3    46  VAL46       0.0252
     37  CG1       21.5920   14.6150    5.2980 C.3    46  VAL46       0.0019
     38  CG2       19.1400   14.6840    4.7690 C.3    46  VAL46       0.0019
     39  N         26.4770   16.9040    8.4380 N.3    58  ALA58      -0.1245
     40  CA        25.3550   16.5610    7.5750 C.3    58  ALA58       0.1562
     41  C         24.7140   17.8750    7.1200 C.2    58  ALA58       0.2260
     42  O         24.5720   18.8110    7.9200 O.2    58  ALA58      -0.2867
     43  CB        24.3410   15.7040    8.3200 C.3    58  ALA58       0.0290
     44  N         21.3770   19.5420    5.2580 N.3    60  LYS60      -0.1245
     45  CA        20.0580   19.5970    4.6350 C.3    60  LYS60       0.1561
     46  C         20.0220   20.7730    3.6880 C.2    60  LYS60       0.2260
     47  O         20.5300   21.8550    3.9980 O.2    60  LYS60      -0.2867
     48  CB        18.9390   19.7770    5.6620 C.3    60  LYS60       0.0271
     49  CG        18.8480   18.7130    6.7200 C.3    60  LYS60       0.0035
     50  CD        17.7000   19.0040    7.6780 C.3    60  LYS60       0.0206
     51  CE        17.5770   17.9180    8.7330 C.3    60  LYS60       0.1093
     52  NZ        16.4890   18.1270    9.7390 N.3    60  LYS60      -0.1314
     53  N         20.7330   16.0130   18.0220 N.3    90  VAL90      -0.1245
     54  CA        21.7620   16.4230   17.0550 C.3    90  VAL90       0.1561
     55  C         22.0430   17.9160   17.1620 C.2    90  VAL90       0.2260
     56  O         21.1130   18.7090   17.3010 O.2    90  VAL90      -0.2867
     57  CB        21.4370   16.0550   15.5890 C.3    90  VAL90       0.0252
     58  CG1       21.4300   14.5410   15.4010 C.3    90  VAL90       0.0019
     59  CG2       20.1280   16.6750   15.1210 C.3    90  VAL90       0.0019
     60  N         24.4230   20.3340   10.2170 N.3   106  LEU106     -0.1231
     61  CA        24.1360   19.5460   11.4080 C.3   106  LEU106      0.1693
     62  C         25.2590   18.5760   11.7580 C.2   106  LEU106      0.2592
     63  O         26.1100   18.2410   10.9180 O.2   106  LEU106     -0.2718
     64  CB        22.8410   18.7800   11.1750 C.3   106  LEU106      0.0284
     65  CG        21.6530   19.7030   10.8750 C.3   106  LEU106      0.0019
     66  CD1       20.6860   19.0770    9.8760 C.3   106  LEU106      0.0001
     67  CD2       20.9630   20.0940   12.1720 C.3   106  LEU106      0.0001
     68  N         25.2600   18.1200   13.0070 N.am  107  GLU107     -0.1966
     69  CA        26.1850   17.0760   13.4520 C.3   107  GLU107      0.1733
     70  C         26.0970   15.8460   12.5230 C.2   107  GLU107      0.2616
     71  O         25.0170   15.3310   12.2870 O.2   107  GLU107     -0.2715
     72  CB        25.8230   16.6920   14.8760 C.3   107  GLU107      0.0429
     73  CG        26.6550   15.6020   15.5280 C.3   107  GLU107      0.1163
     74  CD        26.2200   15.3340   16.9630 C.2   107  GLU107      0.3649
     75  OE1       26.8210   14.4330   17.5940 O.co2 107  GLU107     -0.2457
     76  OE2       25.2750   16.0020   17.4600 O.co2 107  GLU107     -0.2457
     77  N         27.2280   15.3910   11.9880 N.am  108  LEU108     -0.1963
     78  CA        27.2310   14.2170   11.1090 C.3   108  LEU108      0.1728
     79  C         26.9960   12.9780   11.9470 C.2   108  LEU108      0.2616
     80  O         27.7640   12.7150   12.8570 O.2   108  LEU108     -0.2715
     81  CB        28.5700   14.0550   10.3780 C.3   108  LEU108      0.0311
     82  CG        28.6450   12.8310    9.4460 C.3   108  LEU108      0.0022
     83  CD1       27.4830   12.8370    8.4580 C.3   108  LEU108      0.0001
     84  CD2       29.9810   12.8030    8.6990 C.3   108  LEU108      0.0001
     85  N         25.9570   12.2120   11.6350 N.am  109  MET109     -0.1963
     86  CA        25.6830   10.9650   12.3630 C.3   109  MET109      0.1736
     87  C         26.0580    9.7660   11.4840 C.2   109  MET109      0.2616
     88  O         25.2760    9.2870   10.6610 O.2   109  MET109     -0.2715
     89  CB        24.2150   10.9460   12.8120 C.3   109  MET109      0.0427
     90  CG        23.8560   12.1430   13.6910 C.3   109  MET109      0.0599
     91  SD        24.7110   12.1220   15.2770 S.3   109  MET109     -0.1393
     92  CE        23.7230   10.9050   16.1670 C.3   109  MET109      0.0692
     93  N         27.2810    9.2940   11.6720 N.am  110  ALA110     -0.1963
     94  CA        27.8980    8.3120   10.7650 C.3   110  ALA110      0.1728
     95  C         27.2250    6.9360   10.7990 C.2   110  ALA110      0.2617
     96  O         27.3540    6.1660    9.8650 O.2   110  ALA110     -0.2715
     97  CB        29.3870    8.1820   11.0890 C.3   110  ALA110      0.0334
     98  N         26.4890    6.6400   11.8650 N.am  111  GLY111     -0.1940
     99  CA        25.7400    5.3920   11.9660 C.3   111  GLY111      0.2014
    100  C         24.3980    5.3590   11.2350 C.2   111  GLY111      0.2639
    101  O         23.7570    4.3140   11.1720 O.2   111  GLY111     -0.2714
    102  N         23.9580    6.4940   10.7100 N.am  112  GLY112     -0.1939
    103  CA        22.6560    6.5960   10.0360 C.3   112  GLY112      0.2014
    104  C         21.4770    6.5400   10.9940 C.2   112  GLY112      0.2638
    105  O         21.6490    6.7030   12.2170 O.2   112  GLY112     -0.2714
    106  N         20.2820    6.2980   10.4450 N.am  113  ASP113     -0.1971
    107  CA        19.0750    6.2020   11.2600 C.3   113  ASP113      0.1709
    108  C         18.9910    4.8560   11.9660 C.2   113  ASP113      0.2293
    109  O         19.4700    3.8390   11.4840 O.2   113  ASP113     -0.2864
    110  CB        17.7780    6.4940   10.4690 C.3   113  ASP113      0.1436
    111  CG        17.3150    5.3190    9.6270 C.2   113  ASP113      0.3671
    112  OD1       17.8850    5.0980    8.5430 O.co2 113  ASP113     -0.2456
    113  OD2       16.3980    4.5980   10.0630 O.co2 113  ASP113     -0.2456
    114  N         17.1040    1.6470   10.1400 N.3   116  SER116     -0.1202
    115  CA        17.9490    0.9900    9.1520 C.3   116  SER116      0.2020
    116  C         19.1180    0.2770    9.8340 C.2   116  SER116      0.2618
    117  O         19.5310   -0.8000    9.4080 O.2   116  SER116     -0.2717
    118  CB        18.4990    2.0000    8.1450 C.3   116  SER116      0.2103
    119  OG        17.4560    2.6820    7.4770 O.3   116  SER116     -0.2182
    120  N         19.6580    0.8820   10.8860 N.am  117  PHE117     -0.1975
    121  CA        20.7490    0.2770   11.6230 C.3   117  PHE117      0.1639
    122  C         20.3300   -1.0700   12.2230 C.2   117  PHE117      0.2290
    123  O         21.0390   -2.0660   12.0850 O.2   117  PHE117     -0.2864
    124  CB        21.2390    1.2060   12.7520 C.3   117  PHE117      0.0560
    125  CG        22.2240    0.5530   13.6740 C.ar  117  PHE117     -0.0200
    126  CD1       23.5740    0.5200   13.3560 C.ar  117  PHE117     -0.0042
    127  CD2       21.8000   -0.0520   14.8400 C.ar  117  PHE117     -0.0042
    128  CE1       24.4860   -0.1030   14.1900 C.ar  117  PHE117     -0.0003
    129  CE2       22.7050   -0.6800   15.6870 C.ar  117  PHE117     -0.0003
    130  CZ        24.0540   -0.7040   15.3600 C.ar  117  PHE117     -0.0000
    131  N         19.8460   -3.7280    9.5390 N.3   120  GLU120     -0.1231
    132  CA        21.0810   -4.1530    8.8700 C.3   120  GLU120      0.1699
    133  C         22.0820   -4.8010    9.8190 C.2   120  GLU120      0.2592
    134  O         22.9820   -5.5030    9.3760 O.2   120  GLU120     -0.2718
    135  CB        21.7060   -2.9750    8.1410 C.3   120  GLU120      0.0402
    136  CG        20.7860   -2.4270    7.0610 C.3   120  GLU120      0.1161
    137  CD        21.3100   -1.1770    6.3740 C.2   120  GLU120      0.3649
    138  OE1       22.5250   -0.8870    6.4630 O.co2 120  GLU120     -0.2457
    139  OE2       20.4910   -0.4830    5.7320 O.co2 120  GLU120     -0.2457
    140  N         21.9130   -4.6010   11.1240 N.am  121  THR121     -0.1953
    141  CA        22.8770   -5.1080   12.1120 C.3   121  THR121      0.1897
    142  C         22.2740   -6.2170   12.9870 C.2   121  THR121      0.2313
    143  O         22.8620   -6.6140   13.9930 O.2   121  THR121     -0.2863
    144  CB        23.4080   -3.9560   12.9880 C.3   121  THR121      0.1794
    145  OG1       23.6260   -2.8030   12.1680 O.3   121  THR121     -0.2208
    146  CG2       24.7210   -4.3350   13.6770 C.3   121  THR121      0.0378
    147  N         12.8610    5.7380   12.9920 N.3   163  ARG163     -0.1231
    148  CA        13.2960    6.4430   11.7590 C.3   163  ARG163      0.1694
    149  C         13.8360    7.8560   12.0050 C.2   163  ARG163      0.2592
    150  O         14.5760    8.3810   11.1750 O.2   163  ARG163     -0.2718
    151  CB        12.1660    6.5000   10.7160 C.3   163  ARG163      0.0321
    152  CG        10.9800    7.3600   11.1170 C.3   163  ARG163      0.0489
    153  CD         9.7890    7.2540   10.1620 C.3   163  ARG163      0.2205
    154  NE         8.5830    7.1760   10.9820 N.pl3 163  ARG163     -0.0865
    155  CZ         7.9300    8.2180   11.4820 C.cat 163  ARG163      0.5346
    156  NH1        8.2990    9.4580   11.1850 N.pl3 163  ARG163      0.1354
    157  NH2        6.8800    8.0160   12.2680 N.pl3 163  ARG163      0.1354
    158  N         13.4470    8.4730   13.1200 N.am  164  ASN164     -0.1974
    159  CA        13.8490    9.8390   13.4650 C.3   164  ASN164      0.1688
    160  C         14.9950    9.9160   14.4580 C.2   164  ASN164      0.2292
    161  O         15.3380   11.0130   14.9080 O.2   164  ASN164     -0.2864
    162  CB        12.6530   10.6440   14.0150 C.3   164  ASN164      0.1181
    163  CG        11.5820   10.8710   12.9710 C.2   164  ASN164      0.2629
    164  OD1       11.8810   10.9630   11.7850 O.2   164  ASN164     -0.2716
    165  ND2       10.3240   10.9240   13.4000 N.am  164  ASN164     -0.0877
    166  N         19.0690    8.8410   15.2470 N.3   166  LEU166     -0.1245
    167  CA        20.3310    8.6450   14.5250 C.3   166  LEU166      0.1561
    168  C         21.4220    8.1620   15.4730 C.2   166  LEU166      0.2260
    169  O         21.3350    8.3560   16.7050 O.2   166  LEU166     -0.2867
    170  CB        20.7650    9.9490   13.8600 C.3   166  LEU166      0.0270
    171  CG        19.7970   10.5580   12.8440 C.3   166  LEU166      0.0019
    172  CD1       20.0470   12.0520   12.6780 C.3   166  LEU166      0.0001
    173  CD2       19.9180    9.8490   11.5000 C.3   166  LEU166      0.0001
    174  N         28.4170    3.3060   13.6180 N.3   170  PRO170     -0.2116
    175  CA        27.8140    1.9640   13.6720 C.3   170  PRO170      0.1372
    176  C         28.3960    1.0660   14.7640 C.2   170  PRO170      0.2244
    177  O         27.7110    0.1590   15.2530 O.2   170  PRO170     -0.2868
    178  CB        28.1050    1.3880   12.2810 C.3   170  PRO170      0.0268
    179  CG        29.2810    2.1450   11.7760 C.3   170  PRO170      0.0207
    180  CD        29.2020    3.5150   12.3860 C.3   170  PRO170      0.0892
    181  N         16.9280   13.1450   15.8110 N.3   179  GLY179     -0.1210
    182  CA        17.4730   13.7970   14.6130 C.3   179  GLY179      0.1956
    183  C         16.4520   14.4190   13.6750 C.2   179  GLY179      0.2611
    184  O         16.7920   14.8320   12.5680 O.2   179  GLY179     -0.2717
    185  N         15.1960   14.4820   14.0970 N.am  180  ASP180     -0.1973
    186  CA        14.1560   15.1050   13.2940 C.3   180  ASP180      0.1709
    187  C         13.0970   15.7340   14.1860 C.2   180  ASP180      0.2293
    188  O         12.6970   15.1470   15.1970 O.2   180  ASP180     -0.2864
    189  CB        13.4990   14.0820   12.3750 C.3   180  ASP180      0.1436
    190  CG        12.6200   14.7340   11.3360 C.2   180  ASP180      0.3671
    191  OD1       13.1520   15.1860   10.2770 O.co2 180  ASP180     -0.2456
    192  OD2       11.4040   14.7950   11.5910 O.co2 180  ASP180     -0.2456
@<TRIPOS>BOND
     1    21    19   ar
     2    21    22   ar
     3    19    18   ar
     4    22    20   ar
     5    18    17    1
     6    18    20   ar
     7    17    14    1
     8     1     2    1
     9    10     9    1
    10    10    11    1
    11     9     3   am
    12    11    13   am
    13    11    12    2
    14    13    14    1
    15    14    15    1
    16    32    33    1
    17    35    34    2
    18     2     3    1
    19     2     5    1
    20     3     4    2
    21    34    33    1
    22    33    36    1
    23    15    23   am
    24    15    16    2
    25    23    24    1
    26    26    25    2
    27     5     6    1
    28    46    47    2
    29    46    45    1
    30     6     8    1
    31     6     7    1
    32    30    29    2
    33    36    38    1
    34    36    37    1
    35    29    28    1
    36    25    24    1
    37    25    27   am
    38    45    44    1
    39    45    48    1
    40    27    28    1
    41    28    31    1
    42    48    49    1
    43   139   137   ar
    44   137   138   ar
    45   137   136    1
    46    49    50    1
    47   136   135    1
    48    41    40    1
    49    41    42    2
    50   119   118    1
    51    40    43    1
    52    40    39    1
    53    50    51    1
    54   135   132    1
    55   118   115    1
    56    83    82    1
    57   112   111   ar
    58    84    82    1
    59    51    52    1
    60   132   131    1
    61   132   133    1
    62   115   116    1
    63   115   114    1
    64   134   133    2
    65   117   116    2
    66    82    81    1
    67   111   113   ar
    68   111   110    1
    69   133   140   am
    70   116   120   am
    71    96    95    2
    72    66    65    1
    73   103   102    1
    74   103   104    1
    75   153   154    1
    76   153   152    1
    77    60    61    1
    78   191   190   ar
    79    81    78    1
    80   106   104   am
    81   106   107    1
    82   110   107    1
    83    88    87    2
    84   102   100   am
    85   151   152    1
    86   151   148    1
    87    94    95    1
    88    94    97    1
    89    94    93    1
    90    95    98   am
    91    65    64    1
    92    65    67    1
    93   120   121    1
    94    63    62    2
    95   154   155    2
    96   104   105    2
    97    78    79    1
    98    78    77    1
    99   140   141    1
   100   101   100    2
   101   150   149    2
   102    64    61    1
   103   156   155    1
   104   100    99    1
   105   107   108    1
   106   190   192   ar
   107   190   189    1
   108    61    62    1
   109   155   157    1
   110   109   108    2
   111    87    93   am
   112    87    86    1
   113   173   171    1
   114   121   122    1
   115   121   124    1
   116    85    79   am
   117    85    86    1
   118    62    68   am
   119   148   149    1
   120   148   147    1
   121   179   178    1
   122   179   180    1
   123   164   163    2
   124    98    99    1
   125    79    80    2
   126    77    70   am
   127   149   158   am
   128   123   122    2
   129   141   142    1
   130   141   144    1
   131   145   144    1
   132   178   175    1
   133    71    70    2
   134    86    89    1
   135   189   186    1
   136   180   174    1
   137    70    69    1
   138   184   183    2
   139   172   171    1
   140   124   125    1
   141    89    90    1
   142   171   170    1
   143   163   165   am
   144   163   162    1
   145   142   143    2
   146   144   146    1
   147    68    69    1
   148   158   159    1
   149   186   185    1
   150   186   187    1
   151   126   125   ar
   152   126   128   ar
   153    69    72    1
   154   159   162    1
   155   159   160    1
   156   174   175    1
   157   175   176    1
   158   125   127   ar
   159   183   185   am
   160   183   182    1
   161    90    91    1
   162   170   167    1
   163   187   188    2
   164   128   130   ar
   165   160   161    2
   166   167   166    1
   167   167   168    1
   168   182   181    1
   169   176   177    2
   170   127   129   ar
   171    72    73    1
   172    59    57    1
   173    91    92    1
   174   130   129   ar
   175    58    57    1
   176   168   169    2
   177    73    74    1
   178    57    54    1
   179    74    76   ar
   180    74    75   ar
   181    54    55    1
   182    54    53    1
   183    55    56    2
