@<TRIPOS>MOLECULE
tmp/4fofA00.pdb
 223 217 0 0 0
SMALL
GASTEIGER

@<TRIPOS>ATOM
      1  N         22.9530   47.7280   35.3200 N.3    31  ILE31      -0.1245
      2  CA        23.3510   47.6210   36.7180 C.3    31  ILE31       0.1561
      3  C         22.3020   46.9200   37.5710 C.2    31  ILE31       0.2260
      4  O         21.1230   46.8670   37.2140 O.2    31  ILE31      -0.2867
      5  CB        23.6170   49.0090   37.3360 C.3    31  ILE31       0.0252
      6  CG1       22.3490   49.8660   37.2850 C.3    31  ILE31       0.0019
      7  CG2       24.7670   49.7030   36.6250 C.3    31  ILE31       0.0019
      8  CD1       22.4830   51.2090   37.9750 C.3    31  ILE31       0.0001
      9  N         20.5930   47.5050   41.0680 N.3    33  TYR33      -0.1241
     10  CA        20.4100   48.6100   42.0020 C.3    33  TYR33       0.1605
     11  C         19.7300   48.1150   43.2760 C.2    33  TYR33       0.2264
     12  O         18.5070   48.0130   43.3290 O.2    33  TYR33      -0.2867
     13  CB        19.5730   49.6980   41.3290 C.3    33  TYR33       0.0534
     14  CG        19.4560   50.9950   42.0930 C.ar   33  TYR33      -0.0201
     15  CD1       18.2430   51.3930   42.6390 C.ar   33  TYR33      -0.0009
     16  CD2       20.5520   51.8330   42.2520 C.ar   33  TYR33      -0.0009
     17  CE1       18.1240   52.5840   43.3290 C.ar   33  TYR33       0.0417
     18  CE2       20.4430   53.0270   42.9430 C.ar   33  TYR33       0.0417
     19  CZ        19.2260   53.3970   43.4770 C.ar   33  TYR33       0.1957
     20  OH        19.1110   54.5820   44.1660 O.3    33  TYR33      -0.2866
     21  N         23.3990   55.8580   45.7120 N.3    60  ILE60      -0.1231
     22  CA        22.5240   56.9090   45.2070 C.3    60  ILE60       0.1692
     23  C         21.2650   57.0190   46.0610 C.2    60  ILE60       0.2592
     24  O         20.4390   56.1070   46.0860 O.2    60  ILE60      -0.2718
     25  CB        22.1290   56.6530   43.7400 C.3    60  ILE60       0.0266
     26  CG1       23.3670   56.2900   42.9150 C.3    60  ILE60       0.0019
     27  CG2       21.4150   57.8680   43.1610 C.3    60  ILE60       0.0020
     28  CD1       23.0640   55.8930   41.4920 C.3    60  ILE60       0.0001
     29  N         21.1290   58.1380   46.7640 N.am   61  GLU61      -0.1966
     30  CA        19.9790   58.3600   47.6300 C.3    61  GLU61       0.1733
     31  C         18.8390   59.0240   46.8660 C.2    61  GLU61       0.2616
     32  O         18.8490   60.2330   46.6400 O.2    61  GLU61      -0.2715
     33  CB        20.3740   59.2090   48.8410 C.3    61  GLU61       0.0429
     34  CG        21.4440   58.5730   49.7170 C.3    61  GLU61       0.1163
     35  CD        21.9300   59.4970   50.8160 C.2    61  GLU61       0.3649
     36  OE1       21.5170   60.6760   50.8310 O.co2  61  GLU61      -0.2457
     37  OE2       22.7270   59.0440   51.6660 O.co2  61  GLU61      -0.2457
     38  N         17.8610   58.2200   46.4650 N.am   62  ASP62      -0.1958
     39  CA        16.6850   58.7300   45.7740 C.3    62  ASP62       0.1825
     40  C         15.4370   58.3920   46.5810 C.2    62  ASP62       0.2464
     41  O         15.0860   57.2190   46.7310 O.2    62  ASP62      -0.2730
     42  CB        16.5880   58.1360   44.3690 C.3    62  ASP62       0.1450
     43  CG        15.6730   58.9340   43.4580 C.2    62  ASP62       0.3671
     44  OD1       15.8790   58.8900   42.2270 O.co2  62  ASP62      -0.2456
     45  OD2       14.7540   59.6080   43.9680 O.co2  62  ASP62      -0.2456
     46  N         14.7600   59.4240   47.1030 N.am   63  PRO63      -0.2715
     47  CA        13.6130   59.2350   47.9970 C.3    63  PRO63       0.1536
     48  C         12.3240   58.8510   47.2740 C.2    63  PRO63       0.2599
     49  O         11.3890   58.3980   47.9310 O.2    63  PRO63      -0.2715
     50  CB        13.4540   60.6130   48.6460 C.3    63  PRO63       0.0310
     51  CG        13.9590   61.5620   47.6140 C.3    63  PRO63       0.0237
     52  CD        15.0900   60.8490   46.9170 C.3    63  PRO63       0.0939
     53  N         12.2760   59.0210   45.9550 N.am   64  CYS64      -0.1954
     54  CA        11.0430   58.7820   45.2020 C.3    64  CYS64       0.1843
     55  C         10.5660   57.3400   45.3310 C.2    64  CYS64       0.2625
     56  O          9.3660   57.0660   45.2790 O.2    64  CYS64      -0.2714
     57  CB        11.2110   59.1530   43.7230 C.3    64  CYS64       0.0997
     58  SG        11.9050   57.8490   42.6600 S.3    64  CYS64      -0.0797
     59  N         11.5130   56.4250   45.5020 N.am   65  PHE65      -0.1974
     60  CA        11.1870   55.0160   45.6610 C.3    65  PHE65       0.1639
     61  C         10.3970   54.7740   46.9430 C.2    65  PHE65       0.2290
     62  O          9.2690   54.2800   46.8970 O.2    65  PHE65      -0.2864
     63  CB        12.4580   54.1640   45.6460 C.3    65  PHE65       0.0560
     64  CG        13.2590   54.2990   44.3820 C.ar   65  PHE65      -0.0200
     65  CD1       14.5200   54.8730   44.4020 C.ar   65  PHE65      -0.0042
     66  CD2       12.7470   53.8630   43.1710 C.ar   65  PHE65      -0.0042
     67  CE1       15.2580   55.0000   43.2380 C.ar   65  PHE65      -0.0003
     68  CE2       13.4800   53.9900   42.0030 C.ar   65  PHE65      -0.0003
     69  CZ        14.7370   54.5580   42.0390 C.ar   65  PHE65      -0.0000
     70  N          8.9480   56.8020   48.8010 N.3    67  GLU67      -0.1231
     71  CA         7.8160   57.7070   48.9490 C.3    67  GLU67       0.1699
     72  C          6.6540   57.3650   48.0240 C.2    67  GLU67       0.2592
     73  O          5.5020   57.6760   48.3280 O.2    67  GLU67      -0.2718
     74  CB         8.2540   59.1550   48.7180 C.3    67  GLU67       0.0402
     75  CG         9.1900   59.7010   49.7830 C.3    67  GLU67       0.1161
     76  CD         9.5540   61.1530   49.5460 C.2    67  GLU67       0.3649
     77  OE1        8.9660   61.7730   48.6350 O.co2  67  GLU67      -0.2457
     78  OE2       10.4290   61.6740   50.2700 O.co2  67  GLU67      -0.2457
     79  N          6.9530   56.7230   46.8990 N.am   68  HIS68      -0.1962
     80  CA         5.9370   56.5030   45.8750 C.3    68  HIS68       0.1787
     81  C          5.9070   55.0870   45.3060 C.2    68  HIS68       0.2620
     82  O          4.8400   54.4890   45.1740 O.2    68  HIS68      -0.2715
     83  CB         6.1320   57.4890   44.7170 C.3    68  HIS68       0.0785
     84  CG         6.1550   58.9270   45.1330 C.ar   68  HIS68       0.0821
     85  ND1        7.0940   59.8200   44.6640 N.ar   68  HIS68      -0.2267
     86  CD2        5.3470   59.6310   45.9620 C.ar   68  HIS68       0.1154
     87  CE1        6.8690   61.0100   45.1930 C.ar   68  HIS68       0.1986
     88  NE2        5.8150   60.9220   45.9840 N.ar   68  HIS68      -0.2212
     89  N          7.0750   54.5530   44.9680 N.am   69  TRP69      -0.1974
     90  CA         7.1340   53.4430   44.0200 C.3    69  TRP69       0.1640
     91  C          7.5110   52.0590   44.5570 C.2    69  TRP69       0.2290
     92  O          7.5160   51.0920   43.7950 O.2    69  TRP69      -0.2864
     93  CB         8.0610   53.8080   42.8580 C.3    69  TRP69       0.0576
     94  CG         7.7380   55.1250   42.2260 C.ar   69  TRP69       0.0006
     95  CD1        8.5290   56.2370   42.1990 C.ar   69  TRP69       0.0946
     96  CD2        6.5310   55.4740   41.5360 C.ar   69  TRP69       0.0152
     97  NE1        7.8920   57.2540   41.5290 N.ar   69  TRP69      -0.2442
     98  CE2        6.6650   56.8120   41.1130 C.ar   69  TRP69       0.0810
     99  CE3        5.3530   54.7840   41.2330 C.ar   69  TRP69       0.0012
    100  CZ2        5.6640   57.4740   40.4030 C.ar   69  TRP69       0.0191
    101  CZ3        4.3600   55.4440   40.5290 C.ar   69  TRP69       0.0001
    102  CH2        4.5220   56.7750   40.1220 C.ar   69  TRP69       0.0015
    103  N          6.5970   48.8390   42.2720 N.3    73  TYR73      -0.1241
    104  CA         7.6390   47.9680   41.7380 C.3    73  TYR73       0.1605
    105  C          7.5440   46.5700   42.3380 C.2    73  TYR73       0.2264
    106  O          7.8960   45.5830   41.6970 O.2    73  TYR73      -0.2867
    107  CB         9.0290   48.5630   41.9750 C.3    73  TYR73       0.0534
    108  CG         9.4110   49.6280   40.9720 C.ar   73  TYR73      -0.0201
    109  CD1        9.7340   49.2910   39.6640 C.ar   73  TYR73      -0.0009
    110  CD2        9.4530   50.9670   41.3330 C.ar   73  TYR73      -0.0009
    111  CE1       10.0800   50.2590   38.7410 C.ar   73  TYR73       0.0417
    112  CE2        9.8020   51.9430   40.4180 C.ar   73  TYR73       0.0417
    113  CZ        10.1140   51.5830   39.1240 C.ar   73  TYR73       0.1957
    114  OH        10.4620   52.5490   38.2090 O.3    73  TYR73      -0.2866
    115  N          5.8600   46.7180   38.4980 N.3    77  ARG77      -0.1245
    116  CA         5.8700   47.9080   37.6540 C.3    77  ARG77       0.1563
    117  C          7.1580   47.9970   36.8460 C.2    77  ARG77       0.2260
    118  O          8.2490   47.8020   37.3790 O.2    77  ARG77      -0.2867
    119  CB         5.7240   49.1650   38.5130 C.3    77  ARG77       0.0307
    120  CG         6.0550   50.4670   37.7980 C.3    77  ARG77       0.0489
    121  CD         6.1140   51.6210   38.7840 C.3    77  ARG77       0.2205
    122  NE         6.4760   52.8870   38.1540 N.pl3  77  ARG77      -0.0865
    123  CZ         5.5950   53.7740   37.7040 C.cat  77  ARG77       0.5346
    124  NH1        6.0120   54.9030   37.1450 N.pl3  77  ARG77       0.1354
    125  NH2        4.2950   53.5320   37.8120 N.pl3  77  ARG77       0.1354
    126  N          9.3240   50.5810   34.0710 N.3    79  GLN79      -0.1245
    127  CA         9.4050   51.9560   33.5960 C.3    79  GLN79       0.1566
    128  C         10.3880   52.0820   32.4390 C.2    79  GLN79       0.2260
    129  O         11.5980   51.9330   32.6180 O.2    79  GLN79      -0.2867
    130  CB         9.8050   52.8970   34.7360 C.3    79  GLN79       0.0367
    131  CG         9.7440   54.3800   34.3880 C.3    79  GLN79       0.0905
    132  CD         8.3290   54.9350   34.3890 C.2    79  GLN79       0.2608
    133  OE1        7.3510   54.1880   34.4400 O.2    79  GLN79      -0.2717
    134  NE2        8.2170   56.2580   34.3400 N.am   79  GLN79      -0.0878
    135  N         11.1390   64.9460   33.9720 N.3    89  LEU89      -0.1231
    136  CA        12.0210   64.7410   35.1160 C.3    89  LEU89       0.1693
    137  C         12.5910   66.0690   35.6080 C.2    89  LEU89       0.2592
    138  O         12.9630   66.9270   34.8070 O.2    89  LEU89      -0.2718
    139  CB        13.1570   63.7830   34.7510 C.3    89  LEU89       0.0284
    140  CG        12.7300   62.3640   34.3750 C.3    89  LEU89       0.0019
    141  CD1       13.9330   61.5130   33.9970 C.3    89  LEU89       0.0001
    142  CD2       11.9580   61.7300   35.5190 C.3    89  LEU89       0.0001
    143  N         12.6530   66.2370   36.9250 N.am   90  THR90      -0.1953
    144  CA        13.1860   67.4650   37.5060 C.3    90  THR90       0.1897
    145  C         14.7120   67.4770   37.4630 C.2    90  THR90       0.2313
    146  O         15.3400   66.4660   37.1470 O.2    90  THR90      -0.2863
    147  CB        12.7000   67.6760   38.9550 C.3    90  THR90       0.1794
    148  OG1       13.2150   66.6350   39.7930 O.3    90  THR90      -0.2208
    149  CG2       11.1780   67.6700   39.0140 C.3    90  THR90       0.0378
    150  N         16.9080   67.7410   39.9010 N.3    92  CYS92      -0.1221
    151  CA        17.5050   66.9080   40.9440 C.3    92  CYS92       0.1808
    152  C         17.6210   65.4590   40.4780 C.2    92  CYS92       0.2601
    153  O         18.5850   64.7660   40.8050 O.2    92  CYS92      -0.2717
    154  CB        16.6750   66.9910   42.2300 C.3    92  CYS92       0.0970
    155  SG        17.4210   66.2460   43.7080 S.3    92  CYS92      -0.0800
    156  N         16.6350   65.0110   39.7090 N.am   93  HIS93      -0.1975
    157  CA        16.6580   63.6740   39.1300 C.3    93  HIS93       0.1656
    158  C         17.7390   63.5850   38.0600 C.2    93  HIS93       0.2291
    159  O         18.4940   62.6140   38.0050 O.2    93  HIS93      -0.2864
    160  CB        15.2990   63.3390   38.5150 C.3    93  HIS93       0.0771
    161  CG        15.1920   61.9340   38.0070 C.ar   93  HIS93       0.0820
    162  ND1       14.4100   60.9790   38.6210 N.ar   93  HIS93      -0.2267
    163  CD2       15.7660   61.3230   36.9440 C.ar   93  HIS93       0.1154
    164  CE1       14.5070   59.8410   37.9580 C.ar   93  HIS93       0.1986
    165  NE2       15.3250   60.0220   36.9370 N.ar   93  HIS93      -0.2212
    166  N         21.6090   63.2530   38.9070 N.3    96  GLN96      -0.1231
    167  CA        22.0770   61.9250   39.2810 C.3    96  GLN96       0.1698
    168  C         22.4720   61.1300   38.0420 C.2    96  GLN96       0.2592
    169  O         23.3190   60.2390   38.1070 O.2    96  GLN96      -0.2718
    170  CB        20.9830   61.1690   40.0360 C.3    96  GLN96       0.0381
    171  CG        20.5190   61.8350   41.3200 C.3    96  GLN96       0.0905
    172  CD        19.3290   61.1270   41.9390 C.2    96  GLN96       0.2608
    173  OE1       18.3450   60.8330   41.2590 O.2    96  GLN96      -0.2717
    174  NE2       19.4160   60.8420   43.2340 N.am   96  GLN96      -0.0878
    175  N         21.8540   61.4640   36.9140 N.am   97  LEU97      -0.1980
    176  CA        22.0030   60.6820   35.6920 C.3    97  LEU97       0.1596
    177  C         23.0640   61.2300   34.7380 C.2    97  LEU97       0.2287
    178  O         23.7200   60.4650   34.0300 O.2    97  LEU97      -0.2864
    179  CB        20.6560   60.5660   34.9740 C.3    97  LEU97       0.0297
    180  CG        19.5500   59.8670   35.7680 C.3    97  LEU97       0.0022
    181  CD1       18.2860   59.7280   34.9350 C.3    97  LEU97       0.0001
    182  CD2       20.0250   58.5090   36.2570 C.3    97  LEU97       0.0001
    183  N         26.5810   59.8670   34.5400 N.3   100  LEU100     -0.1245
    184  CA        26.5760   58.5450   33.9240 C.3   100  LEU100      0.1561
    185  C         26.2150   58.6390   32.4430 C.2   100  LEU100      0.2260
    186  O         26.1140   57.6230   31.7540 O.2   100  LEU100     -0.2867
    187  CB        25.6110   57.6140   34.6600 C.3   100  LEU100      0.0270
    188  CG        25.9140   57.4100   36.1480 C.3   100  LEU100      0.0019
    189  CD1       24.8500   56.5480   36.8120 C.3   100  LEU100      0.0001
    190  CD2       27.2940   56.8010   36.3370 C.3   100  LEU100      0.0001
    191  N         16.5500   55.0370   29.7090 N.3   105  ASN105     -0.1240
    192  CA        16.6500   53.9170   30.6380 C.3   105  ASN105      0.1653
    193  C         15.4420   52.9850   30.6720 C.2   105  ASN105      0.2266
    194  O         14.3360   53.3520   30.2720 O.2   105  ASN105     -0.2867
    195  CB        17.0140   54.3970   32.0510 C.3   105  ASN105      0.1155
    196  CG        16.0520   55.4430   32.5880 C.2   105  ASN105      0.2627
    197  OD1       14.9120   55.5520   32.1370 O.2   105  ASN105     -0.2716
    198  ND2       16.5130   56.2170   33.5630 N.am  105  ASN105     -0.0877
    199  N         13.7130   50.3560   33.5190 N.3   107  VAL107     -0.1245
    200  CA        13.7420   49.9080   34.9030 C.3   107  VAL107      0.1561
    201  C         12.7960   48.7330   35.1290 C.2   107  VAL107      0.2260
    202  O         11.5930   48.8350   34.8830 O.2   107  VAL107     -0.2867
    203  CB        13.3660   51.0500   35.8650 C.3   107  VAL107      0.0252
    204  CG1       13.4590   50.5810   37.3060 C.3   107  VAL107      0.0019
    205  CG2       14.2630   52.2560   35.6350 C.3   107  VAL107      0.0019
    206  N         18.4780   47.8950   36.1000 N.3   121  ILE121     -0.1245
    207  CA        18.3590   49.0870   35.2680 C.3   121  ILE121      0.1561
    208  C         19.3290   49.0730   34.0910 C.2   121  ILE121      0.2260
    209  O         20.5120   48.7700   34.2520 O.2   121  ILE121     -0.2867
    210  CB        18.5860   50.3640   36.1000 C.3   121  ILE121      0.0252
    211  CG1       17.7010   50.3460   37.3480 C.3   121  ILE121      0.0019
    212  CG2       18.3200   51.6020   35.2670 C.3   121  ILE121      0.0019
    213  CD1       17.8820   51.5450   38.2500 C.3   121  ILE121      0.0001
    214  N         20.8930   51.3310   30.7310 N.3   123  HIS123     -0.1241
    215  CA        21.0960   52.6890   30.2410 C.3   123  HIS123      0.1621
    216  C         21.5340   52.7120   28.7800 C.2   123  HIS123      0.2264
    217  O         22.3770   51.9170   28.3600 O.2   123  HIS123     -0.2867
    218  CB        22.1480   53.4170   31.0840 C.3   123  HIS123      0.0745
    219  CG        21.6890   53.7620   32.4670 C.ar  123  HIS123      0.0817
    220  ND1       22.5670   54.0830   33.4800 N.ar  123  HIS123     -0.2268
    221  CD2       20.4490   53.8470   33.0030 C.ar  123  HIS123      0.1154
    222  CE1       21.8870   54.3450   34.5820 C.ar  123  HIS123      0.1986
    223  NE2       20.5990   54.2090   34.3200 N.ar  123  HIS123     -0.2212
@<TRIPOS>BOND
     1   217   216    2
     2   216   215    1
     3   191   192    1
     4   215   214    1
     5   215   218    1
     6   194   193    2
     7   192   193    1
     8   192   195    1
     9   218   219    1
    10   186   185    2
    11   195   196    1
    12   197   196    2
    13   128   129    2
    14   128   127    1
    15   185   184    1
    16   219   221   ar
    17   219   220   ar
    18   196   198   am
    19   221   223   ar
    20   220   222   ar
    21   199   200    1
    22   127   126    1
    23   127   130    1
    24   184   183    1
    25   184   187    1
    26   135   136    1
    27   141   140    1
    28   178   177    2
    29   208   209    2
    30   208   207    1
    31   223   222   ar
    32   134   132   am
    33   140   139    1
    34   140   142    1
    35   131   132    1
    36   131   130    1
    37   132   133    2
    38   187   188    1
    39   177   176    1
    40   139   136    1
    41   138   137    2
    42   202   201    2
    43   200   201    1
    44   200   203    1
    45   181   180    1
    46   179   176    1
    47   179   180    1
    48   136   137    1
    49   212   210    1
    50   207   206    1
    51   207   210    1
    52     1     2    1
    53   137   143   am
    54   205   203    1
    55   176   175    1
    56   180   182    1
    57   203   204    1
    58   210   211    1
    59   188   190    1
    60   188   189    1
    61     7     5    1
    62     2     5    1
    63     2     3    1
    64   117   118    2
    65   117   116    1
    66   175   168   am
    67   143   144    1
    68   165   163   ar
    69   165   164   ar
    70   163   161   ar
    71   124   123    1
    72   146   145    2
    73     4     3    2
    74     6     5    1
    75     6     8    1
    76   211   213    1
    77   145   144    1
    78   144   147    1
    79   116   115    1
    80   116   119    1
    81   123   125    1
    82   123   122    2
    83   120   119    1
    84   120   121    1
    85   164   162   ar
    86   159   158    2
    87   161   160    1
    88   161   162   ar
    89   168   169    2
    90   168   167    1
    91   158   157    1
    92   122   121    1
    93   114   113    1
    94   160   157    1
    95   111   113   ar
    96   111   109   ar
    97   166   167    1
    98   147   149    1
    99   147   148    1
   100   113   112   ar
   101   157   156    1
   102   167   170    1
   103   109   108   ar
   104   156   152   am
   105   150   151    1
   106   170   171    1
   107   102   100   ar
   108   102   101   ar
   109   100    98   ar
   110   112   110   ar
   111   152   153    2
   112   152   151    1
   113   101    99   ar
   114   151   154    1
   115   108   110   ar
   116   108   107    1
   117     9    10    1
   118    98    97   ar
   119    98    96   ar
   120    99    96   ar
   121   173   172    2
   122   171   172    1
   123    13    10    1
   124    13    14    1
   125    28    26    1
   126    97    95   ar
   127    96    94   ar
   128   106   105    2
   129   104   107    1
   130   104   103    1
   131   104   105    1
   132   172   174   am
   133    10    11    1
   134    68    69   ar
   135    68    66   ar
   136    69    67   ar
   137    14    16   ar
   138    14    15   ar
   139    95    94   ar
   140    94    93    1
   141    44    43   ar
   142   154   155    1
   143    16    18   ar
   144    15    17   ar
   145    58    57    1
   146    93    90    1
   147    26    25    1
   148    18    19   ar
   149    27    25    1
   150    66    64   ar
   151    67    65   ar
   152    11    12    2
   153    17    19   ar
   154    43    45   ar
   155    43    42    1
   156    19    20    1
   157    57    54    1
   158    25    22    1
   159    92    91    2
   160    90    91    1
   161    90    89    1
   162    42    39    1
   163    64    65   ar
   164    64    63    1
   165    85    84   ar
   166    85    87   ar
   167    83    84    1
   168    83    80    1
   169    89    81   am
   170    84    86   ar
   171    82    81    2
   172    87    88   ar
   173    54    55    1
   174    54    53    1
   175    22    21    1
   176    22    23    1
   177    56    55    2
   178    81    80    1
   179    55    59   am
   180    59    60    1
   181    63    60    1
   182    60    61    1
   183    39    38    1
   184    39    40    1
   185    80    79    1
   186    53    48   am
   187    86    88   ar
   188    23    24    2
   189    23    29   am
   190    38    31   am
   191    40    41    2
   192    40    46   am
   193    32    31    2
   194    29    30    1
   195    31    30    1
   196    62    61    2
   197    79    72   am
   198    52    46    1
   199    52    51    1
   200    46    47    1
   201    48    49    2
   202    48    47    1
   203    51    50    1
   204    30    33    1
   205    47    50    1
   206    72    73    2
   207    72    71    1
   208    77    76   ar
   209    74    71    1
   210    74    75    1
   211    70    71    1
   212    33    34    1
   213    76    75    1
   214    76    78   ar
   215    34    35    1
   216    35    36   ar
   217    35    37   ar
