@<TRIPOS>MOLECULE
tmp/4fofA01.pdb
 72 66 0 0 0
SMALL
GASTEIGER

@<TRIPOS>ATOM
      1  N         27.6480   36.3790   41.9760 N.3    12  ALA12      -0.1231
      2  CA        27.7910   35.6670   40.7100 C.3    12  ALA12       0.1694
      3  C         26.5110   35.7760   39.8910 C.2    12  ALA12       0.2591
      4  O         26.5500   35.8590   38.6630 O.2    12  ALA12      -0.2718
      5  CB        28.1440   34.2080   40.9560 C.3    12  ALA12       0.0304
      6  N         25.3760   35.7820   40.5820 N.am   13  ILE13      -0.1980
      7  CA        24.0780   35.9220   39.9340 C.3    13  ILE13       0.1595
      8  C         23.8530   37.3510   39.4450 C.2    13  ILE13       0.2287
      9  O         23.3780   37.5600   38.3280 O.2    13  ILE13      -0.2864
     10  CB        22.9370   35.4720   40.8680 C.3    13  ILE13       0.0276
     11  CG1       22.9150   33.9440   40.9530 C.3    13  ILE13       0.0022
     12  CG2       21.5940   35.9930   40.3790 C.3    13  ILE13       0.0022
     13  CD1       22.0010   33.3960   42.0200 C.3    13  ILE13       0.0001
     14  N         25.8160   37.9510   36.3410 N.3    16  THR16      -0.1203
     15  CA        25.1950   37.3010   35.1960 C.3    16  THR16       0.1994
     16  C         24.0450   38.1510   34.6660 C.2    16  THR16       0.2617
     17  O         23.8830   38.3040   33.4570 O.2    16  THR16      -0.2717
     18  CB        24.6760   35.8980   35.5620 C.3    16  THR16       0.1784
     19  OG1       25.7670   35.0860   36.0090 O.3    16  THR16      -0.2211
     20  CG2       24.0250   35.2350   34.3590 C.3    16  THR16       0.0376
     21  N         23.2570   38.7110   35.5810 N.am   17  LEU17      -0.1979
     22  CA        22.1290   39.5570   35.2100 C.3    17  LEU17       0.1596
     23  C         22.5760   40.7720   34.4050 C.2    17  LEU17       0.2287
     24  O         21.9810   41.0950   33.3770 O.2    17  LEU17      -0.2864
     25  CB        21.3580   40.0150   36.4490 C.3    17  LEU17       0.0297
     26  CG        20.6830   38.9330   37.2950 C.3    17  LEU17       0.0022
     27  CD1       19.9650   39.5570   38.4830 C.3    17  LEU17       0.0001
     28  CD2       19.7230   38.1040   36.4570 C.3    17  LEU17       0.0001
     29  N         11.8130   40.2240   27.8070 N.3   138  GLN138     -0.1245
     30  CA        12.9820   39.3920   28.0790 C.3   138  GLN138      0.1566
     31  C         13.8300   39.9600   29.2150 C.2   138  GLN138      0.2260
     32  O         14.3840   39.2130   30.0210 O.2   138  GLN138     -0.2867
     33  CB        13.8300   39.2280   26.8150 C.3   138  GLN138      0.0367
     34  CG        15.1120   38.4310   27.0200 C.3   138  GLN138      0.0905
     35  CD        14.8530   36.9910   27.4260 C.2   138  GLN138      0.2608
     36  OE1       14.6640   36.1210   26.5780 O.2   138  GLN138     -0.2717
     37  NE2       14.8510   36.7320   28.7290 N.am  138  GLN138     -0.0878
     38  N         11.9790   39.3010   32.4560 N.3   141  GLU141     -0.1231
     39  CA        12.0980   37.8920   32.8000 C.3   141  GLU141      0.1699
     40  C         13.5060   37.5770   33.2900 C.2   141  GLU141      0.2592
     41  O         13.6980   36.6850   34.1110 O.2   141  GLU141     -0.2718
     42  CB        11.7330   37.0000   31.6150 C.3   141  GLU141      0.0402
     43  CG        11.5510   35.5350   31.9920 C.3   141  GLU141      0.1161
     44  CD        11.2100   34.6640   30.8040 C.2   141  GLU141      0.3649
     45  OE1       10.0240   34.3030   30.6500 O.co2 141  GLU141     -0.2457
     46  OE2       12.1320   34.3350   30.0290 O.co2 141  GLU141     -0.2457
     47  N         14.4890   38.3160   32.7850 N.am  142  LEU142     -0.1980
     48  CA        15.8650   38.1640   33.2430 C.3   142  LEU142      0.1596
     49  C         15.9780   38.5710   34.7090 C.2   142  LEU142      0.2287
     50  O         16.6310   37.8950   35.5050 O.2   142  LEU142     -0.2864
     51  CB        16.8090   39.0120   32.3910 C.3   142  LEU142      0.0297
     52  CG        18.2960   38.9810   32.7540 C.3   142  LEU142      0.0022
     53  CD1       18.8340   37.5600   32.7280 C.3   142  LEU142      0.0001
     54  CD2       19.0860   39.8640   31.8050 C.3   142  LEU142      0.0001
     55  N         13.6130   36.1120   37.0040 N.3   145  THR145     -0.1203
     56  CA        14.1690   34.7660   37.1010 C.3   145  THR145      0.1994
     57  C         15.3730   34.7540   38.0360 C.2   145  THR145      0.2618
     58  O         15.5100   33.8620   38.8700 O.2   145  THR145     -0.2717
     59  CB        14.5790   34.2070   35.7270 C.3   145  THR145      0.1784
     60  OG1       13.4410   34.1970   34.8560 O.3   145  THR145     -0.2211
     61  CG2       15.1170   32.7900   35.8620 C.3   145  THR145      0.0376
     62  N         16.2390   35.7520   37.8960 N.am  146  GLY146     -0.1956
     63  CA        17.3790   35.8930   38.7830 C.3   146  GLY146      0.1869
     64  C         16.9300   36.0680   40.2210 C.2   146  GLY146      0.2309
     65  O         17.5360   35.5270   41.1450 O.2   146  GLY146     -0.2863
     66  N         15.6120   32.7350   41.6460 N.3   149  VAL149     -0.1245
     67  CA        16.7420   31.8750   41.9740 C.3   149  VAL149      0.1561
     68  C         17.3240   32.2490   43.3300 C.2   149  VAL149      0.2260
     69  O         17.5400   31.3870   44.1830 O.2   149  VAL149     -0.2867
     70  CB        17.8440   31.9680   40.9060 C.3   149  VAL149      0.0252
     71  CG1       19.1000   31.2460   41.3680 C.3   149  VAL149      0.0019
     72  CG2       17.3520   31.3950   39.5960 C.3   149  VAL149      0.0019
@<TRIPOS>BOND
     1    36    35    2
     2    33    34    1
     3    33    30    1
     4    34    35    1
     5    35    37   am
     6    29    30    1
     7    30    31    1
     8    31    32    2
     9    46    44   ar
    10    45    44   ar
    11    44    43    1
    12    42    43    1
    13    42    39    1
    14    54    52    1
    15    51    52    1
    16    51    48    1
    17    38    39    1
    18    53    52    1
    19    47    48    1
    20    47    40   am
    21    39    40    1
    22    48    49    1
    23    40    41    2
    24    24    23    2
    25    17    16    2
    26    20    18    1
    27    23    22    1
    28    16    15    1
    29    16    21   am
    30    49    50    2
    31    60    59    1
    32    15    18    1
    33    15    14    1
    34    22    21    1
    35    22    25    1
    36    18    19    1
    37    59    61    1
    38    59    56    1
    39    25    26    1
    40    28    26    1
    41    55    56    1
    42    56    57    1
    43    26    27    1
    44    62    57   am
    45    62    63    1
    46    57    58    2
    47     9     8    2
    48     4     3    2
    49    63    64    1
    50     8     7    1
    51    72    70    1
    52     3     6   am
    53     3     2    1
    54     7     6    1
    55     7    10    1
    56    64    65    2
    57    12    10    1
    58     2     5    1
    59     2     1    1
    60    10    11    1
    61    70    71    1
    62    70    67    1
    63    11    13    1
    64    66    67    1
    65    67    68    1
    66    68    69    2
