@<TRIPOS>MOLECULE
tmp/4fogA01.pdb
 220 218 0 0 0
SMALL
GASTEIGER

@<TRIPOS>ATOM
      1  N         10.7750    3.9930    4.4930 N.3    48  LYS48      -0.1231
      2  CA        10.5480    5.3950    4.7800 C.3    48  LYS48       0.1693
      3  C         11.8800    5.9240    5.2510 C.2    48  LYS48       0.2592
      4  O         12.6010    5.2320    5.9540 O.2    48  LYS48      -0.2718
      5  CB         9.4870    5.5530    5.8720 C.3    48  LYS48       0.0285
      6  CG         9.7670    6.6610    6.8750 C.3    48  LYS48       0.0035
      7  CD         9.0060    6.3950    8.1580 C.3    48  LYS48       0.0206
      8  CE         9.2610    7.4620    9.2110 C.3    48  LYS48       0.1093
      9  NZ         8.7810    7.0120   10.5520 N.3    48  LYS48      -0.1314
     10  N         12.2200    7.1400    4.8500 N.am   49  LYS49      -0.1966
     11  CA        13.5080    7.7040    5.2120 C.3    49  LYS49       0.1728
     12  C         13.4660    8.0880    6.6830 C.2    49  LYS49       0.2616
     13  O         12.6430    8.9030    7.0910 O.2    49  LYS49      -0.2715
     14  CB        13.8380    8.9160    4.3270 C.3    49  LYS49       0.0311
     15  CG        15.3080    9.3620    4.3200 C.3    49  LYS49       0.0038
     16  CD        15.4710   10.6110    3.4420 C.3    49  LYS49       0.0206
     17  CE        16.8570   11.2410    3.5450 C.3    49  LYS49       0.1093
     18  NZ        17.9010   10.5080    2.7640 N.3    49  LYS49      -0.1314
     19  N         14.3510    7.4820    7.4710 N.am   50  VAL50      -0.1963
     20  CA        14.4630    7.7630    8.8980 C.3    50  VAL50       0.1727
     21  C         15.5720    8.7510    9.1690 C.2    50  VAL50       0.2616
     22  O         16.6460    8.6490    8.5920 O.2    50  VAL50      -0.2715
     23  CB        14.7980    6.4940    9.6670 C.3    50  VAL50       0.0290
     24  CG1       14.9920    6.8050   11.1570 C.3    50  VAL50       0.0023
     25  CG2       13.7240    5.4390    9.4290 C.3    50  VAL50       0.0023
     26  N         15.3370    9.6910   10.0740 N.am   51  HIS51      -0.1973
     27  CA        16.3300   10.7270   10.3220 C.3    51  HIS51       0.1656
     28  C         17.4910   10.2630   11.2080 C.2    51  HIS51       0.2291
     29  O         17.5660   10.6030   12.3960 O.2    51  HIS51      -0.2864
     30  CB        15.6870   11.9870   10.8950 C.3    51  HIS51       0.0771
     31  CG        16.5770   13.1810   10.8150 C.ar   51  HIS51       0.0820
     32  ND1       16.8550   13.9800   11.9020 N.ar   51  HIS51      -0.2267
     33  CD2       17.2900   13.6880    9.7810 C.ar   51  HIS51       0.1154
     34  CE1       17.6870   14.9410   11.5370 C.ar   51  HIS51       0.1986
     35  NE2       17.9630   14.7890   10.2530 N.ar   51  HIS51      -0.2212
     36  N         19.4390   12.5090   13.8100 N.3    54  SER54      -0.1217
     37  CA        18.7970   12.6830   15.1070 C.3    54  SER54       0.1889
     38  C         18.9920   11.4710   16.0210 C.2    54  SER54       0.2288
     39  O         19.2350   11.6230   17.2230 O.2    54  SER54      -0.2866
     40  CB        17.3120   12.9880   14.9300 C.3    54  SER54       0.2089
     41  OG        17.1460   14.3150   14.4660 O.3    54  SER54      -0.2183
     42  N         21.2440   11.7320   19.5070 N.3    58  GLU58      -0.1245
     43  CA        20.4910   11.4300   20.7260 C.3    58  GLU58       0.1567
     44  C         21.1870   10.3620   21.5850 C.2    58  GLU58       0.2260
     45  O         21.3260   10.5180   22.7970 O.2    58  GLU58      -0.2867
     46  CB        19.0530   11.0050   20.4150 C.3    58  GLU58       0.0388
     47  CG        18.2570   10.6330   21.6790 C.3    58  GLU58       0.1160
     48  CD        16.9080    9.9810   21.3770 C.2    58  GLU58       0.3649
     49  OE1       16.8790    9.0420   20.5480 O.co2  58  GLU58      -0.2457
     50  OE2       15.8770   10.4120   21.9580 O.co2  58  GLU58      -0.2457
     51  N         16.0910   18.5900   17.7730 N.3    78  THR78      -0.1203
     52  CA        15.0060   19.2370   18.4980 C.3    78  THR78       0.1994
     53  C         13.9090   18.2930   18.9400 C.2    78  THR78       0.2618
     54  O         12.8720   18.7390   19.4100 O.2    78  THR78      -0.2717
     55  CB        14.3600   20.3570   17.6560 C.3    78  THR78       0.1784
     56  OG1       13.9010   19.8230   16.4080 O.3    78  THR78      -0.2211
     57  CG2       15.3660   21.4540   17.3810 C.3    78  THR78       0.0376
     58  N         14.1390   16.9950   18.7950 N.am   79  ILE79      -0.1965
     59  CA        13.1070   16.0050   19.0910 C.3    79  ILE79       0.1727
     60  C         12.6710   16.0390   20.5470 C.2    79  ILE79       0.2616
     61  O         11.5940   15.5610   20.8780 O.2    79  ILE79      -0.2715
     62  CB        13.5380   14.5590   18.7130 C.3    79  ILE79       0.0290
     63  CG1       14.8920   14.2120   19.3360 C.3    79  ILE79       0.0022
     64  CG2       13.5890   14.3930   17.2100 C.3    79  ILE79       0.0023
     65  CD1       15.2770   12.7420   19.1830 C.3    79  ILE79       0.0001
     66  N         13.5060   16.6050   21.4110 N.am   80  TRP80      -0.1974
     67  CA        13.1840   16.6850   22.8350 C.3    80  TRP80       0.1640
     68  C         12.6230   18.0380   23.3010 C.2    80  TRP80       0.2290
     69  O         12.1820   18.1620   24.4470 O.2    80  TRP80      -0.2864
     70  CB        14.3850   16.2660   23.6920 C.3    80  TRP80       0.0576
     71  CG        14.4690   14.7750   23.8650 C.ar   80  TRP80       0.0006
     72  CD1       15.2620   13.9100   23.1660 C.ar   80  TRP80       0.0946
     73  CD2       13.7080   13.9690   24.7810 C.ar   80  TRP80       0.0152
     74  NE1       15.0430   12.6230   23.5860 N.ar   80  TRP80      -0.2442
     75  CE2       14.1000   12.6300   24.5810 C.ar   80  TRP80       0.0810
     76  CE3       12.7370   14.2510   25.7490 C.ar   80  TRP80       0.0012
     77  CZ2       13.5560   11.5710   25.3170 C.ar   80  TRP80       0.0191
     78  CZ3       12.1930   13.1910   26.4800 C.ar   80  TRP80       0.0001
     79  CH2       12.6050   11.8750   26.2580 C.ar   80  TRP80       0.0015
     80  N          9.2920   18.8870   25.7380 N.3    83  TRP83      -0.1241
     81  CA         9.1240   18.5290   27.1480 C.3    83  TRP83       0.1605
     82  C         10.1610   19.2080   28.0180 C.2    83  TRP83       0.2264
     83  O         10.2300   18.9520   29.2180 O.2    83  TRP83      -0.2867
     84  CB         9.2170   17.0140   27.3540 C.3    83  TRP83       0.0550
     85  CG         8.1680   16.2550   26.6310 C.ar   83  TRP83       0.0003
     86  CD1        6.9520   15.8640   27.1150 C.ar   83  TRP83       0.0946
     87  CD2        8.2280   15.7950   25.2790 C.ar   83  TRP83       0.0152
     88  NE1        6.2530   15.1900   26.1480 N.ar   83  TRP83      -0.2442
     89  CE2        7.0140   15.1360   25.0090 C.ar   83  TRP83       0.0810
     90  CE3        9.1890   15.8820   24.2690 C.ar   83  TRP83       0.0012
     91  CZ2        6.7330   14.5710   23.7730 C.ar   83  TRP83       0.0191
     92  CZ3        8.9090   15.3160   23.0410 C.ar   83  TRP83       0.0001
     93  CH2        7.6910   14.6690   22.8030 C.ar   83  TRP83       0.0015
     94  N         16.8780    8.9640   30.8100 N.3    94  TYR94      -0.1241
     95  CA        17.7830    7.9570   30.2520 C.3    94  TYR94       0.1605
     96  C         19.2590    8.1250   30.6230 C.2    94  TYR94       0.2264
     97  O         19.7690    7.4160   31.4890 O.2    94  TYR94      -0.2867
     98  CB        17.6380    7.9080   28.7250 C.3    94  TYR94       0.0534
     99  CG        16.2220    7.6850   28.2550 C.ar   94  TYR94      -0.0201
    100  CD1       15.6430    6.4130   28.2810 C.ar   94  TYR94      -0.0009
    101  CD2       15.4580    8.7450   27.7800 C.ar   94  TYR94      -0.0009
    102  CE1       14.3330    6.2120   27.8530 C.ar   94  TYR94       0.0417
    103  CE2       14.1460    8.5500   27.3370 C.ar   94  TYR94       0.0417
    104  CZ        13.5920    7.2810   27.3750 C.ar   94  TYR94       0.1957
    105  OH        12.2970    7.0960   26.9350 O.3    94  TYR94      -0.2866
    106  N          9.2910   12.8420   31.7820 N.3   143  LEU143     -0.1245
    107  CA         8.6140   11.7130   31.1540 C.3   143  LEU143      0.1561
    108  C          9.2520   10.4020   31.6130 C.2   143  LEU143      0.2260
    109  O         10.4690   10.2710   31.5940 O.2   143  LEU143     -0.2867
    110  CB         8.7370   11.8550   29.6330 C.3   143  LEU143      0.0270
    111  CG         7.4950   11.6320   28.7810 C.3   143  LEU143      0.0019
    112  CD1        7.6240   12.3630   27.4600 C.3   143  LEU143      0.0001
    113  CD2        7.3000   10.1500   28.5610 C.3   143  LEU143      0.0001
    114  N         10.5440    5.2340   28.3070 N.3   146  CYS146     -0.1221
    115  CA         9.7630    4.4040   27.4090 C.3   146  CYS146      0.1808
    116  C         10.5050    3.1120   27.0820 C.2   146  CYS146      0.2601
    117  O         10.0170    2.0120   27.3620 O.2   146  CYS146     -0.2717
    118  CB         9.4480    5.1650   26.1350 C.3   146  CYS146      0.0970
    119  SG         7.8560    4.7490   25.5040 S.3   146  CYS146     -0.0800
    120  N         11.6890    3.2460   26.4810 N.am  147  HIS147     -0.1975
    121  CA        12.5720    2.0950   26.3430 C.3   147  HIS147      0.1656
    122  C         13.2960    1.9990   27.6780 C.2   147  HIS147      0.2291
    123  O         14.2800    2.6830   27.9090 O.2   147  HIS147     -0.2864
    124  CB        13.5370    2.2270   25.1510 C.3   147  HIS147      0.0771
    125  CG        14.3680    3.4740   25.1570 C.ar  147  HIS147      0.0820
    126  ND1       13.9570    4.6490   24.5600 N.ar  147  HIS147     -0.2267
    127  CD2       15.6030    3.7210   25.6560 C.ar  147  HIS147      0.1154
    128  CE1       14.8930    5.5700   24.7130 C.ar  147  HIS147      0.1986
    129  NE2       15.9030    5.0340   25.3750 N.ar  147  HIS147     -0.2212
    130  N          5.1920    3.9280   20.3150 N.3   169  ASP169     -0.1239
    131  CA         4.5970    4.6770   19.2090 C.3   169  ASP169      0.1674
    132  C          5.0890    4.0720   17.8970 C.2   169  ASP169      0.2266
    133  O          6.0780    4.5250   17.3290 O.2   169  ASP169     -0.2867
    134  CB         5.0380    6.1410   19.3270 C.3   169  ASP169      0.1410
    135  CG         4.4400    7.0390   18.2550 C.2   169  ASP169      0.3668
    136  OD1        3.7860    6.5320   17.3100 O.co2 169  ASP169     -0.2456
    137  OD2        4.6490    8.2680   18.3680 O.co2 169  ASP169     -0.2456
    138  N          4.7190    3.9340   14.6500 N.3   171  PHE171     -0.1227
    139  CA         5.0730    4.6030   13.4020 C.3   171  PHE171      0.1736
    140  C          6.1780    5.6660   13.5190 C.2   171  PHE171      0.2595
    141  O          7.0680    5.7320   12.6660 O.2   171  PHE171     -0.2718
    142  CB         3.8330    5.1890   12.7220 C.3   171  PHE171      0.0547
    143  CG         4.1620    6.1380   11.6230 C.ar  171  PHE171     -0.0202
    144  CD1        4.2540    5.6920   10.3180 C.ar  171  PHE171     -0.0042
    145  CD2        4.4140    7.4740   11.9010 C.ar  171  PHE171     -0.0042
    146  CE1        4.5760    6.5630    9.3040 C.ar  171  PHE171     -0.0003
    147  CE2        4.7350    8.3450   10.8960 C.ar  171  PHE171     -0.0003
    148  CZ         4.8200    7.8920    9.5910 C.ar  171  PHE171     -0.0000
    149  N          6.1140    6.4980   14.5550 N.am  172  LEU172     -0.1966
    150  CA         7.0770    7.5830   14.7250 C.3   172  LEU172      0.1728
    151  C          8.1740    7.2820   15.7680 C.2   172  LEU172      0.2616
    152  O          9.2810    7.8180   15.7000 O.2   172  LEU172     -0.2715
    153  CB         6.3470    8.8860   15.0890 C.3   172  LEU172      0.0311
    154  CG         7.1740   10.1570   15.2170 C.3   172  LEU172      0.0022
    155  CD1        7.6520   10.6380   13.8530 C.3   172  LEU172      0.0001
    156  CD2        6.3680   11.2530   15.9100 C.3   172  LEU172      0.0001
    157  N          7.8650    6.4370   16.7440 N.am  173  GLY173     -0.1955
    158  CA         8.8100    6.1590   17.8080 C.3   173  GLY173      0.1869
    159  C          9.7560    5.0150   17.4880 C.2   173  GLY173      0.2309
    160  O         10.9540    5.2080   17.3790 O.2   173  GLY173     -0.2863
    161  N         13.0530    4.9860   15.3480 N.3   176  PHE176     -0.1227
    162  CA        14.1800    5.5660   16.0870 C.3   176  PHE176      0.1736
    163  C         14.7850    4.5740   17.0860 C.2   176  PHE176      0.2595
    164  O         16.0020    4.4120   17.1600 O.2   176  PHE176     -0.2718
    165  CB        13.7420    6.8130   16.8630 C.3   176  PHE176      0.0547
    166  CG        13.9830    8.1150   16.1420 C.ar  176  PHE176     -0.0202
    167  CD1       13.5190    8.3140   14.8490 C.ar  176  PHE176     -0.0042
    168  CD2       14.6290    9.1660   16.7830 C.ar  176  PHE176     -0.0042
    169  CE1       13.7230    9.5310   14.1950 C.ar  176  PHE176     -0.0003
    170  CE2       14.8330   10.3840   16.1350 C.ar  176  PHE176     -0.0003
    171  CZ        14.3810   10.5640   14.8420 C.ar  176  PHE176     -0.0000
    172  N         13.9240    3.9410   17.8750 N.am  177  ASN177     -0.1974
    173  CA        14.3590    2.9970   18.8870 C.3   177  ASN177      0.1688
    174  C         15.1270    1.8030   18.3200 C.2   177  ASN177      0.2292
    175  O         16.1290    1.3820   18.9030 O.2   177  ASN177     -0.2864
    176  CB        13.1630    2.5240   19.7210 C.3   177  ASN177      0.1181
    177  CG        12.5500    3.6500   20.5430 C.2   177  ASN177      0.2629
    178  OD1       11.3720    3.9800   20.3850 O.2   177  ASN177     -0.2716
    179  ND2       13.3500    4.2450   21.4210 N.am  177  ASN177     -0.0877
    180  N         -1.0010    5.3470   16.6890 N.3   209  TYR209     -0.1241
    181  CA        -1.8850    6.4800   16.9660 C.3   209  TYR209      0.1605
    182  C         -2.9760    6.6610   15.9170 C.2   209  TYR209      0.2264
    183  O         -2.9580    6.0290   14.8590 O.2   209  TYR209     -0.2867
    184  CB        -1.1050    7.7800   17.0990 C.3   209  TYR209      0.0534
    185  CG        -0.5160    7.9870   18.4630 C.ar  209  TYR209     -0.0201
    186  CD1        0.8460    7.8920   18.6640 C.ar  209  TYR209     -0.0009
    187  CD2       -1.3220    8.2660   19.5560 C.ar  209  TYR209     -0.0009
    188  CE1        1.3970    8.0760   19.9060 C.ar  209  TYR209      0.0417
    189  CE2       -0.7760    8.4550   20.8070 C.ar  209  TYR209      0.0417
    190  CZ         0.5850    8.3580   20.9720 C.ar  209  TYR209      0.1957
    191  OH         1.1600    8.5390   22.2050 O.3   209  TYR209     -0.2866
    192  N          7.9890   10.2930    5.3620 N.3   257  ILE257     -0.1231
    193  CA         6.5520   10.4050    5.6240 C.3   257  ILE257      0.1692
    194  C          6.3580   11.1590    6.9350 C.2   257  ILE257      0.2592
    195  O          6.6400   10.6170    8.0080 O.2   257  ILE257     -0.2718
    196  CB         5.8800    9.0280    5.7740 C.3   257  ILE257      0.0266
    197  CG1        5.9860    8.2130    4.4830 C.3   257  ILE257      0.0019
    198  CG2        4.4300    9.2020    6.1740 C.3   257  ILE257      0.0020
    199  CD1        5.4050    6.8250    4.5930 C.3   257  ILE257      0.0001
    200  N          5.8950   12.4060    6.8580 N.am  258  LYS258     -0.1966
    201  CA         5.7330   13.2320    8.0570 C.3   258  LYS258      0.1728
    202  C          4.4430   12.9030    8.8150 C.2   258  LYS258      0.2616
    203  O          3.5270   12.2800    8.2670 O.2   258  LYS258     -0.2715
    204  CB         5.7910   14.7230    7.7080 C.3   258  LYS258      0.0311
    205  CG         7.0540   15.2700    7.0500 C.3   258  LYS258      0.0038
    206  CD         8.1310   15.1030    8.0590 C.3   258  LYS258      0.0206
    207  CE         9.3610   15.4850    7.1990 C.3   258  LYS258      0.1093
    208  NZ        10.4900   14.6640    7.6640 N.3   258  LYS258     -0.1314
    209  N          4.3910   13.3200   10.0790 N.am  259  ALA259     -0.1964
    210  CA         3.2540   13.0530   10.9610 C.3   259  ALA259      0.1713
    211  C          3.5460   13.5960   12.3640 C.2   259  ALA259      0.2458
    212  O          4.6970   13.5960   12.8020 O.2   259  ALA259     -0.2730
    213  CB         2.9450   11.5580   11.0150 C.3   259  ALA259      0.0333
    214  N          2.5050   14.0670   13.0740 N.am  260  PRO260     -0.2727
    215  CA         2.7260   14.7350   14.3600 C.3   260  PRO260      0.1402
    216  C          2.7990   13.7520   15.5230 C.2   260  PRO260      0.2269
    217  O          3.3680   14.1230   16.5490 O.2   260  PRO260     -0.2865
    218  CB         1.4930   15.6460   14.5010 C.3   260  PRO260      0.0296
    219  CG         0.6160   15.3640   13.2780 C.3   260  PRO260      0.0237
    220  CD         1.0810   14.0630   12.7120 C.3   260  PRO260      0.0939
@<TRIPOS>BOND
     1    18    17    1
     2    16    17    1
     3    16    15    1
     4    15    14    1
     5    14    11    1
     6   197   199    1
     7   197   196    1
     8     1     2    1
     9     2     3    1
    10     2     5    1
    11    10    11    1
    12    10     3   am
    13    11    12    1
    14     3     4    2
    15   192   193    1
    16   193   196    1
    17   193   194    1
    18   196   198    1
    19     5     6    1
    20    12    13    2
    21    12    19   am
    22   200   194   am
    23   200   201    1
    24     6     7    1
    25   194   195    2
    26   205   204    1
    27   205   206    1
    28   207   208    1
    29   207   206    1
    30    19    20    1
    31   204   201    1
    32   201   202    1
    33     7     8    1
    34   203   202    2
    35    22    21    2
    36   202   209   am
    37    20    21    1
    38    20    23    1
    39    21    26   am
    40     8     9    1
    41   146   148   ar
    42   146   144   ar
    43    25    23    1
    44   148   147   ar
    45    23    24    1
    46    33    35   ar
    47    33    31   ar
    48    26    27    1
    49   209   210    1
    50    35    34   ar
    51   144   143   ar
    52    27    30    1
    53    27    28    1
    54    31    30    1
    55    31    32   ar
    56   147   145   ar
    57   210   213    1
    58   210   211    1
    59    28    29    2
    60    34    32   ar
    61   143   145   ar
    62   143   142    1
    63   211   212    2
    64   211   214   am
    65   141   140    2
    66   220   214    1
    67   220   219    1
    68   142   139    1
    69   214   215    1
    70   219   218    1
    71   139   140    1
    72   139   138    1
    73   140   149   am
    74    36    37    1
    75   155   154    1
    76   169   171   ar
    77   169   167   ar
    78   215   218    1
    79   215   216    1
    80    41    40    1
    81   149   150    1
    82   150   153    1
    83   150   151    1
    84   171   170   ar
    85   167   166   ar
    86   183   182    2
    87    40    37    1
    88   153   154    1
    89    37    38    1
    90   154   156    1
    91   161   162    1
    92   216   217    2
    93   152   151    2
    94   151   157   am
    95   182   181    1
    96    38    39    2
    97   162   165    1
    98   162   163    1
    99   170   168   ar
   100   166   168   ar
   101   166   165    1
   102    56    55    1
   103   180   181    1
   104   157   158    1
   105   181   184    1
   106   163   164    2
   107   163   172   am
   108   184   185    1
   109    64    62    1
   110   136   135   ar
   111   133   132    2
   112   160   159    2
   113    57    55    1
   114   159   158    1
   115    55    52    1
   116    51    52    1
   117   172   173    1
   118   132   131    1
   119   135   137   ar
   120   135   134    1
   121   174   173    1
   122   174   175    2
   123   185   186   ar
   124   185   187   ar
   125    52    53    1
   126   186   188   ar
   127    62    59    1
   128    62    63    1
   129    58    53   am
   130    58    59    1
   131   173   176    1
   132    53    54    2
   133    59    60    1
   134    65    63    1
   135   131   134    1
   136   131   130    1
   137    42    43    1
   138   187   189   ar
   139   176   177    1
   140   188   190   ar
   141   178   177    2
   142    46    43    1
   143    46    47    1
   144   177   179   am
   145    60    61    2
   146    60    66   am
   147    49    48   ar
   148    43    44    1
   149   189   190   ar
   150   190   191    1
   151    48    47    1
   152    48    50   ar
   153    66    67    1
   154    44    45    2
   155    93    92   ar
   156    93    91   ar
   157    67    68    1
   158    67    70    1
   159    92    90   ar
   160    72    74   ar
   161    72    71   ar
   162    68    69    2
   163    74    75   ar
   164    70    71    1
   165    91    89   ar
   166    71    73   ar
   167    90    87   ar
   168   126   128   ar
   169   126   125   ar
   170    75    73   ar
   171    75    77   ar
   172   128   129   ar
   173    73    76   ar
   174    89    87   ar
   175    89    88   ar
   176   124   125    1
   177   124   121    1
   178   125   127   ar
   179    87    85   ar
   180    77    79   ar
   181   129   127   ar
   182   119   118    1
   183    80    81    1
   184    76    78   ar
   185   118   115    1
   186    88    86   ar
   187    79    78   ar
   188   121   120    1
   189   121   122    1
   190   120   116   am
   191    85    86   ar
   192    85    84    1
   193   105   104    1
   194   116   117    2
   195   116   115    1
   196    81    84    1
   197    81    82    1
   198   103   104   ar
   199   103   101   ar
   200   104   102   ar
   201   115   114    1
   202   112   111    1
   203   122   123    2
   204   101    99   ar
   205   102   100   ar
   206    82    83    2
   207    99   100   ar
   208    99    98    1
   209   113   111    1
   210    98    95    1
   211   111   110    1
   212   110   107    1
   213    95    96    1
   214    95    94    1
   215    96    97    2
   216   107   108    1
   217   107   106    1
   218   109   108    2
