@<TRIPOS>MOLECULE
tmp/4foiA01.pdb
 135 123 0 0 0
SMALL
GASTEIGER

@<TRIPOS>ATOM
      1  N          7.1130   -9.7850   60.5000 N.3    69  ASP69      -0.1239
      2  CA         6.0440  -10.7350   60.2200 C.3    69  ASP69       0.1674
      3  C          4.7210  -10.2330   60.7880 C.2    69  ASP69       0.2266
      4  O          4.4590  -10.3490   61.9860 O.2    69  ASP69      -0.2867
      5  CB         6.3870  -12.1180   60.7800 C.3    69  ASP69       0.1410
      6  CG         5.4550  -13.2020   60.2650 C.2    69  ASP69       0.3668
      7  OD1        4.2380  -12.9330   60.1640 O.co2  69  ASP69      -0.2456
      8  OD2        5.9380  -14.3180   59.9620 O.co2  69  ASP69      -0.2456
      9  N         -0.2420  -12.3910   60.7720 N.3    72  GLY72      -0.1210
     10  CA        -0.4760  -13.6730   61.4290 C.3    72  GLY72       0.1956
     11  C         -1.0630  -13.4520   62.8090 C.2    72  GLY72       0.2613
     12  O         -1.4680  -12.3390   63.1450 O.2    72  GLY72      -0.2717
     13  N         -1.1090  -14.5050   63.6180 N.am   73  SER73      -0.1938
     14  CA        -1.6290  -14.3810   64.9740 C.3    73  SER73       0.2055
     15  C         -0.7500  -13.4600   65.8180 C.2    73  SER73       0.2643
     16  O         -1.2180  -12.8470   66.7760 O.2    73  SER73      -0.2714
     17  CB        -1.7400  -15.7540   65.6350 C.3    73  SER73       0.2130
     18  OG        -0.4610  -16.3450   65.7790 O.3    73  SER73      -0.2179
     19  N          0.5250  -13.3570   65.4550 N.am   74  SER74      -0.1949
     20  CA         1.4660  -12.5370   66.2140 C.3    74  SER74       0.1924
     21  C          2.3300  -11.6640   65.3090 C.2    74  SER74       0.2314
     22  O          2.7930  -12.1130   64.2610 O.2    74  SER74      -0.2863
     23  CB         2.3650  -13.4230   67.0790 C.3    74  SER74       0.2116
     24  OG         1.5950  -14.2630   67.9190 O.3    74  SER74      -0.2180
     25  N          5.6080  -10.4940   64.8110 N.3    76  ARG76      -0.1245
     26  CA         6.9610  -10.8290   65.2460 C.3    76  ARG76       0.1563
     27  C          8.0560  -10.0810   64.4830 C.2    76  ARG76       0.2260
     28  O          7.8370   -9.5720   63.3810 O.2    76  ARG76      -0.2867
     29  CB         7.1880  -12.3390   65.1340 C.3    76  ARG76       0.0307
     30  CG         8.5890  -12.7930   65.5160 C.3    76  ARG76       0.0489
     31  CD         8.7910  -14.2720   65.2190 C.3    76  ARG76       0.2205
     32  NE         7.9260  -15.1210   66.0350 N.pl3  76  ARG76      -0.0865
     33  CZ         6.6750  -15.4420   65.7180 C.cat  76  ARG76       0.5346
     34  NH1        6.1320  -14.9820   64.5980 N.pl3  76  ARG76       0.1354
     35  NH2        5.9640  -16.2240   66.5210 N.pl3  76  ARG76       0.1354
     36  N          1.2350  -11.1360   55.2520 N.3   140  SER140     -0.1217
     37  CA         0.3120  -12.2020   54.8550 C.3   140  SER140      0.1889
     38  C         -1.0090  -11.6930   54.2740 C.2   140  SER140      0.2288
     39  O         -2.0850  -11.9860   54.8020 O.2   140  SER140     -0.2866
     40  CB         0.0520  -13.1510   56.0340 C.3   140  SER140      0.2089
     41  OG        -0.0870  -12.4350   57.2530 O.3   140  SER140     -0.2183
     42  N         -8.7910  -11.5160   56.9200 N.3   158  LYS158     -0.1245
     43  CA        -8.6720  -11.9260   58.3160 C.3   158  LYS158      0.1561
     44  C         -9.1530  -10.8480   59.2940 C.2   158  LYS158      0.2260
     45  O        -10.3090  -10.4320   59.2300 O.2   158  LYS158     -0.2867
     46  CB        -7.2400  -12.3720   58.6140 C.3   158  LYS158      0.0271
     47  CG        -6.8390  -13.5970   57.8020 C.3   158  LYS158      0.0035
     48  CD        -5.3750  -13.9540   57.9760 C.3   158  LYS158      0.0206
     49  CE        -4.4690  -12.9160   57.3420 C.3   158  LYS158      0.1093
     50  NZ        -3.0600  -13.3970   57.2290 N.3   158  LYS158     -0.1314
     51  N          3.3650  -15.1360   53.7390 N.3   194  ASP194     -0.1239
     52  CA         3.8100  -16.1160   54.7280 C.3   194  ASP194      0.1674
     53  C          3.8730  -17.5140   54.1270 C.2   194  ASP194      0.2266
     54  O          4.6580  -18.3520   54.5710 O.2   194  ASP194     -0.2867
     55  CB         2.9370  -16.0860   55.9850 C.3   194  ASP194      0.1410
     56  CG         1.4620  -16.1920   55.6750 C.2   194  ASP194      0.3668
     57  OD1        1.1150  -16.5740   54.5340 O.co2 194  ASP194     -0.2456
     58  OD2        0.6490  -15.8910   56.5760 O.co2 194  ASP194     -0.2456
     59  N          7.2220  -19.6270   54.3800 N.3   198  THR198     -0.1218
     60  CA         7.1420  -20.9930   54.8650 C.3   198  THR198      0.1862
     61  C          7.7300  -21.9920   53.8700 C.2   198  THR198      0.2287
     62  O          8.4040  -22.9470   54.2670 O.2   198  THR198     -0.2866
     63  CB         5.6860  -21.3670   55.2050 C.3   198  THR198      0.1770
     64  OG1        5.3040  -20.7110   56.4210 O.3   198  THR198     -0.2211
     65  CG2        5.5370  -22.8650   55.3770 C.3   198  THR198      0.0375
     66  N         -0.2940  -22.5580   54.3970 N.3   214  ILE214     -0.1245
     67  CA        -0.6350  -21.9170   55.6600 C.3   214  ILE214      0.1561
     68  C         -2.0820  -22.1980   56.0340 C.2   214  ILE214      0.2260
     69  O         -3.0020  -21.9330   55.2560 O.2   214  ILE214     -0.2867
     70  CB        -0.4410  -20.3970   55.6080 C.3   214  ILE214      0.0252
     71  CG1        1.0270  -20.0490   55.3530 C.3   214  ILE214      0.0019
     72  CG2       -0.9270  -19.7720   56.9100 C.3   214  ILE214      0.0019
     73  CD1        1.9250  -20.2320   56.5640 C.3   214  ILE214      0.0001
     74  N         -3.6680  -21.2460   59.3670 N.3   216  GLY216     -0.1210
     75  CA        -3.7720  -20.6390   60.6890 C.3   216  GLY216      0.1956
     76  C         -4.9690  -19.7090   60.7490 C.2   216  GLY216      0.2613
     77  O         -6.0720  -20.0840   60.3590 O.2   216  GLY216     -0.2717
     78  N         -4.7610  -18.4940   61.2400 N.am  217  THR217     -0.1938
     79  CA        -5.8250  -17.5020   61.2290 C.3   217  THR217      0.2028
     80  C         -6.5270  -17.5220   59.8720 C.2   217  THR217      0.2642
     81  O         -7.7570  -17.5400   59.7970 O.2   217  THR217     -0.2714
     82  CB        -5.2850  -16.0940   61.4850 C.3   217  THR217      0.1808
     83  OG1       -4.4080  -16.1140   62.6170 O.3   217  THR217     -0.2208
     84  CG2       -6.4280  -15.1290   61.7470 C.3   217  THR217      0.0379
     85  N         -5.7340  -17.5210   58.8030 N.am  218  GLY218     -0.1954
     86  CA        -6.2670  -17.6130   57.4480 C.3   218  GLY218      0.1869
     87  C         -5.7070  -18.8240   56.7300 C.2   218  GLY218      0.2309
     88  O         -4.9580  -19.6060   57.3120 O.2   218  GLY218     -0.2863
     89  N          2.4060  -24.4820   58.0640 N.3   398  ASN398     -0.1225
     90  CA         2.4180  -23.6660   59.2740 C.3   398  ASN398      0.1785
     91  C          1.0110  -23.1690   59.6140 C.2   398  ASN398      0.2598
     92  O          0.0630  -23.4220   58.8690 O.2   398  ASN398     -0.2718
     93  CB         3.3810  -22.4890   59.1080 C.3   398  ASN398      0.1169
     94  CG         3.7630  -21.8530   60.4300 C.2   398  ASN398      0.2627
     95  OD1        4.2590  -20.7250   60.4700 O.2   398  ASN398     -0.2716
     96  ND2        3.5350  -22.5730   61.5230 N.am  398  ASN398     -0.0877
     97  N          0.8740  -22.4690   60.7360 N.am  399  GLY399     -0.1942
     98  CA        -0.4250  -21.9340   61.1420 C.3   399  GLY399      0.2014
     99  C         -1.0120  -22.5880   62.3820 C.2   399  GLY399      0.2639
    100  O         -1.1100  -23.8120   62.4660 O.2   399  GLY399     -0.2714
    101  N         -1.4190  -21.7570   63.3380 N.am  400  SER400     -0.1949
    102  CA        -1.9380  -22.2160   64.6280 C.3   400  SER400      0.1924
    103  C         -2.8590  -23.4270   64.5490 C.2   400  SER400      0.2314
    104  O         -2.6360  -24.4270   65.2330 O.2   400  SER400     -0.2863
    105  CB        -2.6500  -21.0760   65.3560 C.3   400  SER400      0.2116
    106  OG        -1.7150  -20.2260   65.9930 O.3   400  SER400     -0.2180
    107  N         -1.0840  -26.5870   63.6850 N.3   403  LYS403     -0.1245
    108  CA        -0.1410  -26.9540   64.7350 C.3   403  LYS403      0.1561
    109  C         -0.8410  -27.4980   65.9780 C.2   403  LYS403      0.2260
    110  O         -0.5300  -28.5960   66.4390 O.2   403  LYS403     -0.2867
    111  CB         0.7330  -25.7560   65.1160 C.3   403  LYS403      0.0271
    112  CG         1.8550  -25.4510   64.1310 C.3   403  LYS403      0.0035
    113  CD         2.3670  -24.0230   64.3030 C.3   403  LYS403      0.0206
    114  CE         2.7500  -23.7290   65.7480 C.3   403  LYS403      0.1093
    115  NZ         3.0360  -22.2800   65.9570 N.3   403  LYS403     -0.1314
    116  N         10.8450  -22.3520   62.8060 N.3   432  SER432     -0.1202
    117  CA        11.1470  -20.9340   62.9440 C.3   432  SER432      0.2020
    118  C          9.9940  -20.1320   62.3570 C.2   432  SER432      0.2619
    119  O          9.9380  -18.9080   62.4850 O.2   432  SER432     -0.2717
    120  CB        12.4550  -20.5910   62.2260 C.3   432  SER432      0.2103
    121  OG        12.5060  -21.1830   60.9330 O.3   432  SER432     -0.2182
    122  N          9.0700  -20.8400   61.7150 N.am  433  GLY433     -0.1942
    123  CA         7.9730  -20.1980   61.0110 C.3   433  GLY433      0.2014
    124  C          8.4610  -19.6010   59.7040 C.2   433  GLY433      0.2640
    125  O          9.3680  -20.1370   59.0650 O.2   433  GLY433     -0.2714
    126  N          7.8680  -18.4790   59.3120 N.am  434  SER434     -0.1935
    127  CA         8.1990  -17.8430   58.0380 C.3   434  SER434      0.2055
    128  C          9.6130  -17.2490   58.0190 C.2   434  SER434      0.2643
    129  O         10.2520  -17.1760   56.9670 O.2   434  SER434     -0.2714
    130  CB         7.1890  -16.7370   57.7240 C.3   434  SER434      0.2130
    131  OG         7.5330  -15.5230   58.4120 O.3   434  SER434     -0.2179
    132  N         10.0910  -16.8340   59.1920 N.am  435  GLY435     -0.1954
    133  CA        11.3090  -16.0250   59.3270 C.3   435  GLY435      0.1869
    134  C         12.5710  -16.4470   58.5890 C.2   435  GLY435      0.2309
    135  O         13.2050  -15.6300   57.9200 O.2   435  GLY435     -0.2863
@<TRIPOS>BOND
     1    51    52    1
     2    61    62    2
     3    61    60    1
     4    53    54    2
     5    53    52    1
     6    38    39    2
     7    38    37    1
     8    59    60    1
     9    66    67    1
    10    57    56   ar
    11    52    55    1
    12    37    36    1
    13    37    40    1
    14    60    63    1
    15    63    65    1
    16    63    64    1
    17    69    68    2
    18    71    70    1
    19    71    73    1
    20    70    67    1
    21    70    72    1
    22    67    68    1
    23    56    55    1
    24    56    58   ar
    25    40    41    1
    26    87    88    2
    27    87    86    1
    28    42    43    1
    29   129   128    2
    30    50    49    1
    31    49    48    1
    32    86    85    1
    33   130   127    1
    34   130   131    1
    35    47    48    1
    36    47    46    1
    37   135   134    2
    38   128   127    1
    39   128   132   am
    40   127   126    1
    41    89    90    1
    42    43    46    1
    43    43    44    1
    44   134   133    1
    45    85    80   am
    46    92    91    2
    47   125   124    2
    48    93    90    1
    49    93    94    1
    50   132   133    1
    51    45    44    2
    52    90    91    1
    53   126   124   am
    54    74    75    1
    55    91    97   am
    56   124   123    1
    57    81    80    2
    58    80    79    1
    59     8     6   ar
    60     7     6   ar
    61     2     1    1
    62     2     5    1
    63     2     3    1
    64     6     5    1
    65    77    76    2
    66    94    95    2
    67    94    96   am
    68    75    76    1
    69    97    98    1
    70    76    78   am
    71     9    10    1
    72     3     4    2
    73   121   120    1
    74   123   122    1
    75    98    99    1
    76    79    78    1
    77    79    82    1
    78    10    11    1
    79    82    84    1
    80    82    83    1
    81   122   118   am
    82   120   117    1
    83   118   119    2
    84   118   117    1
    85    99   100    2
    86    99   101   am
    87   116   117    1
    88    11    12    2
    89    11    13   am
    90   101   102    1
    91    28    27    2
    92    13    14    1
    93   107   108    1
    94   112   113    1
    95   112   111    1
    96    22    21    2
    97   113   114    1
    98    27    26    1
    99   103   102    1
   100   103   104    2
   101    34    33    1
   102   102   105    1
   103   108   111    1
   104   108   109    1
   105    25    26    1
   106    14    17    1
   107    14    15    1
   108    29    26    1
   109    29    30    1
   110    31    30    1
   111    31    32    1
   112    21    20    1
   113   105   106    1
   114    19    15   am
   115    19    20    1
   116    17    18    1
   117    33    32    2
   118    33    35    1
   119   114   115    1
   120    15    16    2
   121   109   110    2
   122    20    23    1
   123    23    24    1
