@<TRIPOS>MOLECULE
tmp/4foiA03.pdb
 122 111 0 0 0
SMALL
GASTEIGER

@<TRIPOS>ATOM
      1  N         28.2000   14.4670   -2.9860 N.3   517  ASP517     -0.1239
      2  CA        27.8160   14.2880   -1.6020 C.3   517  ASP517      0.1674
      3  C         28.8590   13.3790   -0.9670 C.2   517  ASP517      0.2266
      4  O         28.8000   12.1580   -1.1050 O.2   517  ASP517     -0.2867
      5  CB        26.4250   13.6610   -1.5140 C.3   517  ASP517      0.1410
      6  CG        25.7280   13.9640   -0.2010 C.2   517  ASP517      0.3668
      7  OD1       26.3890   14.4960    0.7150 O.co2 517  ASP517     -0.2456
      8  OD2       24.5180   13.6740   -0.0850 O.co2 517  ASP517     -0.2456
      9  N         29.1760   11.7870    4.3250 N.3   520  GLY520     -0.1210
     10  CA        28.1290   11.0480    5.0260 C.3   520  GLY520      0.1956
     11  C         28.3460    9.5510    4.8950 C.2   520  GLY520      0.2613
     12  O         29.4410    9.1070    4.5440 O.2   520  GLY520     -0.2717
     13  N         27.3080    8.7660    5.1720 N.am  521  THR521     -0.1938
     14  CA        27.4170    7.3120    5.0450 C.3   521  THR521      0.2028
     15  C         27.4850    6.8940    3.5800 C.2   521  THR521      0.2642
     16  O         28.0150    5.8360    3.2590 O.2   521  THR521     -0.2714
     17  CB        26.2580    6.5560    5.7470 C.3   521  THR521      0.1808
     18  OG1       25.0000    7.0630    5.2950 O.3   521  THR521     -0.2208
     19  CG2       26.3350    6.7180    7.2500 C.3   521  THR521      0.0379
     20  N         26.9520    7.7340    2.6990 N.am  522  ASN522     -0.1971
     21  CA        26.9530    7.4510    1.2690 C.3   522  ASN522      0.1688
     22  C         27.6240    8.5470    0.4610 C.2   522  ASN522      0.2292
     23  O         27.2420    9.7150    0.5460 O.2   522  ASN522     -0.2864
     24  CB        25.5210    7.2740    0.7600 C.3   522  ASN522      0.1181
     25  CG        24.8400    6.0630    1.3520 C.2   522  ASN522      0.2629
     26  OD1       25.2770    4.9330    1.1470 O.2   522  ASN522     -0.2716
     27  ND2       23.7600    6.2900    2.0870 N.am  522  ASN522     -0.0877
     28  N         27.9250   10.0800   -3.1380 N.3   524  ARG524     -0.1245
     29  CA        27.1150   10.0250   -4.3440 C.3   524  ARG524      0.1563
     30  C         27.3580   11.1910   -5.2920 C.2   524  ARG524      0.2260
     31  O         27.8130   12.2600   -4.8860 O.2   524  ARG524     -0.2867
     32  CB        25.6260    9.9250   -3.9950 C.3   524  ARG524      0.0307
     33  CG        25.1460   10.9900   -3.0250 C.3   524  ARG524      0.0489
     34  CD        23.6280   11.1390   -3.0410 C.3   524  ARG524      0.2205
     35  NE        22.9350   10.0120   -2.4240 N.pl3 524  ARG524     -0.0865
     36  CZ        22.8890    9.7980   -1.1140 C.cat 524  ARG524      0.5346
     37  NH1       23.5100   10.6270   -0.2860 N.pl3 524  ARG524      0.1354
     38  NH2       22.2320    8.7530   -0.6330 N.pl3 524  ARG524      0.1354
     39  N         31.5150   17.2620    3.7100 N.3   588  SER588     -0.1217
     40  CA        31.1230   17.3360    5.1220 C.3   588  SER588      0.1889
     41  C         32.2820   17.3680    6.1130 C.2   588  SER588      0.2288
     42  O         32.3790   16.5080    6.9890 O.2   588  SER588     -0.2866
     43  CB        30.2120   16.1630    5.4730 C.3   588  SER588      0.2089
     44  OG        28.9510   16.2960    4.8460 O.3   588  SER588     -0.2183
     45  N         35.2850   12.3660   11.7590 N.3   606  LYS606     -0.1245
     46  CA        34.6170   11.0960   11.5280 C.3   606  LYS606      0.1561
     47  C         35.6410   10.0170   11.1960 C.2   606  LYS606      0.2260
     48  O         36.6580    9.9020   11.8790 O.2   606  LYS606     -0.2867
     49  CB        33.5640   11.2300   10.4260 C.3   606  LYS606      0.0271
     50  CG        32.3580   12.0560   10.8550 C.3   606  LYS606      0.0035
     51  CD        31.4590   12.4310    9.6810 C.3   606  LYS606      0.0206
     52  CE        32.0230   13.6070    8.8920 C.3   606  LYS606      0.1093
     53  NZ        31.0580   14.1230    7.8820 N.3   606  LYS606     -0.1314
     54  N         27.4610   19.8380    4.6200 N.3   642  ASP642     -0.1239
     55  CA        26.1660   19.1600    4.5550 C.3   642  ASP642      0.1674
     56  C         25.0870   19.8780    5.3630 C.2   642  ASP642      0.2266
     57  O         23.9110   19.8560    4.9930 O.2   642  ASP642     -0.2867
     58  CB        26.2630   17.6720    4.9270 C.3   642  ASP642      0.1410
     59  CG        26.9000   17.4360    6.2870 C.2   642  ASP642      0.3668
     60  OD1       27.4550   18.3890    6.8700 O.co2 642  ASP642     -0.2456
     61  OD2       26.8490   16.2820    6.7710 O.co2 642  ASP642     -0.2456
     62  N         22.5840   18.3450   11.2910 N.3   662  ILE662     -0.1245
     63  CA        22.8830   16.9720   10.9130 C.3   662  ILE662      0.1561
     64  C         23.1430   16.1160   12.1540 C.2   662  ILE662      0.2260
     65  O         23.9790   16.4580   12.9940 O.2   662  ILE662     -0.2867
     66  CB        24.1180   16.8930    9.9840 C.3   662  ILE662      0.0252
     67  CG1       23.8420   17.5890    8.6430 C.3   662  ILE662      0.0019
     68  CG2       24.5430   15.4460    9.7860 C.3   662  ILE662      0.0019
     69  CD1       22.8660   16.8610    7.7490 C.3   662  ILE662      0.0001
     70  N         23.8870   12.3360   12.1230 N.3   664  GLY664     -0.1210
     71  CA        24.1030   11.0710   11.4310 C.3   664  GLY664      0.1956
     72  C         25.4320   10.4950   11.8640 C.2   664  GLY664      0.2613
     73  O         25.6790   10.3320   13.0620 O.2   664  GLY664     -0.2717
     74  N         26.3020   10.1900   10.9040 N.am  665  THR665     -0.1938
     75  CA        27.6430    9.7380   11.2490 C.3   665  THR665      0.2028
     76  C         28.2520   10.7480   12.2250 C.2   665  THR665      0.2642
     77  O         28.6460   10.3950   13.3390 O.2   665  THR665     -0.2714
     78  CB        28.5390    9.5820    9.9990 C.3   665  THR665      0.1808
     79  OG1       27.8970    8.7160    9.0530 O.3   665  THR665     -0.2208
     80  CG2       29.8860    8.9900   10.3710 C.3   665  THR665      0.0379
     81  N         28.3110   12.0070   11.8060 N.am  666  GLY666     -0.1954
     82  CA        28.7670   13.0790   12.6730 C.3   666  GLY666      0.1869
     83  C         27.5770   13.9380   13.0430 C.2   666  GLY666      0.2309
     84  O         26.4510   13.6420   12.6470 O.2   666  GLY666     -0.2863
     85  N         18.7910   16.3490    8.8090 N.3   846  ASP846     -0.1225
     86  CA        19.1020   15.0990    8.1240 C.3   846  ASP846      0.1805
     87  C         20.0710   14.2820    8.9770 C.2   846  ASP846      0.2598
     88  O         20.6770   14.8070    9.9130 O.2   846  ASP846     -0.2718
     89  CB        19.7000   15.3730    6.7440 C.3   846  ASP846      0.1424
     90  CG        19.4040   14.2620    5.7440 C.2   846  ASP846      0.3668
     91  OD1       19.0540   13.1400    6.1710 O.co2 846  ASP846     -0.2456
     92  OD2       19.5150   14.5130    4.5240 O.co2 846  ASP846     -0.2456
     93  N         20.2140   13.0020    8.6530 N.am  847  GLY847     -0.1942
     94  CA        21.0760   12.1110    9.4240 C.3   847  GLY847      0.2014
     95  C         20.3890   10.7940    9.7140 C.2   847  GLY847      0.2639
     96  O         19.2010   10.7660   10.0370 O.2   847  GLY847     -0.2714
     97  N         21.1350    9.6980    9.5980 N.am  848  THR848     -0.1950
     98  CA        20.5700    8.3680    9.7900 C.3   848  THR848      0.1897
     99  C         20.1130    8.1300   11.2330 C.2   848  THR848      0.2313
    100  O         19.0410    7.5710   11.4640 O.2   848  THR848     -0.2863
    101  CB        21.5430    7.2560    9.3320 C.3   848  THR848      0.1794
    102  OG1       22.8120    7.4290    9.9790 O.3   848  THR848     -0.2208
    103  CG2       21.7390    7.3130    7.8240 C.3   848  THR848      0.0378
    104  N         16.8760    9.9750   11.7640 N.3   851  LYS851     -0.1245
    105  CA        15.7570    9.3820   11.0380 C.3   851  LYS851      0.1561
    106  C         15.3290    8.0350   11.6000 C.2   851  LYS851      0.2260
    107  O         14.1420    7.7240   11.6350 O.2   851  LYS851     -0.2867
    108  CB        16.0840    9.2550    9.5470 C.3   851  LYS851      0.0271
    109  CG        16.0630   10.5900    8.8200 C.3   851  LYS851      0.0035
    110  CD        16.3280   10.4590    7.3340 C.3   851  LYS851      0.0206
    111  CE        16.1060   11.8010    6.6550 C.3   851  LYS851      0.1093
    112  NZ        16.3810   11.7750    5.1960 N.3   851  LYS851     -0.1314
    113  N         18.1510   15.0350    0.3300 N.3   881  GLY881     -0.1210
    114  CA        19.5980   15.0370    0.5070 C.3   881  GLY881      0.1956
    115  C         20.1630   16.4320    0.3300 C.2   881  GLY881      0.2612
    116  O         19.4530   17.3420   -0.0830 O.2   881  GLY881     -0.2717
    117  N         21.4450   16.5980    0.6350 N.am  882  SER882     -0.1952
    118  CA        22.1040   17.8990    0.5480 C.3   882  SER882      0.1924
    119  C         22.2740   18.4060   -0.8870 C.2   882  SER882      0.2314
    120  O         22.3920   19.6090   -1.1150 O.2   882  SER882     -0.2863
    121  CB        23.4680   17.8360    1.2330 C.3   882  SER882      0.2116
    122  OG        23.3320   17.4480    2.5850 O.3   882  SER882     -0.2180
@<TRIPOS>BOND
     1    30    31    2
     2    30    29    1
     3    29    32    1
     4    29    28    1
     5    32    33    1
     6    34    33    1
     7    34    35    1
     8     1     2    1
     9    35    36    2
    10     2     5    1
    11     2     3    1
    12     5     6    1
    13   120   119    2
    14    36    38    1
    15    36    37    1
    16     4     3    2
    17   119   118    1
    18     6     8   ar
    19     6     7   ar
    20   116   115    2
    21   115   114    1
    22   115   117   am
    23   113   114    1
    24    22    23    2
    25    22    21    1
    26   118   117    1
    27   118   121    1
    28    24    21    1
    29    24    25    1
    30    26    25    2
    31   121   122    1
    32    21    20    1
    33    25    27   am
    34    20    15   am
    35    16    15    2
    36    15    14    1
    37    39    40    1
    38     9    10    1
    39    92    90   ar
    40    12    11    2
    41    55    54    1
    42    55    58    1
    43    55    56    1
    44    44    43    1
    45    11    10    1
    46    11    13   am
    47    58    59    1
    48    57    56    2
    49    14    13    1
    50    14    17    1
    51    40    43    1
    52    40    41    1
    53   112   111    1
    54    18    17    1
    55    90    91   ar
    56    90    89    1
    57    17    19    1
    58    41    42    2
    59    59    61   ar
    60    59    60   ar
    61   111   110    1
    62    89    86    1
    63   110   109    1
    64    69    67    1
    65   103   101    1
    66    53    52    1
    67    86    85    1
    68    86    87    1
    69    67    66    1
    70    93    87   am
    71    93    94    1
    72   109   108    1
    73    52    51    1
    74    87    88    2
    75    79    78    1
    76   101    98    1
    77   101   102    1
    78    94    95    1
    79   108   105    1
    80    97    95   am
    81    97    98    1
    82    51    50    1
    83    95    96    2
    84    68    66    1
    85    98    99    1
    86    66    63    1
    87    78    80    1
    88    78    75    1
    89    49    50    1
    90    49    46    1
    91    74    75    1
    92    74    72   am
    93    63    62    1
    94    63    64    1
    95   105   106    1
    96   105   104    1
    97    47    46    1
    98    47    48    2
    99    99   100    2
   100    75    76    1
   101    71    72    1
   102    71    70    1
   103    46    45    1
   104   106   107    2
   105    81    76   am
   106    81    82    1
   107    72    73    2
   108    64    65    2
   109    76    77    2
   110    84    83    2
   111    82    83    1
