@<TRIPOS>MOLECULE
tmp/4fokA00.pdb
 171 163 0 0 0
SMALL
GASTEIGER

@<TRIPOS>ATOM
      1  N          6.1420   31.6510    0.0330 N.3    38  GLN38      -0.1245
      2  CA         5.3460   32.4090    0.9620 C.3    38  GLN38       0.1566
      3  C          6.2960   33.0880    1.9290 C.2    38  GLN38       0.2260
      4  O          7.0880   32.4090    2.5820 O.2    38  GLN38      -0.2867
      5  CB         4.4040   31.4770    1.7380 C.3    38  GLN38       0.0367
      6  CG         3.4840   32.2670    2.6650 C.3    38  GLN38       0.0905
      7  CD         2.4480   31.4120    3.3350 C.2    38  GLN38       0.2608
      8  OE1        1.2500   31.7450    3.3200 O.2    38  GLN38      -0.2717
      9  NE2        2.8750   30.3290    3.8870 N.am   38  GLN38      -0.0878
     10  N          8.8650   30.3520    2.6390 N.3    52  GLN52      -0.1231
     11  CA         8.6730   28.9210    2.5660 C.3    52  GLN52       0.1698
     12  C          8.3680   28.5340    1.1500 C.2    52  GLN52       0.2592
     13  O          7.5510   29.1600    0.4890 O.2    52  GLN52      -0.2718
     14  CB         7.5370   28.4870    3.4740 C.3    52  GLN52       0.0381
     15  CG         7.1920   27.0030    3.3910 C.3    52  GLN52       0.0905
     16  CD         6.3070   26.5190    4.5460 C.2    52  GLN52       0.2608
     17  OE1        6.3500   27.0840    5.6320 O.2    52  GLN52      -0.2717
     18  NE2        5.5450   25.4300    4.3110 N.am   52  GLN52      -0.0878
     19  N          8.9600   27.4330    0.7350 N.am   53  ALA53      -0.1966
     20  CA         8.6910   26.8790   -0.5620 C.3    53  ALA53       0.1728
     21  C          7.4470   26.0220   -0.5460 C.2    53  ALA53       0.2616
     22  O          7.2510   25.2300    0.3710 O.2    53  ALA53      -0.2715
     23  CB         9.9070   26.0550   -1.0530 C.3    53  ALA53       0.0334
     24  N          6.6110   26.1970   -1.5720 N.am   54  PHE54      -0.1960
     25  CA         5.4480   25.3600   -1.7830 C.3    54  PHE54       0.1771
     26  C          5.4960   24.7740   -3.1980 C.2    54  PHE54       0.2619
     27  O          5.8270   25.4590   -4.1860 O.2    54  PHE54      -0.2715
     28  CB         4.1660   26.1570   -1.6190 C.3    54  PHE54       0.0574
     29  CG         3.8390   26.5020   -0.2210 C.ar   54  PHE54      -0.0200
     30  CD1        2.9540   25.7430    0.4880 C.ar   54  PHE54      -0.0042
     31  CD2        4.4300   27.6090    0.3950 C.ar   54  PHE54      -0.0042
     32  CE1        2.6070   26.0790    1.7920 C.ar   54  PHE54      -0.0003
     33  CE2        4.0870   27.9480    1.6910 C.ar   54  PHE54      -0.0003
     34  CZ         3.1750   27.1620    2.3880 C.ar   54  PHE54      -0.0000
     35  N          5.1870   23.5030   -3.2730 N.am   55  LEU55      -0.1963
     36  CA         5.2740   22.7370   -4.5160 C.3    55  LEU55       0.1728
     37  C          4.0450   22.8860   -5.3680 C.2    55  LEU55       0.2616
     38  O          2.9360   22.7920   -4.8680 O.2    55  LEU55      -0.2715
     39  CB         5.4490   21.2720   -4.1690 C.3    55  LEU55       0.0311
     40  CG         5.5640   20.2990   -5.3140 C.3    55  LEU55       0.0022
     41  CD1        6.8180   20.6250   -6.1120 C.3    55  LEU55       0.0001
     42  CD2        5.5730   18.8570   -4.7630 C.3    55  LEU55       0.0001
     43  N          4.2530   23.0840   -6.6670 N.am   56  ARG56      -0.1977
     44  CA         3.1920   23.0460   -7.6470 C.3    56  ARG56       0.1597
     45  C          3.6400   22.1370   -8.7800 C.2    56  ARG56       0.2287
     46  O          4.8350   21.9250   -9.0070 O.2    56  ARG56      -0.2864
     47  CB         2.9080   24.4340   -8.1980 C.3    56  ARG56       0.0334
     48  CG         2.7740   25.5280   -7.1310 C.3    56  ARG56       0.0492
     49  CD         1.4600   25.4080   -6.6050 C.3    56  ARG56       0.2205
     50  NE         1.1830   26.3540   -5.5160 N.pl3  56  ARG56      -0.0865
     51  CZ         1.1650   26.0350   -4.2250 C.cat  56  ARG56       0.5346
     52  NH1        1.5080   24.8180   -3.8410 N.pl3  56  ARG56       0.1354
     53  NH2        0.7760   26.9560   -3.3200 N.pl3  56  ARG56       0.1354
     54  N         -1.9450   21.9210   -7.1930 N.3    65  SER65      -0.1203
     55  CA        -1.5780   21.7230   -5.8190 C.3    65  SER65       0.2005
     56  C         -1.1760   20.2710   -5.5990 C.2    65  SER65       0.2461
     57  O         -1.7080   19.3710   -6.2330 O.2    65  SER65      -0.2732
     58  CB        -2.8080   22.0420   -4.9480 C.3    65  SER65       0.2103
     59  OG        -2.6680   21.5780   -3.6120 O.3    65  SER65      -0.2182
     60  N         -0.3000   20.0150   -4.6180 N.am   66  PRO66      -0.2717
     61  CA        -0.0170   18.6540   -4.2150 C.3    66  PRO66       0.1535
     62  C         -1.2380   17.9330   -3.6920 C.2    66  PRO66       0.2598
     63  O         -1.2500   16.7100   -3.6610 O.2    66  PRO66      -0.2715
     64  CB         1.0570   18.8200   -3.1500 C.3    66  PRO66       0.0310
     65  CG         1.6970   20.1020   -3.5140 C.3    66  PRO66       0.0237
     66  CD         0.5680   20.9630   -3.9140 C.3    66  PRO66       0.0939
     67  N         -2.2830   18.6830   -3.3270 N.am   67  ASN67      -0.1973
     68  CA        -3.5560   18.0610   -3.0190 C.3    67  ASN67       0.1688
     69  C         -4.0470   17.1220   -4.1230 C.2    67  ASN67       0.2292
     70  O         -4.7510   16.1380   -3.8530 O.2    67  ASN67      -0.2864
     71  CB        -4.6140   19.1280   -2.7290 C.3    67  ASN67       0.1181
     72  CG        -4.4210   19.8020   -1.3750 C.2    67  ASN67       0.2629
     73  OD1       -3.8780   19.2210   -0.4470 O.2    67  ASN67      -0.2716
     74  ND2       -4.9800   20.9990   -1.2440 N.am   67  ASN67      -0.0877
     75  N         -0.3730   14.1210   -4.2480 N.3    70  MET70      -0.1245
     76  CA         0.5390   13.6280   -3.2140 C.3    70  MET70       0.1570
     77  C          0.1560   12.2600   -2.6800 C.2    70  MET70       0.2261
     78  O          1.0370   11.5000   -2.2850 O.2    70  MET70      -0.2867
     79  CB         0.6750   14.6380   -2.0760 C.3    70  MET70       0.0387
     80  CG         1.7320   15.5850   -2.3470 C.3    70  MET70       0.0595
     81  SD         3.3650   14.7800   -2.3550 S.3    70  MET70      -0.1393
     82  CE         4.3270   16.2540   -2.1370 C.3    70  MET70       0.0692
     83  N          7.5310   10.3000   -3.1320 N.3    79  VAL79      -0.1245
     84  CA         7.6940   11.4550   -2.2580 C.3    79  VAL79       0.1561
     85  C          9.1590   11.7500   -1.9760 C.2    79  VAL79       0.2260
     86  O          9.5740   12.8970   -1.9810 O.2    79  VAL79      -0.2867
     87  CB         6.9060   11.3120   -0.9530 C.3    79  VAL79       0.0252
     88  CG1        7.2940   12.4190    0.0330 C.3    79  VAL79       0.0019
     89  CG2        5.4100   11.3850   -1.2630 C.3    79  VAL79       0.0019
     90  N         10.6420   15.3310   -2.8470 N.3    83  ASP83      -0.1239
     91  CA        11.2930   16.1950   -1.8270 C.3    83  ASP83       0.1674
     92  C         12.7320   16.5670   -2.2070 C.2    83  ASP83       0.2266
     93  O         13.1500   17.7010   -2.0310 O.2    83  ASP83      -0.2867
     94  CB        11.2220   15.5570   -0.4530 C.3    83  ASP83       0.1410
     95  CG         9.8290   15.6270    0.1560 C.2    83  ASP83       0.3668
     96  OD1        8.9800   16.4220   -0.3000 O.co2  83  ASP83      -0.2456
     97  OD2        9.5930   14.8840    1.1080 O.co2  83  ASP83      -0.2456
     98  N         12.4660   19.2670   -4.8080 N.3    86  VAL86      -0.1245
     99  CA        12.1660   20.5320   -4.1510 C.3    86  VAL86       0.1561
    100  C         13.3910   21.1250   -3.5100 C.2    86  VAL86       0.2260
    101  O         13.6680   22.3220   -3.6730 O.2    86  VAL86      -0.2867
    102  CB        11.0550   20.3270   -3.1130 C.3    86  VAL86       0.0252
    103  CG1       10.8990   21.5470   -2.2150 C.3    86  VAL86       0.0019
    104  CG2        9.7840   19.9790   -3.8540 C.3    86  VAL86       0.0019
    105  N         10.1420   21.7440    2.8700 N.3   109  ARG109     -0.1231
    106  CA         9.6570   20.5320    3.4940 C.3   109  ARG109      0.1694
    107  C         10.4160   19.3170    3.0600 C.2   109  ARG109      0.2591
    108  O         10.7130   19.1510    1.8690 O.2   109  ARG109     -0.2718
    109  CB         8.1920   20.3380    3.1700 C.3   109  ARG109      0.0321
    110  CG         7.3510   21.3810    3.8570 C.3   109  ARG109      0.0489
    111  CD         5.9550   21.2890    3.4390 C.3   109  ARG109      0.2205
    112  NE         5.0360   21.5930    4.5030 N.pl3 109  ARG109     -0.0865
    113  CZ         3.8020   22.0680    4.3330 C.cat 109  ARG109      0.5346
    114  NH1        3.3420   22.3730    3.1390 N.pl3 109  ARG109      0.1354
    115  NH2        2.9950   22.1960    5.3910 N.pl3 109  ARG109      0.1354
    116  N         10.6840   18.4380    4.0270 N.am  110  ILE110     -0.1980
    117  CA        11.1140   17.0780    3.7380 C.3   110  ILE110      0.1595
    118  C         10.3710   16.1110    4.6370 C.2   110  ILE110      0.2287
    119  O         10.0790   16.4360    5.7800 O.2   110  ILE110     -0.2864
    120  CB        12.6530   16.8440    3.7800 C.3   110  ILE110      0.0276
    121  CG1       13.2180   16.6870    5.2110 C.3   110  ILE110      0.0022
    122  CG2       13.4210   17.8880    2.9100 C.3   110  ILE110      0.0022
    123  CD1       13.1170   17.8240    6.0610 C.3   110  ILE110      0.0001
    124  N          1.8670   29.6120   11.6780 N.3   228  GLU228     -0.1231
    125  CA         1.3800   29.7060   10.3260 C.3   228  GLU228      0.1699
    126  C         -0.1170   29.8600   10.2710 C.2   228  GLU228      0.2592
    127  O         -0.7960   29.8330   11.2820 O.2   228  GLU228     -0.2718
    128  CB         1.8840   28.5270    9.4880 C.3   228  GLU228      0.0402
    129  CG         1.5330   27.1780   10.0320 C.3   228  GLU228      0.1161
    130  CD         1.9280   26.0240    9.0990 C.2   228  GLU228      0.3649
    131  OE1        2.3900   26.2640    7.9330 O.co2 228  GLU228     -0.2457
    132  OE2        1.8040   24.8630    9.5750 O.co2 228  GLU228     -0.2457
    133  N         -0.6050   30.0130    9.0560 N.am  229  PHE229     -0.1976
    134  CA        -2.0060   30.2730    8.7420 C.3   229  PHE229      0.1639
    135  C         -2.5070   31.4990    9.4550 C.2   229  PHE229      0.2290
    136  O         -3.6700   31.5630    9.8670 O.2   229  PHE229     -0.2864
    137  CB        -2.8700   29.0920    9.0360 C.3   229  PHE229      0.0560
    138  CG        -2.5060   27.8870    8.2390 C.ar  229  PHE229     -0.0200
    139  CD1       -2.8370   27.8140    6.8940 C.ar  229  PHE229     -0.0042
    140  CD2       -1.8240   26.8250    8.8240 C.ar  229  PHE229     -0.0042
    141  CE1       -2.5240   26.6890    6.1540 C.ar  229  PHE229     -0.0003
    142  CE2       -1.4890   25.6960    8.0780 C.ar  229  PHE229     -0.0003
    143  CZ        -1.8570   25.6180    6.7550 C.ar  229  PHE229     -0.0000
    144  N          3.5640   33.4380    9.3540 N.3   248  GLN248     -0.1231
    145  CA         3.2800   33.3590    7.9340 C.3   248  GLN248      0.1698
    146  C          1.8130   33.0760    7.7790 C.2   248  GLN248      0.2593
    147  O          1.1620   32.6100    8.7220 O.2   248  GLN248     -0.2718
    148  CB         4.1060   32.2640    7.2550 C.3   248  GLN248      0.0381
    149  CG         3.6770   30.8680    7.6260 C.3   248  GLN248      0.0905
    150  CD         4.6740   29.8320    7.2200 C.2   248  GLN248      0.2608
    151  OE1        5.4930   29.4210    8.0250 O.2   248  GLN248     -0.2717
    152  NE2        4.6160   29.4010    5.9670 N.am  248  GLN248     -0.0878
    153  N          1.3050   33.3100    6.5820 N.am  249  GLY249     -0.1942
    154  CA        -0.1060   33.0900    6.3230 C.3   249  GLY249      0.2014
    155  C         -0.6300   34.2070    5.4730 C.2   249  GLY249      0.2638
    156  O          0.0670   35.1990    5.2560 O.2   249  GLY249     -0.2714
    157  N         -1.8490   34.0590    4.9650 N.am  250  ASP250     -0.1971
    158  CA        -2.3000   34.9810    3.9290 C.3   250  ASP250      0.1709
    159  C         -2.3980   36.4110    4.4110 C.2   250  ASP250      0.2293
    160  O         -2.2180   37.3320    3.6230 O.2   250  ASP250     -0.2864
    161  CB        -3.6080   34.5480    3.3250 C.3   250  ASP250      0.1436
    162  CG        -3.4440   33.3530    2.4110 C.2   250  ASP250      0.3671
    163  OD1       -2.2930   32.9820    2.0750 O.co2 250  ASP250     -0.2456
    164  OD2       -4.4820   32.7940    2.0350 O.co2 250  ASP250     -0.2456
    165  N          0.9920   32.9940   -0.8090 N.3   255  THR255     -0.1218
    166  CA         2.0050   32.2820   -1.5710 C.3   255  THR255      0.1862
    167  C          1.9760   32.8200   -3.0250 C.2   255  THR255      0.2287
    168  O          0.9230   33.2220   -3.5350 O.2   255  THR255     -0.2866
    169  CB         1.7430   30.7580   -1.5740 C.3   255  THR255      0.1770
    170  OG1        1.6150   30.2560   -0.2290 O.3   255  THR255     -0.2211
    171  CG2        2.8500   30.0430   -2.2360 C.3   255  THR255      0.0375
@<TRIPOS>BOND
     1    46    45    2
     2    45    44    1
     3    47    44    1
     4    47    48    1
     5    44    43    1
     6    54    55    1
     7    48    49    1
     8    43    37   am
     9    49    50    1
    10    57    56    2
    11    41    40    1
    12    55    56    1
    13    55    58    1
    14    56    60   am
    15    50    51    2
    16    37    38    2
    17    37    36    1
    18    40    42    1
    19    40    39    1
    20    58    59    1
    21    98    99    1
    22    60    61    1
    23    60    66    1
    24    36    39    1
    25    36    35    1
    26    75    76    1
    27    51    52    1
    28    51    53    1
    29    61    62    1
    30    61    64    1
    31    27    26    2
    32    99   100    1
    33    99   102    1
    34    69    70    2
    35    69    68    1
    36    66    65    1
    37   104   102    1
    38    62    63    2
    39    62    67   am
    40   101   100    2
    41   168   167    2
    42    65    64    1
    43    67    68    1
    44    35    26   am
    45    76    77    1
    46    76    79    1
    47    26    25    1
    48    83    84    1
    49   102   103    1
    50   167   166    1
    51    68    71    1
    52    90    91    1
    53    71    72    1
    54    77    78    2
    55    81    80    1
    56    81    82    1
    57    80    79    1
    58    84    85    1
    59    84    87    1
    60   171   169    1
    61    92    93    2
    62    92    91    1
    63    86    85    2
    64    91    94    1
    65    25    28    1
    66    25    24    1
    67    28    29    1
    68   169   166    1
    69   169   170    1
    70    24    21   am
    71   166   165    1
    72    72    74   am
    73    72    73    2
    74    89    87    1
    75    23    20    1
    76    87    88    1
    77    20    21    1
    78    20    19    1
    79    21    22    2
    80    94    95    1
    81    96    95   ar
    82    29    31   ar
    83    29    30   ar
    84     1     2    1
    85    95    97   ar
    86    31    33   ar
    87    30    32   ar
    88    13    12    2
    89    19    12   am
    90     2     5    1
    91     2     3    1
    92    12    11    1
    93    33    34   ar
    94     5     6    1
    95    32    34   ar
    96   108   107    2
    97     3     4    2
    98   164   162   ar
    99   163   162   ar
   100   162   161    1
   101    11    10    1
   102    11    14    1
   103     6     7    1
   104   105   106    1
   105   122   120    1
   106   107   106    1
   107   107   116   am
   108   114   113    1
   109   109   106    1
   110   109   110    1
   111     8     7    2
   112   161   158    1
   113     7     9   am
   114    15    14    1
   115    15    16    1
   116   111   110    1
   117   111   112    1
   118   160   159    2
   119   117   120    1
   120   117   116    1
   121   117   118    1
   122   120   121    1
   123   158   159    1
   124   158   157    1
   125    18    16   am
   126   113   112    2
   127   113   115    1
   128    16    17    2
   129   118   119    2
   130   157   155   am
   131   121   123    1
   132   156   155    2
   133   155   154    1
   134   152   150   am
   135   141   143   ar
   136   141   139   ar
   137   154   153    1
   138   153   146   am
   139   143   142   ar
   140   139   138   ar
   141   150   149    1
   142   150   151    2
   143   148   149    1
   144   148   145    1
   145   146   145    1
   146   146   147    2
   147   131   130   ar
   148   145   144    1
   149   142   140   ar
   150   138   140   ar
   151   138   137    1
   152   134   137    1
   153   134   133    1
   154   134   135    1
   155   133   126   am
   156   130   132   ar
   157   130   129    1
   158   135   136    2
   159   128   129    1
   160   128   125    1
   161   126   125    1
   162   126   127    2
   163   125   124    1
