@<TRIPOS>MOLECULE
tmp/4fomA02.pdb
 84 82 0 0 0
SMALL
GASTEIGER

@<TRIPOS>ATOM
      1  N        -23.2770   27.6570  -20.4540 N.3    13  TRP13      -0.1241
      2  CA       -23.4550   27.3200  -21.8800 C.3    13  TRP13       0.1605
      3  C        -24.2440   26.0700  -21.9960 C.2    13  TRP13       0.2264
      4  O        -24.1290   25.2000  -21.1830 O.2    13  TRP13      -0.2867
      5  CB       -22.0910   27.1080  -22.5020 C.3    13  TRP13       0.0550
      6  CG       -22.0400   27.3800  -23.9610 C.ar   13  TRP13       0.0003
      7  CD1      -21.6980   28.5530  -24.5650 C.ar   13  TRP13       0.0946
      8  CD2      -22.2510   26.4470  -25.0300 C.ar   13  TRP13       0.0152
      9  NE1      -21.7170   28.4180  -25.9320 N.ar   13  TRP13      -0.2442
     10  CE2      -22.0240   27.1670  -26.2590 C.ar   13  TRP13       0.0810
     11  CE3      -22.5840   25.1260  -25.0900 C.ar   13  TRP13       0.0012
     12  CZ2      -22.1490   26.5780  -27.4890 C.ar   13  TRP13       0.0191
     13  CZ3      -22.7000   24.5220  -26.3450 C.ar   13  TRP13       0.0001
     14  CH2      -22.4890   25.2430  -27.5170 C.ar   13  TRP13       0.0015
     15  N        -23.4780   31.8540  -26.5120 N.3    83  PHE83      -0.1241
     16  CA       -22.6450   33.0500  -26.1960 C.3    83  PHE83       0.1605
     17  C        -23.4300   34.3590  -26.2370 C.2    83  PHE83       0.2264
     18  O        -23.2100   35.2530  -25.4270 O.2    83  PHE83      -0.2867
     19  CB       -21.4750   33.1550  -27.1730 C.3    83  PHE83       0.0534
     20  CG       -20.2610   32.3990  -26.7430 C.ar   83  PHE83      -0.0203
     21  CD1      -19.5430   32.7960  -25.6260 C.ar   83  PHE83      -0.0042
     22  CD2      -19.8240   31.3060  -27.4580 C.ar   83  PHE83      -0.0042
     23  CE1      -18.4250   32.1050  -25.2230 C.ar   83  PHE83      -0.0003
     24  CE2      -18.6990   30.6130  -27.0640 C.ar   83  PHE83      -0.0003
     25  CZ       -18.0010   31.0130  -25.9420 C.ar   83  PHE83      -0.0000
     26  N        -18.8890   29.1520  -19.8990 N.3   111  VAL111     -0.1245
     27  CA       -18.7470   27.7830  -20.4430 C.3   111  VAL111      0.1561
     28  C        -17.7990   26.9420  -19.6330 C.2   111  VAL111      0.2260
     29  O        -16.7240   27.3910  -19.2170 O.2   111  VAL111     -0.2867
     30  CB       -18.2880   27.7620  -21.9210 C.3   111  VAL111      0.0252
     31  CG1      -18.8530   28.9450  -22.6660 C.3   111  VAL111      0.0019
     32  CG2      -16.7640   27.7120  -22.0250 C.3   111  VAL111      0.0019
     33  N         -9.8360   22.2310  -20.7670 N.3   139  ALA139     -0.1231
     34  CA       -10.0400   22.5690  -22.1720 C.3   139  ALA139      0.1694
     35  C        -11.1630   23.5840  -22.4090 C.2   139  ALA139      0.2592
     36  O        -12.2930   23.4280  -21.9220 O.2   139  ALA139     -0.2718
     37  CB       -10.3010   21.3110  -22.9690 C.3   139  ALA139      0.0304
     38  N        -10.8320   24.6020  -23.1930 N.am  140  THR140     -0.1953
     39  CA       -11.8110   25.5530  -23.7450 C.3   140  THR140      0.1897
     40  C        -12.7060   26.1330  -22.6810 C.2   140  THR140      0.2313
     41  O        -13.8630   26.4520  -22.9380 O.2   140  THR140     -0.2863
     42  CB       -12.6990   24.9040  -24.8190 C.3   140  THR140      0.1794
     43  OG1      -13.8010   24.2410  -24.1960 O.3   140  THR140     -0.2208
     44  CG2      -11.8960   23.8970  -25.6670 C.3   140  THR140      0.0378
     45  N         -8.5080   31.8390  -26.9040 N.3   163  PHE163     -0.1228
     46  CA        -9.1550   31.7710  -28.2540 C.3   163  PHE163      0.1721
     47  C         -9.9150   33.0400  -28.6540 C.2   163  PHE163      0.2437
     48  O        -10.0930   33.9370  -27.8550 O.2   163  PHE163     -0.2733
     49  CB       -10.1110   30.5810  -28.3340 C.3   163  PHE163      0.0547
     50  CG        -9.4590   29.2610  -28.0740 C.ar  163  PHE163     -0.0202
     51  CD1      -10.1440   28.2610  -27.4280 C.ar  163  PHE163     -0.0042
     52  CD2       -8.1440   29.0220  -28.4680 C.ar  163  PHE163     -0.0042
     53  CE1       -9.5510   27.0330  -27.1880 C.ar  163  PHE163     -0.0003
     54  CE2       -7.5410   27.8010  -28.2170 C.ar  163  PHE163     -0.0003
     55  CZ        -8.2460   26.8050  -27.5810 C.ar  163  PHE163     -0.0000
     56  N        -10.3400   33.1060  -29.9230 N.am  164  PRO164     -0.2718
     57  CA       -11.3320   34.0330  -30.3830 C.3   164  PRO164      0.1535
     58  C        -12.6180   33.9460  -29.5920 C.2   164  PRO164      0.2598
     59  O        -13.1750   34.9640  -29.2000 O.2   164  PRO164     -0.2715
     60  CB       -11.5730   33.5720  -31.8090 C.3   164  PRO164      0.0310
     61  CG       -10.2640   33.0980  -32.2520 C.3   164  PRO164      0.0237
     62  CD        -9.6520   32.4580  -31.0510 C.3   164  PRO164      0.0939
     63  N        -13.0940   32.7300  -29.3870 N.am  165  ASN165     -0.1973
     64  CA       -14.3940   32.4940  -28.7070 C.3   165  ASN165      0.1688
     65  C        -14.4760   33.1440  -27.3450 C.2   165  ASN165      0.2292
     66  O        -15.5450   33.1870  -26.7350 O.2   165  ASN165     -0.2864
     67  CB       -14.6760   30.9890  -28.5970 C.3   165  ASN165      0.1181
     68  CG       -15.0950   30.4000  -29.8950 C.2   165  ASN165      0.2629
     69  OD1      -15.5240   31.1170  -30.7840 O.2   165  ASN165     -0.2716
     70  ND2      -15.0280   29.0880  -30.0150 N.am  165  ASN165     -0.0877
     71  N        -12.7790   31.9980  -24.8190 N.3   167  THR167     -0.1218
     72  CA       -12.4530   30.9080  -23.8720 C.3   167  THR167      0.1862
     73  C        -10.9850   30.5610  -23.9880 C.2   167  THR167      0.2287
     74  O        -10.2770   31.0870  -24.8460 O.2   167  THR167     -0.2866
     75  CB       -13.2680   29.6040  -24.1360 C.3   167  THR167      0.1770
     76  OG1      -12.7420   28.9240  -25.2800 O.3   167  THR167     -0.2211
     77  CG2      -14.6920   29.8980  -24.3660 C.3   167  THR167      0.0375
     78  N         -7.6910   27.3760  -22.9470 N.3   169  THR169     -0.1218
     79  CA        -7.2440   26.0690  -22.4460 C.3   169  THR169      0.1862
     80  C         -5.8890   26.1910  -21.7500 C.2   169  THR169      0.2287
     81  O         -4.9330   26.7340  -22.3100 O.2   169  THR169     -0.2866
     82  CB        -7.1600   25.0250  -23.5820 C.3   169  THR169      0.1770
     83  OG1       -8.4780   24.6090  -23.9430 O.3   169  THR169     -0.2211
     84  CG2       -6.3840   23.8400  -23.1500 C.3   169  THR169      0.0375
@<TRIPOS>BOND
     1    61    60    1
     2    61    62    1
     3    60    57    1
     4    62    56    1
     5    69    68    2
     6    57    56    1
     7    57    58    1
     8    70    68   am
     9    56    47   am
    10    68    67    1
    11    58    63   am
    12    58    59    2
    13    63    64    1
    14    64    67    1
    15    64    65    1
    16    47    46    1
    17    47    48    2
    18    52    54   ar
    19    52    50   ar
    20    49    46    1
    21    49    50    1
    22    46    45    1
    23    54    55   ar
    24    50    51   ar
    25    55    53   ar
    26    14    12   ar
    27    14    13   ar
    28    12    10   ar
    29    22    24   ar
    30    22    20   ar
    31    51    53   ar
    32    65    66    2
    33    19    20    1
    34    19    16    1
    35    24    25   ar
    36    20    21   ar
    37    15    16    1
    38    13    11   ar
    39    10     9   ar
    40    10     8   ar
    41    17    16    1
    42    17    18    2
    43    25    23   ar
    44     9     7   ar
    45    44    42    1
    46    21    23   ar
    47    76    75    1
    48    11     8   ar
    49     8     6   ar
    50    74    73    2
    51    42    43    1
    52    42    39    1
    53    71    72    1
    54     7     6   ar
    55    77    75    1
    56    75    72    1
    57    73    72    1
    58     6     5    1
    59    83    82    1
    60    39    38    1
    61    39    40    1
    62    82    84    1
    63    82    79    1
    64    38    35   am
    65    37    34    1
    66    78    79    1
    67    41    40    2
    68    31    30    1
    69     5     2    1
    70    79    80    1
    71    35    34    1
    72    35    36    2
    73    81    80    2
    74    34    33    1
    75    32    30    1
    76     3     2    1
    77     3     4    2
    78    30    27    1
    79     2     1    1
    80    27    26    1
    81    27    28    1
    82    28    29    2
