@<TRIPOS>MOLECULE
tmp/4foqA00.pdb
 144 136 0 0 0
SMALL
GASTEIGER

@<TRIPOS>ATOM
      1  N          3.1840  -14.1230  -35.4150 N.3   207  ARG207     -0.1231
      2  CA         2.2530  -13.4730  -34.5060 C.3   207  ARG207      0.1694
      3  C          0.9440  -14.2580  -34.5170 C.2   207  ARG207      0.2591
      4  O          0.7120  -15.0890  -35.3940 O.2   207  ARG207     -0.2718
      5  CB         2.0060  -12.0090  -34.9240 C.3   207  ARG207      0.0321
      6  CG         3.0190  -10.9680  -34.3840 C.3   207  ARG207      0.0489
      7  CD         2.3330   -9.5840  -34.1830 C.3   207  ARG207      0.2205
      8  NE         1.2500   -9.6670  -33.2040 N.pl3 207  ARG207     -0.0865
      9  CZ         0.3750   -8.6960  -32.9490 C.cat 207  ARG207      0.5346
     10  NH1        0.4640   -7.5280  -33.5790 N.pl3 207  ARG207      0.1354
     11  NH2       -0.5710   -8.8850  -32.0320 N.pl3 207  ARG207      0.1354
     12  N          0.0790  -13.9670  -33.5520 N.am  208  ILE208     -0.1980
     13  CA        -1.2760  -14.5210  -33.5160 C.3   208  ILE208      0.1595
     14  C         -1.3130  -16.0530  -33.3930 C.2   208  ILE208      0.2287
     15  O         -1.7630  -16.7460  -34.3100 O.2   208  ILE208     -0.2864
     16  CB        -2.1390  -14.0690  -34.7290 C.3   208  ILE208      0.0276
     17  CG1       -1.7420  -12.6620  -35.2320 C.3   208  ILE208      0.0022
     18  CG2       -3.5980  -14.0960  -34.3560 C.3   208  ILE208      0.0022
     19  CD1       -1.9480  -11.5050  -34.2120 C.3   208  ILE208      0.0001
     20  N          4.7000  -14.4360  -40.5680 N.3   226  ARG226     -0.1245
     21  CA         4.8300  -13.0770  -41.1050 C.3   226  ARG226      0.1563
     22  C          6.2170  -12.7880  -41.6640 C.2   226  ARG226      0.2260
     23  O          7.2210  -12.8310  -40.9470 O.2   226  ARG226     -0.2867
     24  CB         4.4420  -12.0320  -40.0450 C.3   226  ARG226      0.0307
     25  CG         3.0350  -12.2260  -39.4780 C.3   226  ARG226      0.0489
     26  CD         2.5350  -10.9750  -38.7880 C.3   226  ARG226      0.2205
     27  NE         1.1100  -11.0570  -38.4680 N.pl3 226  ARG226     -0.0865
     28  CZ         0.4120  -10.0860  -37.8800 C.cat 226  ARG226      0.5346
     29  NH1        1.0070   -8.9570  -37.5310 N.pl3 226  ARG226      0.1354
     30  NH2       -0.8770  -10.2530  -37.6290 N.pl3 226  ARG226      0.1354
     31  N          1.0640   -6.0060  -39.3080 N.3   232  ASP232     -0.1239
     32  CA        -0.2010   -6.5640  -39.8220 C.3   232  ASP232      0.1674
     33  C         -0.2380   -6.3450  -41.3340 C.2   232  ASP232      0.2266
     34  O          0.5070   -5.5100  -41.8620 O.2   232  ASP232     -0.2867
     35  CB        -1.4230   -5.8350  -39.2380 C.3   232  ASP232      0.1410
     36  CG        -1.7350   -6.2220  -37.8020 C.2   232  ASP232      0.3668
     37  OD1       -2.8610   -5.8950  -37.3510 O.co2 232  ASP232     -0.2456
     38  OD2       -0.8840   -6.8410  -37.1250 O.co2 232  ASP232     -0.2456
     39  N         -4.4260  -13.3900  -42.4990 N.3   288  ILE288     -0.1231
     40  CA        -4.1170  -12.8230  -41.1930 C.3   288  ILE288      0.1692
     41  C         -5.1770  -13.2100  -40.1920 C.2   288  ILE288      0.2592
     42  O         -6.3590  -13.1680  -40.5080 O.2   288  ILE288     -0.2718
     43  CB        -3.9000  -11.2680  -41.2600 C.3   288  ILE288      0.0266
     44  CG1       -3.5990  -10.6820  -39.8800 C.3   288  ILE288      0.0019
     45  CG2       -5.0850  -10.5490  -41.9100 C.3   288  ILE288      0.0020
     46  CD1       -3.1180   -9.2030  -39.9490 C.3   288  ILE288      0.0001
     47  N         -4.7290  -13.6060  -39.0010 N.am  289  ASP289     -0.1974
     48  CA        -5.5880  -14.0570  -37.9090 C.3   289  ASP289      0.1709
     49  C         -6.2890  -15.3650  -38.2660 C.2   289  ASP289      0.2293
     50  O         -7.1240  -15.4040  -39.1560 O.2   289  ASP289     -0.2864
     51  CB        -6.6240  -12.9900  -37.5340 C.3   289  ASP289      0.1436
     52  CG        -5.9900  -11.7010  -37.0330 C.2   289  ASP289      0.3671
     53  OD1       -4.7700  -11.6780  -36.7830 O.co2 289  ASP289     -0.2456
     54  OD2       -6.7250  -10.7090  -36.8800 O.co2 289  ASP289     -0.2456
     55  N         -6.6660   -4.1990  -43.2420 N.3   314  ASN314     -0.1240
     56  CA        -7.9230   -3.6800  -42.7120 C.3   314  ASN314      0.1653
     57  C         -8.0410   -2.1630  -42.8610 C.2   314  ASN314      0.2266
     58  O         -9.1300   -1.6490  -43.0570 O.2   314  ASN314     -0.2867
     59  CB        -8.1160   -4.0860  -41.2440 C.3   314  ASN314      0.1155
     60  CG        -8.5480   -5.5520  -41.0750 C.2   314  ASN314      0.2627
     61  OD1       -9.2220   -6.1310  -41.9360 O.2   314  ASN314     -0.2716
     62  ND2       -8.1720   -6.1430  -39.9450 N.am  314  ASN314     -0.0877
     63  N        -16.0750  -10.0710  -35.5230 N.3   471  TYR471     -0.1241
     64  CA       -16.5870   -8.7710  -35.0950 C.3   471  TYR471      0.1605
     65  C        -16.5740   -7.7410  -36.2120 C.2   471  TYR471      0.2264
     66  O        -15.9120   -7.8980  -37.2490 O.2   471  TYR471     -0.2867
     67  CB       -15.8010   -8.2250  -33.8960 C.3   471  TYR471      0.0534
     68  CG       -14.3830   -7.8140  -34.2320 C.ar  471  TYR471     -0.0201
     69  CD1      -14.0670   -6.4910  -34.5140 C.ar  471  TYR471     -0.0009
     70  CD2      -13.3630   -8.7530  -34.2750 C.ar  471  TYR471     -0.0009
     71  CE1      -12.7620   -6.1130  -34.8200 C.ar  471  TYR471      0.0417
     72  CE2      -12.0690   -8.3890  -34.5730 C.ar  471  TYR471      0.0417
     73  CZ       -11.7780   -7.0620  -34.8520 C.ar  471  TYR471      0.1957
     74  OH       -10.4820   -6.7090  -35.1620 O.3   471  TYR471     -0.2866
     75  N        -11.7120   -3.1960  -31.6390 N.3   501  THR501     -0.1218
     76  CA       -11.0730   -4.4200  -32.0910 C.3   501  THR501      0.1862
     77  C        -11.5870   -5.4870  -31.1270 C.2   501  THR501      0.2287
     78  O        -10.8820   -5.8890  -30.2080 O.2   501  THR501     -0.2866
     79  CB        -9.5400   -4.2830  -31.9860 C.3   501  THR501      0.1770
     80  OG1       -9.1260   -3.1260  -32.7260 O.3   501  THR501     -0.2211
     81  CG2       -8.8170   -5.5220  -32.5250 C.3   501  THR501      0.0375
     82  N        -11.9410   -8.5320  -30.3460 N.3   503  GLU503     -0.1245
     83  CA       -11.5310   -9.9340  -30.4390 C.3   503  GLU503      0.1567
     84  C        -12.1430  -10.7200  -29.2820 C.2   503  GLU503      0.2260
     85  O        -11.9220  -10.3880  -28.1060 O.2   503  GLU503     -0.2867
     86  CB       -10.0020  -10.0450  -30.4600 C.3   503  GLU503      0.0388
     87  CG        -9.3690   -9.4210  -31.7230 C.3   503  GLU503      0.1160
     88  CD        -7.9410   -8.9730  -31.5030 C.2   503  GLU503      0.3649
     89  OE1       -7.1990   -8.7910  -32.4980 O.co2 503  GLU503     -0.2457
     90  OE2       -7.5420   -8.8240  -30.3290 O.co2 503  GLU503     -0.2457
     91  N        -12.1540   -8.2980  -26.0390 N.3   519  ARG519     -0.1245
     92  CA       -11.3650   -7.0700  -25.9850 C.3   519  ARG519      0.1563
     93  C        -12.2330   -5.8550  -26.2640 C.2   519  ARG519      0.2260
     94  O        -13.1100   -5.8950  -27.1370 O.2   519  ARG519     -0.2867
     95  CB       -10.2700   -7.1700  -27.0530 C.3   519  ARG519      0.0307
     96  CG        -9.4140   -5.9490  -27.2550 C.3   519  ARG519      0.0489
     97  CD        -8.4200   -6.2470  -28.3600 C.3   519  ARG519      0.2205
     98  NE        -7.6990   -5.0580  -28.7790 N.pl3 519  ARG519     -0.0865
     99  CZ        -6.6800   -5.0810  -29.6260 C.cat 519  ARG519      0.5346
    100  NH1       -6.2670   -6.2390  -30.1380 N.pl3 519  ARG519      0.1354
    101  NH2       -6.0770   -3.9510  -29.9540 N.pl3 519  ARG519      0.1354
    102  N          1.4370   -4.0800  -23.1140 N.3   581  ARG581     -0.1245
    103  CA         1.1690   -5.5160  -23.1890 C.3   581  ARG581      0.1563
    104  C          2.2740   -6.2460  -22.4350 C.2   581  ARG581      0.2260
    105  O          3.3030   -6.6330  -23.0000 O.2   581  ARG581     -0.2867
    106  CB         1.0560   -5.9700  -24.6520 C.3   581  ARG581      0.0307
    107  CG        -0.1140   -5.3020  -25.3910 C.3   581  ARG581      0.0489
    108  CD        -0.3090   -5.8220  -26.8150 C.3   581  ARG581      0.2205
    109  NE        -1.6490   -5.5110  -27.3410 N.pl3 581  ARG581     -0.0865
    110  CZ        -1.9650   -5.5230  -28.6330 C.cat 581  ARG581      0.5346
    111  NH1       -1.0480   -5.8470  -29.5450 N.pl3 581  ARG581      0.1354
    112  NH2       -3.1900   -5.2200  -29.0170 N.pl3 581  ARG581      0.1354
    113  N         -0.6980  -11.2940  -27.4670 N.3   615  TYR615     -0.1241
    114  CA        -1.7030  -12.2710  -27.8970 C.3   615  TYR615      0.1605
    115  C         -1.3290  -13.6420  -27.3580 C.2   615  TYR615      0.2264
    116  O         -0.1510  -13.9370  -27.1650 O.2   615  TYR615     -0.2867
    117  CB        -1.8350  -12.3220  -29.4180 C.3   615  TYR615      0.0534
    118  CG        -2.6850  -11.2130  -30.0120 C.ar  615  TYR615     -0.0201
    119  CD1       -2.5260   -9.8870  -29.6030 C.ar  615  TYR615     -0.0009
    120  CD2       -3.6150  -11.4810  -31.0000 C.ar  615  TYR615     -0.0009
    121  CE1       -3.2850   -8.8580  -30.1610 C.ar  615  TYR615      0.0417
    122  CE2       -4.3740  -10.4720  -31.5680 C.ar  615  TYR615      0.0417
    123  CZ        -4.2040   -9.1590  -31.1470 C.ar  615  TYR615      0.1957
    124  OH        -4.9670   -8.1640  -31.7170 O.3   615  TYR615     -0.2866
    125  N          3.6010   -6.4640  -28.4280 N.3   635  SER635     -0.1202
    126  CA         3.3500   -6.4200  -29.8640 C.3   635  SER635      0.2020
    127  C          2.5920   -5.1630  -30.2810 C.2   635  SER635      0.2618
    128  O          2.2110   -5.0200  -31.4450 O.2   635  SER635     -0.2717
    129  CB         2.5990   -7.6670  -30.3180 C.3   635  SER635      0.2103
    130  OG         1.3470   -7.7310  -29.6800 O.3   635  SER635     -0.2182
    131  N          2.3730   -4.2500  -29.3370 N.am  636  TRP636     -0.1975
    132  CA         1.8260   -2.9310  -29.6720 C.3   636  TRP636      0.1640
    133  C          2.9620   -1.9280  -29.8430 C.2   636  TRP636      0.2290
    134  O          2.9430   -1.0750  -30.7460 O.2   636  TRP636     -0.2864
    135  CB         0.8680   -2.4470  -28.5690 C.3   636  TRP636      0.0576
    136  CG         0.1320   -1.1700  -28.9280 C.ar  636  TRP636      0.0006
    137  CD1        0.4830    0.1120  -28.5900 C.ar  636  TRP636      0.0946
    138  CD2       -1.0700   -1.0650  -29.6970 C.ar  636  TRP636      0.0152
    139  NE1       -0.4380    1.0020  -29.0990 N.ar  636  TRP636     -0.2442
    140  CE2       -1.4010    0.3020  -29.7840 C.ar  636  TRP636      0.0810
    141  CE3       -1.9120   -2.0040  -30.3200 C.ar  636  TRP636      0.0012
    142  CZ2       -2.5250    0.7590  -30.4670 C.ar  636  TRP636      0.0191
    143  CZ3       -3.0270   -1.5550  -30.9880 C.ar  636  TRP636      0.0001
    144  CH2       -3.3250   -0.1830  -31.0620 C.ar  636  TRP636      0.0015
@<TRIPOS>BOND
     1    55    56    1
     2    58    57    2
     3    57    56    1
     4    56    59    1
     5    39    40    1
     6    61    60    2
     7    45    43    1
     8    34    33    2
     9    22    21    1
    10    22    23    2
    11    33    32    1
    12    43    40    1
    13    43    44    1
    14    59    60    1
    15    40    41    1
    16    21    20    1
    17    21    24    1
    18    60    62   am
    19    42    41    2
    20    41    47   am
    21    24    25    1
    22    46    44    1
    23    32    31    1
    24    32    35    1
    25    25    26    1
    26    35    36    1
    27    50    49    2
    28    47    48    1
    29    26    27    1
    30    27    28    2
    31    49    48    1
    32    48    51    1
    33    28    30    1
    34    28    29    1
    35    36    37   ar
    36    36    38   ar
    37    51    52    1
    38    66    65    2
    39    52    54   ar
    40    52    53   ar
    41    65    64    1
    42    63    64    1
    43     1     2    1
    44     4     3    2
    45    17    16    1
    46    17    19    1
    47    74    73    1
    48    64    67    1
    49     5     2    1
    50     5     6    1
    51    73    71   ar
    52    73    72   ar
    53    71    69   ar
    54    16    18    1
    55    16    13    1
    56    72    70   ar
    57     3     2    1
    58     3    12   am
    59    69    68   ar
    60     6     7    1
    61    15    14    2
    62    70    68   ar
    63    68    67    1
    64     7     8    1
    65    10     9    1
    66    12    13    1
    67    13    14    1
    68     8     9    2
    69     9    11    1
    70    80    79    1
    71    81    79    1
    72    89    88   ar
    73    76    79    1
    74    76    75    1
    75    76    77    1
    76    87    88    1
    77    87    86    1
    78   124   123    1
    79   122   123   ar
    80   122   120   ar
    81    88    90   ar
    82   128   127    2
    83   123   121   ar
    84    77    78    2
    85   144   143   ar
    86   144   142   ar
    87   120   118   ar
    88   143   141   ar
    89   134   133    2
    90   142   140   ar
    91    86    83    1
    92    83    82    1
    93    83    84    1
    94   141   138   ar
    95   129   126    1
    96   129   130    1
    97   127   126    1
    98   127   131   am
    99   121   119   ar
   100   100    99    1
   101   118   119   ar
   102   118   117    1
   103   101    99    1
   104   126   125    1
   105   133   132    1
   106   140   138   ar
   107   140   139   ar
   108   138   136   ar
   109   132   131    1
   110   132   135    1
   111    99    98    2
   112   111   110    1
   113   117   114    1
   114    84    85    2
   115   139   137   ar
   116   112   110    1
   117   136   137   ar
   118   136   135    1
   119    98    97    1
   120   110   109    2
   121    97    96    1
   122   114   113    1
   123   114   115    1
   124   115   116    2
   125   109   108    1
   126    96    95    1
   127    94    93    2
   128    95    92    1
   129   108   107    1
   130    93    92    1
   131    91    92    1
   132   107   106    1
   133   106   103    1
   134   103   102    1
   135   103   104    1
   136   105   104    2
