@<TRIPOS>MOLECULE
tmp/4forA04.pdb
 92 90 0 0 0
SMALL
GASTEIGER

@<TRIPOS>ATOM
      1  N         18.4240   16.3130   10.5860 N.3    89  THR89      -0.1218
      2  CA        18.0140   14.9120   10.3450 C.3    89  THR89       0.1862
      3  C         16.5600   14.9020    9.8480 C.2    89  THR89       0.2287
      4  O         15.7930   15.7840   10.2230 O.2    89  THR89      -0.2866
      5  CB        18.1160   14.0320   11.6100 C.3    89  THR89       0.1770
      6  OG1       17.3580   14.6370   12.6520 O.3    89  THR89      -0.2211
      7  CG2       19.5890   13.8850   12.0610 C.3    89  THR89       0.0375
      8  N         13.6870   12.2710    9.8670 N.3    91  GLY91      -0.1225
      9  CA        13.3200   10.9030   10.3910 C.3    91  GLY91       0.1811
     10  C         13.2300    9.7880    9.3140 C.2    91  GLY91       0.2280
     11  O         13.1780   10.0180    8.0920 O.2    91  GLY91      -0.2866
     12  N          6.4120    8.7110   11.0040 N.3   250  VAL250     -0.1231
     13  CA         7.7870    9.1040   10.7530 C.3   250  VAL250      0.1692
     14  C          8.4970    9.0220   12.1390 C.2   250  VAL250      0.2592
     15  O          7.9760    9.5460   13.1580 O.2   250  VAL250     -0.2718
     16  CB         7.9230   10.6050   10.3290 C.3   250  VAL250      0.0266
     17  CG1        9.4110   10.9800   10.1920 C.3   250  VAL250      0.0020
     18  CG2        7.2060   10.7800    8.9600 C.3   250  VAL250      0.0020
     19  N          9.5840    8.2510   12.2350 N.am  251  ALA251     -0.1966
     20  CA        10.3640    8.0040   13.5130 C.3   251  ALA251      0.1713
     21  C         11.5300    8.9640   13.5790 C.2   251  ALA251      0.2458
     22  O         12.1980    9.2950   12.6300 O.2   251  ALA251     -0.2730
     23  CB        10.9700    6.6140   13.3930 C.3   251  ALA251      0.0333
     24  N         11.8850    9.3980   14.8450 N.am  252  PRO252     -0.2716
     25  CA        13.0820   10.1910   15.0420 C.3   252  PRO252      0.1536
     26  C         14.3320    9.3060   14.8300 C.2   252  PRO252      0.2598
     27  O         14.2990    8.1060   15.2160 O.2   252  PRO252     -0.2715
     28  CB        12.9240   10.7020   16.4980 C.3   252  PRO252      0.0310
     29  CG        12.2080    9.5640   17.1430 C.3   252  PRO252      0.0237
     30  CD        11.1650    9.0370   16.0860 C.3   252  PRO252      0.0939
     31  N         15.3690    9.7850   14.1970 N.am  253  ASN253     -0.1973
     32  CA        16.5590    8.9630   13.8980 C.3   253  ASN253      0.1688
     33  C         17.2050    8.4400   15.1650 C.2   253  ASN253      0.2292
     34  O         17.1040    9.0310   16.2560 O.2   253  ASN253     -0.2864
     35  CB        17.6490    9.7570   13.1240 C.3   253  ASN253      0.1181
     36  CG        17.3140    9.9390   11.6710 C.2   253  ASN253      0.2629
     37  OD1       16.4300    9.2820   11.1730 O.2   253  ASN253     -0.2716
     38  ND2       18.1140   10.7310   10.9670 N.am  253  ASN253     -0.0877
     39  N         12.2770   16.7790   23.5210 N.3   318  GLU318     -0.1231
     40  CA        12.3080   17.6000   22.3540 C.3   318  GLU318      0.1699
     41  C         12.8450   16.8420   21.1100 C.2   318  GLU318      0.2592
     42  O         12.3570   17.0290   19.9520 O.2   318  GLU318     -0.2718
     43  CB        13.1800   18.8540   22.5970 C.3   318  GLU318      0.0402
     44  CG        12.4860   19.9080   23.3860 C.3   318  GLU318      0.1161
     45  CD        13.4510   20.9880   23.7860 C.2   318  GLU318      0.3649
     46  OE1       14.6210   20.8260   24.0810 O.co2 318  GLU318     -0.2457
     47  OE2       13.0250   22.1880   23.6180 O.co2 318  GLU318     -0.2457
     48  N         13.7990   15.9440   21.3280 N.am  319  TYR319     -0.1962
     49  CA        14.4450   15.1990   20.2200 C.3   319  TYR319      0.1771
     50  C         13.3820   14.1750   19.6920 C.2   319  TYR319      0.2619
     51  O         13.2510   14.1120   18.4440 O.2   319  TYR319     -0.2715
     52  CB        15.6820   14.4440   20.8020 C.3   319  TYR319      0.0574
     53  CG        16.2870   13.6540   19.7100 C.ar  319  TYR319     -0.0198
     54  CD1       16.9710   14.2520   18.6730 C.ar  319  TYR319     -0.0009
     55  CD2       16.0210   12.2960   19.5970 C.ar  319  TYR319     -0.0009
     56  CE1       17.4750   13.6160   17.5390 C.ar  319  TYR319      0.0417
     57  CE2       16.4960   11.6450   18.4870 C.ar  319  TYR319      0.0417
     58  CZ        17.1760   12.2440   17.4610 C.ar  319  TYR319      0.1957
     59  OH        17.7030   11.6210   16.3490 O.3   319  TYR319     -0.2866
     60  N         12.6730   13.4990   20.6260 N.am  320  LEU320     -0.1963
     61  CA        11.6760   12.4680   20.2030 C.3   320  LEU320      0.1728
     62  C         10.4440   13.1630   19.5460 C.2   320  LEU320      0.2616
     63  O          9.8250   12.5740   18.5990 O.2   320  LEU320     -0.2715
     64  CB        11.2050   11.6210   21.3260 C.3   320  LEU320      0.0311
     65  CG        12.4170   10.7430   21.8020 C.3   320  LEU320      0.0022
     66  CD1       11.8980    9.9240   22.9500 C.3   320  LEU320      0.0001
     67  CD2       12.9900    9.7600   20.6800 C.3   320  LEU320      0.0001
     68  N         10.1180   14.3900   20.0730 N.am  321  GLY321     -0.1955
     69  CA         8.9130   15.1120   19.6920 C.3   321  GLY321      0.1869
     70  C          7.7420   14.7460   20.5760 C.2   321  GLY321      0.2309
     71  O          7.4950   13.5880   20.9840 O.2   321  GLY321     -0.2863
     72  N          4.4800   14.4490   20.2290 N.3   323  GLU323     -0.1231
     73  CA         3.5460   13.4660   19.6760 C.3   323  GLU323      0.1699
     74  C          4.0230   12.0370   19.9940 C.2   323  GLU323      0.2592
     75  O          3.2750   11.2380   20.5990 O.2   323  GLU323     -0.2718
     76  CB         3.4580   13.5870   18.1880 C.3   323  GLU323      0.0402
     77  CG         2.3060   14.4970   17.7690 C.3   323  GLU323      0.1161
     78  CD         2.1580   14.6130   16.2550 C.2   323  GLU323      0.3649
     79  OE1        2.6870   13.7530   15.4800 O.co2 323  GLU323     -0.2457
     80  OE2        1.5000   15.5960   15.8460 O.co2 323  GLU323     -0.2457
     81  N          5.2640   11.7750   19.6760 N.am  324  TYR324     -0.1976
     82  CA         5.7650   10.3800   19.8710 C.3   324  TYR324      0.1639
     83  C          5.8620   10.0960   21.3130 C.2   324  TYR324      0.2290
     84  O          5.5420    8.9930   21.7750 O.2   324  TYR324     -0.2864
     85  CB         7.1290   10.2370   19.1460 C.3   324  TYR324      0.0560
     86  CG         7.7010    8.8410   19.2750 C.ar  324  TYR324     -0.0198
     87  CD1        6.8950    7.7150   19.1400 C.ar  324  TYR324     -0.0009
     88  CD2        9.0830    8.6840   19.4180 C.ar  324  TYR324     -0.0009
     89  CE1        7.4330    6.4230   19.2690 C.ar  324  TYR324      0.0417
     90  CE2        9.6260    7.3650   19.5170 C.ar  324  TYR324      0.0417
     91  CZ         8.7920    6.3010   19.4500 C.ar  324  TYR324      0.1957
     92  OH         9.3970    5.0740   19.5930 O.3   324  TYR324     -0.2866
@<TRIPOS>BOND
     1    11    10    2
     2    18    16    1
     3    10     9    1
     4     3     4    2
     5     3     2    1
     6     8     9    1
     7    17    16    1
     8    16    13    1
     9     2     1    1
    10     2     5    1
    11    13    12    1
    12    13    14    1
    13    38    36   am
    14    37    36    2
    15     5     7    1
    16     5     6    1
    17    36    35    1
    18    14    19   am
    19    14    15    2
    20    19    20    1
    21    22    21    2
    22    35    32    1
    23    23    20    1
    24    20    21    1
    25    21    24   am
    26    32    31    1
    27    32    33    1
    28    31    26   am
    29    26    25    1
    30    26    27    2
    31    24    25    1
    32    24    30    1
    33    25    28    1
    34    33    34    2
    35    79    78   ar
    36    80    78   ar
    37    30    29    1
    38    78    77    1
    39    59    58    1
    40    28    29    1
    41    58    56   ar
    42    58    57   ar
    43    56    54   ar
    44    77    76    1
    45    76    73    1
    46    51    50    2
    47    57    55   ar
    48    63    62    2
    49    54    53   ar
    50    87    89   ar
    51    87    86   ar
    52    85    86    1
    53    85    82    1
    54    89    91   ar
    55    86    88   ar
    56    88    90   ar
    57    91    90   ar
    58    91    92    1
    59    62    68   am
    60    62    61    1
    61    55    53   ar
    62    81    82    1
    63    81    74   am
    64    73    74    1
    65    73    72    1
    66    50    49    1
    67    50    60   am
    68    69    68    1
    69    69    70    1
    70    53    52    1
    71    82    83    1
    72    42    41    2
    73    74    75    2
    74    61    60    1
    75    61    64    1
    76    49    52    1
    77    49    48    1
    78    70    71    2
    79    67    65    1
    80    41    48   am
    81    41    40    1
    82    83    84    2
    83    64    65    1
    84    65    66    1
    85    40    43    1
    86    40    39    1
    87    43    44    1
    88    44    45    1
    89    47    45   ar
    90    45    46   ar
