@<TRIPOS>MOLECULE
tmp/4fovA00.pdb
 178 168 0 0 0
SMALL
GASTEIGER

@<TRIPOS>ATOM
      1  N          3.1540  -14.0670  -35.4960 N.3   207  ARG207     -0.1231
      2  CA         2.2300  -13.4250  -34.5850 C.3   207  ARG207      0.1694
      3  C          0.9290  -14.2000  -34.6260 C.2   207  ARG207      0.2591
      4  O          0.7120  -15.0290  -35.5180 O.2   207  ARG207     -0.2718
      5  CB         1.9730  -11.9670  -34.9900 C.3   207  ARG207      0.0321
      6  CG         2.9810  -10.9320  -34.4500 C.3   207  ARG207      0.0489
      7  CD         2.3200   -9.5290  -34.3230 C.3   207  ARG207      0.2205
      8  NE         1.2000   -9.5470  -33.3760 N.pl3 207  ARG207     -0.0865
      9  CZ         0.3700   -8.5310  -33.1400 C.cat 207  ARG207      0.5346
     10  NH1        0.5030   -7.3600  -33.7790 N.pl3 207  ARG207      0.1354
     11  NH2       -0.6000   -8.6870  -32.2410 N.pl3 207  ARG207      0.1354
     12  N          0.0580  -13.8900  -33.6730 N.am  208  ILE208     -0.1980
     13  CA        -1.2990  -14.4060  -33.6510 C.3   208  ILE208      0.1595
     14  C         -1.3420  -15.9340  -33.5070 C.2   208  ILE208      0.2287
     15  O         -1.8200  -16.6360  -34.4000 O.2   208  ILE208     -0.2864
     16  CB        -2.1080  -13.9560  -34.9030 C.3   208  ILE208      0.0276
     17  CG1       -1.7380  -12.5230  -35.3460 C.3   208  ILE208      0.0022
     18  CG2       -3.5800  -14.0440  -34.6210 C.3   208  ILE208      0.0022
     19  CD1       -1.9530  -11.4380  -34.2990 C.3   208  ILE208      0.0001
     20  N          4.6380  -14.3280  -40.6900 N.3   226  ARG226     -0.1245
     21  CA         4.7510  -12.9820  -41.2360 C.3   226  ARG226      0.1563
     22  C          6.1330  -12.6900  -41.8360 C.2   226  ARG226      0.2260
     23  O          7.1620  -12.7140  -41.1550 O.2   226  ARG226     -0.2867
     24  CB         4.3330  -11.9280  -40.1950 C.3   226  ARG226      0.0307
     25  CG         2.9390  -12.1610  -39.6010 C.3   226  ARG226      0.0489
     26  CD         2.4430  -10.9290  -38.8470 C.3   226  ARG226      0.2205
     27  NE         1.0330  -11.0350  -38.4800 N.pl3 226  ARG226     -0.0865
     28  CZ         0.3110  -10.0530  -37.9370 C.cat 226  ARG226      0.5346
     29  NH1        0.8500   -8.8670  -37.6780 N.pl3 226  ARG226      0.1354
     30  NH2       -0.9600  -10.2590  -37.6490 N.pl3 226  ARG226      0.1354
     31  N          0.9200   -5.9770  -39.4400 N.3   232  ASP232     -0.1225
     32  CA        -0.3450   -6.4920  -39.9820 C.3   232  ASP232      0.1805
     33  C         -0.3410   -6.2550  -41.4930 C.2   232  ASP232      0.2598
     34  O          0.4430   -5.4520  -41.9970 O.2   232  ASP232     -0.2718
     35  CB        -1.5590   -5.7230  -39.4300 C.3   232  ASP232      0.1424
     36  CG        -1.9160   -6.0760  -37.9870 C.2   232  ASP232      0.3668
     37  OD1       -2.9880   -5.6060  -37.5360 O.co2 232  ASP232     -0.2456
     38  OD2       -1.1590   -6.7890  -37.2970 O.co2 232  ASP232     -0.2456
     39  N         -1.2340   -6.9360  -42.2040 N.am  233  SER233     -0.1952
     40  CA        -1.4890   -6.6410  -43.6030 C.3   233  SER233      0.1924
     41  C         -1.7530   -5.1320  -43.7530 C.2   233  SER233      0.2314
     42  O         -2.3250   -4.5230  -42.8520 O.2   233  SER233     -0.2863
     43  CB        -2.7000   -7.4430  -44.0850 C.3   233  SER233      0.2116
     44  OG        -2.5290   -8.8320  -43.8480 O.3   233  SER233     -0.2180
     45  N         -4.3940  -13.5990  -42.6200 N.3   288  ILE288     -0.1231
     46  CA        -4.0880  -13.0230  -41.3090 C.3   288  ILE288      0.1692
     47  C         -5.1990  -13.2980  -40.3020 C.2   288  ILE288      0.2592
     48  O         -6.3610  -13.3190  -40.6720 O.2   288  ILE288     -0.2718
     49  CB        -3.7970  -11.4930  -41.4350 C.3   288  ILE288      0.0266
     50  CG1       -3.4000  -10.8740  -40.0930 C.3   288  ILE288      0.0019
     51  CG2       -4.9760  -10.7500  -42.0610 C.3   288  ILE288      0.0020
     52  CD1       -2.8710   -9.4470  -40.2490 C.3   288  ILE288      0.0001
     53  N         -4.8290  -13.5010  -39.0380 N.am  289  ASP289     -0.1974
     54  CA        -5.7610  -13.8620  -37.9580 C.3   289  ASP289      0.1709
     55  C         -6.4760  -15.1890  -38.2430 C.2   289  ASP289      0.2293
     56  O         -7.5240  -15.2220  -38.8870 O.2   289  ASP289     -0.2864
     57  CB        -6.8000  -12.7560  -37.6900 C.3   289  ASP289      0.1436
     58  CG        -6.1790  -11.4700  -37.1440 C.2   289  ASP289      0.3671
     59  OD1       -4.9740  -11.4570  -36.8290 O.co2 289  ASP289     -0.2456
     60  OD2       -6.9090  -10.4620  -37.0160 O.co2 289  ASP289     -0.2456
     61  N         -8.6590  -14.3640  -42.0490 N.3   306  ASP306     -0.1239
     62  CA        -8.9650  -13.2470  -42.9520 C.3   306  ASP306      0.1674
     63  C         -8.1110  -13.3710  -44.2110 C.2   306  ASP306      0.2266
     64  O         -6.9910  -13.8930  -44.1650 O.2   306  ASP306     -0.2867
     65  CB        -8.6870  -11.8880  -42.3080 C.3   306  ASP306      0.1410
     66  CG        -9.4500  -11.6680  -41.0090 C.2   306  ASP306      0.3668
     67  OD1      -10.5030  -12.3130  -40.7880 O.co2 306  ASP306     -0.2456
     68  OD2       -8.9800  -10.8330  -40.2010 O.co2 306  ASP306     -0.2456
     69  N         -6.6030  -11.0860  -47.5470 N.3   308  MET308     -0.1245
     70  CA        -6.3400   -9.7440  -48.0640 C.3   308  MET308      0.1570
     71  C         -5.7260   -9.8060  -49.4670 C.2   308  MET308      0.2261
     72  O         -4.6650  -10.3940  -49.6650 O.2   308  MET308     -0.2867
     73  CB        -5.3990   -8.9780  -47.1200 C.3   308  MET308      0.0387
     74  CG        -5.8930   -8.8680  -45.6700 C.3   308  MET308      0.0595
     75  SD        -7.1860   -7.6200  -45.4550 S.3   308  MET308     -0.1393
     76  CE        -7.4930   -7.7450  -43.6990 C.3   308  MET308      0.0692
     77  N         -6.3060   -3.8150  -43.3600 N.3   314  ASN314     -0.1240
     78  CA        -7.4540   -3.2730  -42.6510 C.3   314  ASN314      0.1653
     79  C         -7.7890   -1.8210  -43.0110 C.2   314  ASN314      0.2266
     80  O         -8.9540   -1.4740  -43.1930 O.2   314  ASN314     -0.2867
     81  CB        -7.2060   -3.4190  -41.1430 C.3   314  ASN314      0.1155
     82  CG        -8.1420   -2.5750  -40.3010 C.2   314  ASN314      0.2627
     83  OD1       -9.3370   -2.4460  -40.5980 O.2   314  ASN314     -0.2716
     84  ND2       -7.6010   -1.9970  -39.2310 N.am  314  ASN314     -0.0877
     85  N        -14.2920   -9.3170  -39.3190 N.3   451  TYR451     -0.1241
     86  CA       -12.9410   -9.7460  -39.0210 C.3   451  TYR451      0.1605
     87  C        -12.9710  -10.9290  -38.0700 C.2   451  TYR451      0.2264
     88  O        -13.5930  -10.8620  -37.0170 O.2   451  TYR451     -0.2867
     89  CB       -12.1320   -8.6020  -38.4030 C.3   451  TYR451      0.0534
     90  CG       -12.0970   -7.3550  -39.2510 C.ar  451  TYR451     -0.0201
     91  CD1      -11.2520   -7.2610  -40.3550 C.ar  451  TYR451     -0.0009
     92  CD2      -12.9000   -6.2670  -38.9450 C.ar  451  TYR451     -0.0009
     93  CE1      -11.2180   -6.1140  -41.1340 C.ar  451  TYR451      0.0417
     94  CE2      -12.8710   -5.1210  -39.7110 C.ar  451  TYR451      0.0417
     95  CZ       -12.0270   -5.0470  -40.8020 C.ar  451  TYR451      0.1957
     96  OH       -12.0060   -3.8970  -41.5640 O.3   451  TYR451     -0.2866
     97  N        -15.8680   -9.9890  -35.6490 N.3   471  TYR471     -0.1241
     98  CA       -16.3100   -8.6670  -35.2340 C.3   471  TYR471      0.1605
     99  C        -16.3250   -7.6940  -36.4010 C.2   471  TYR471      0.2264
    100  O        -15.6400   -7.8790  -37.4090 O.2   471  TYR471     -0.2867
    101  CB       -15.4390   -8.1080  -34.0920 C.3   471  TYR471      0.0534
    102  CG       -14.0030   -7.8400  -34.4770 C.ar  471  TYR471     -0.0201
    103  CD1      -13.5840   -6.5610  -34.8510 C.ar  471  TYR471     -0.0009
    104  CD2      -13.0610   -8.8600  -34.4660 C.ar  471  TYR471     -0.0009
    105  CE1      -12.2610   -6.3100  -35.2010 C.ar  471  TYR471      0.0417
    106  CE2      -11.7480   -8.6210  -34.8120 C.ar  471  TYR471      0.0417
    107  CZ       -11.3500   -7.3480  -35.1820 C.ar  471  TYR471      0.1957
    108  OH       -10.0330   -7.1260  -35.5350 O.3   471  TYR471     -0.2866
    109  N        -11.6470   -3.1520  -32.0200 N.3   501  THR501     -0.1218
    110  CA       -11.0560   -4.4420  -32.3360 C.3   501  THR501      0.1862
    111  C        -11.5490   -5.4310  -31.2800 C.2   501  THR501      0.2287
    112  O        -10.8300   -5.7610  -30.3460 O.2   501  THR501     -0.2866
    113  CB        -9.5070   -4.3650  -32.3160 C.3   501  THR501      0.1770
    114  OG1       -9.0780   -3.2810  -33.1490 O.3   501  THR501     -0.2211
    115  CG2       -8.8710   -5.6780  -32.8090 C.3   501  THR501      0.0375
    116  N        -11.9010   -8.5120  -30.4390 N.3   503  GLU503     -0.1245
    117  CA       -11.4780   -9.8970  -30.5350 C.3   503  GLU503      0.1567
    118  C        -12.1160  -10.6970  -29.3980 C.2   503  GLU503      0.2260
    119  O        -11.9350  -10.3760  -28.2150 O.2   503  GLU503     -0.2867
    120  CB        -9.9410   -9.9810  -30.5300 C.3   503  GLU503      0.0388
    121  CG        -9.3290   -9.3130  -31.7620 C.3   503  GLU503      0.1160
    122  CD        -7.8860   -8.9080  -31.5750 C.2   503  GLU503      0.3649
    123  OE1       -7.1610   -8.8320  -32.6000 O.co2 503  GLU503     -0.2457
    124  OE2       -7.4750   -8.6690  -30.4140 O.co2 503  GLU503     -0.2457
    125  N        -12.1040   -8.2610  -26.1130 N.3   519  ARG519     -0.1245
    126  CA       -11.3330   -7.0230  -26.0970 C.3   519  ARG519      0.1563
    127  C        -12.2110   -5.7940  -26.3470 C.2   519  ARG519      0.2260
    128  O        -13.1100   -5.8340  -27.1820 O.2   519  ARG519     -0.2867
    129  CB       -10.2750   -7.1290  -27.2060 C.3   519  ARG519      0.0307
    130  CG        -9.4160   -5.8930  -27.4400 C.3   519  ARG519      0.0489
    131  CD        -8.3730   -6.1650  -28.5200 C.3   519  ARG519      0.2205
    132  NE        -7.6340   -4.9580  -28.8720 N.pl3 519  ARG519     -0.0865
    133  CZ        -6.5930   -4.9300  -29.6960 C.cat 519  ARG519      0.5346
    134  NH1       -6.1600   -6.0540  -30.2580 N.pl3 519  ARG519      0.1354
    135  NH2       -5.9830   -3.7780  -29.9590 N.pl3 519  ARG519      0.1354
    136  N          1.4890   -3.9840  -23.1970 N.3   581  ARG581     -0.1245
    137  CA         1.2270   -5.4110  -23.3360 C.3   581  ARG581      0.1563
    138  C          2.3070   -6.1530  -22.5810 C.2   581  ARG581      0.2260
    139  O          3.3360   -6.5350  -23.1340 O.2   581  ARG581     -0.2867
    140  CB         1.1750   -5.8050  -24.8130 C.3   581  ARG581      0.0307
    141  CG         0.0020   -5.1430  -25.5470 C.3   581  ARG581      0.0489
    142  CD        -0.1730   -5.6870  -26.9510 C.3   581  ARG581      0.2205
    143  NE        -1.5300   -5.4700  -27.4650 N.pl3 581  ARG581     -0.0865
    144  CZ        -1.8340   -5.4890  -28.7620 C.cat 581  ARG581      0.5346
    145  NH1       -0.8780   -5.7100  -29.6670 N.pl3 581  ARG581      0.1354
    146  NH2       -3.0860   -5.2850  -29.1610 N.pl3 581  ARG581      0.1354
    147  N         -0.7190  -11.1720  -27.5140 N.3   615  TYR615     -0.1241
    148  CA        -1.7080  -12.1460  -27.9600 C.3   615  TYR615      0.1605
    149  C         -1.3510  -13.5260  -27.4060 C.2   615  TYR615      0.2264
    150  O         -0.1700  -13.8390  -27.2210 O.2   615  TYR615     -0.2867
    151  CB        -1.7850  -12.1910  -29.4850 C.3   615  TYR615      0.0534
    152  CG        -2.6460  -11.1070  -30.1090 C.ar  615  TYR615     -0.0201
    153  CD1       -2.5360   -9.7730  -29.7060 C.ar  615  TYR615     -0.0009
    154  CD2       -3.5520  -11.4130  -31.1170 C.ar  615  TYR615     -0.0009
    155  CE1       -3.3100   -8.7780  -30.2870 C.ar  615  TYR615      0.0417
    156  CE2       -4.3260  -10.4290  -31.7070 C.ar  615  TYR615      0.0417
    157  CZ        -4.2040   -9.1140  -31.2930 C.ar  615  TYR615      0.1957
    158  OH        -4.9750   -8.1390  -31.8900 O.3   615  TYR615     -0.2866
    159  N          3.5840   -6.3920  -28.6320 N.3   635  SER635     -0.1202
    160  CA         3.2820   -6.3230  -30.0600 C.3   635  SER635      0.2020
    161  C          2.4820   -5.0770  -30.4570 C.2   635  SER635      0.2618
    162  O          2.0350   -4.9540  -31.6010 O.2   635  SER635     -0.2717
    163  CB         2.5830   -7.6090  -30.5340 C.3   635  SER635      0.2103
    164  OG         1.3690   -7.8330  -29.8360 O.3   635  SER635     -0.2182
    165  N          2.2870   -4.1650  -29.5070 N.am  636  TRP636     -0.1975
    166  CA         1.7080   -2.8540  -29.8150 C.3   636  TRP636      0.1640
    167  C          2.8310   -1.8280  -29.9720 C.2   636  TRP636      0.2290
    168  O          2.8280   -1.0310  -30.8970 O.2   636  TRP636     -0.2864
    169  CB         0.7350   -2.3920  -28.7220 C.3   636  TRP636      0.0576
    170  CG         0.0090   -1.1310  -29.0860 C.ar  636  TRP636      0.0006
    171  CD1        0.3370    0.1480  -28.7220 C.ar  636  TRP636      0.0946
    172  CD2       -1.1730   -1.0270  -29.8950 C.ar  636  TRP636      0.0152
    173  NE1       -0.5710    1.0350  -29.2490 N.ar  636  TRP636     -0.2442
    174  CE2       -1.5070    0.3430  -29.9710 C.ar  636  TRP636      0.0810
    175  CE3       -1.9920   -1.9620  -30.5490 C.ar  636  TRP636      0.0012
    176  CZ2       -2.6200    0.8040  -30.6810 C.ar  636  TRP636      0.0191
    177  CZ3       -3.0980   -1.5040  -31.2540 C.ar  636  TRP636      0.0001
    178  CH2       -3.3980   -0.1320  -31.3150 C.ar  636  TRP636      0.0015
@<TRIPOS>BOND
     1    72    71    2
     2    71    70    1
     3    70    69    1
     4    70    73    1
     5    73    74    1
     6    74    75    1
     7    75    76    1
     8    63    64    2
     9    63    62    1
    10    43    44    1
    11    43    40    1
    12    41    40    1
    13    41    42    2
    14    40    39    1
    15    77    78    1
    16    80    79    2
    17    79    78    1
    18    62    65    1
    19    62    61    1
    20    78    81    1
    21    45    46    1
    22    65    66    1
    23    39    33   am
    24    51    49    1
    25    34    33    2
    26    22    21    1
    27    22    23    2
    28    96    95    1
    29    33    32    1
    30    49    46    1
    31    49    50    1
    32    46    47    1
    33    21    20    1
    34    21    24    1
    35    81    82    1
    36    93    95   ar
    37    93    91   ar
    38    66    67   ar
    39    66    68   ar
    40    95    94   ar
    41    48    47    2
    42    83    82    2
    43    91    90   ar
    44    47    53   am
    45    82    84   am
    46    52    50    1
    47    24    25    1
    48    32    31    1
    49    32    35    1
    50    94    92   ar
    51    25    26    1
    52    35    36    1
    53    85    86    1
    54    90    92   ar
    55    90    89    1
    56    53    54    1
    57    86    89    1
    58    86    87    1
    59    56    55    2
    60    26    27    1
    61    27    28    2
    62    55    54    1
    63    87    88    2
    64    36    37   ar
    65    36    38   ar
    66    54    57    1
    67    28    29    1
    68    28    30    1
    69    57    58    1
    70   100    99    2
    71    58    60   ar
    72    58    59   ar
    73    99    98    1
    74    97    98    1
    75   108   107    1
    76     4     3    2
    77     1     2    1
    78    17    16    1
    79    17    19    1
    80    98   101    1
    81   105   107   ar
    82   105   103   ar
    83   107   106   ar
    84     5     2    1
    85     5     6    1
    86    16    18    1
    87    16    13    1
    88   103   102   ar
    89   106   104   ar
    90     3     2    1
    91     3    12   am
    92   102   104   ar
    93   102   101    1
    94     6     7    1
    95    15    14    2
    96     7     8    1
    97    10     9    1
    98    12    13    1
    99    13    14    1
   100     8     9    2
   101   114   113    1
   102     9    11    1
   103   115   113    1
   104   123   122   ar
   105   110   113    1
   106   110   109    1
   107   110   111    1
   108   158   157    1
   109   121   122    1
   110   121   120    1
   111   156   157   ar
   112   156   154   ar
   113   162   161    2
   114   122   124   ar
   115   178   177   ar
   116   178   176   ar
   117   157   155   ar
   118   111   112    2
   119   177   175   ar
   120   154   152   ar
   121   168   167    2
   122   176   174   ar
   123   175   172   ar
   124   117   120    1
   125   117   116    1
   126   117   118    1
   127   163   160    1
   128   163   164    1
   129   161   160    1
   130   161   165   am
   131   155   153   ar
   132   134   133    1
   133   152   153   ar
   134   152   151    1
   135   160   159    1
   136   167   166    1
   137   174   172   ar
   138   174   173   ar
   139   135   133    1
   140   172   170   ar
   141   166   165    1
   142   166   169    1
   143   133   132    2
   144   145   144    1
   145   151   148    1
   146   118   119    2
   147   173   171   ar
   148   146   144    1
   149   170   171   ar
   150   170   169    1
   151   132   131    1
   152   144   143    2
   153   131   130    1
   154   148   147    1
   155   148   149    1
   156   143   142    1
   157   130   129    1
   158   149   150    2
   159   129   126    1
   160   128   127    2
   161   142   141    1
   162   127   126    1
   163   125   126    1
   164   141   140    1
   165   140   137    1
   166   137   136    1
   167   137   138    1
   168   139   138    2
