@<TRIPOS>MOLECULE
tmp/4fowA00.pdb
 125 119 0 0 0
SMALL
GASTEIGER

@<TRIPOS>ATOM
      1  N          3.2280  -14.2340  -35.4820 N.3   207  ARG207     -0.1231
      2  CA         2.3080  -13.5760  -34.5790 C.3   207  ARG207      0.1694
      3  C          0.9990  -14.3440  -34.6250 C.2   207  ARG207      0.2591
      4  O          0.7650  -15.1400  -35.5510 O.2   207  ARG207     -0.2718
      5  CB         2.0760  -12.1210  -35.0100 C.3   207  ARG207      0.0321
      6  CG         3.1020  -11.0890  -34.4930 C.3   207  ARG207      0.0489
      7  CD         2.4180   -9.6870  -34.2820 C.3   207  ARG207      0.2205
      8  NE         1.3310   -9.7530  -33.3020 N.pl3 207  ARG207     -0.0865
      9  CZ         0.4570   -8.7740  -33.0660 C.cat 207  ARG207      0.5346
     10  NH1        0.5360   -7.6180  -33.7260 N.pl3 207  ARG207      0.1354
     11  NH2       -0.4940   -8.9430  -32.1530 N.pl3 207  ARG207      0.1354
     12  N          0.1390  -14.0830  -33.6450 N.am  208  ILE208     -0.1980
     13  CA        -1.2150  -14.6360  -33.6160 C.3   208  ILE208      0.1595
     14  C         -1.2600  -16.1710  -33.4690 C.2   208  ILE208      0.2287
     15  O         -1.7480  -16.8680  -34.3640 O.2   208  ILE208     -0.2864
     16  CB        -2.0520  -14.1920  -34.8450 C.3   208  ILE208      0.0276
     17  CG1       -1.6830  -12.7590  -35.2980 C.3   208  ILE208      0.0022
     18  CG2       -3.5230  -14.2210  -34.5030 C.3   208  ILE208      0.0022
     19  CD1       -2.1240  -11.6610  -34.3230 C.3   208  ILE208      0.0001
     20  N          1.1320   -6.1660  -39.3700 N.3   232  ASP232     -0.1239
     21  CA        -0.1280   -6.7100  -39.8930 C.3   232  ASP232      0.1674
     22  C         -0.1880   -6.4220  -41.3930 C.2   232  ASP232      0.2266
     23  O          0.5640   -5.5800  -41.9000 O.2   232  ASP232     -0.2867
     24  CB        -1.3410   -6.0240  -39.2470 C.3   232  ASP232      0.1410
     25  CG        -1.6040   -6.4860  -37.8260 C.2   232  ASP232      0.3668
     26  OD1       -2.7960   -6.5020  -37.4420 O.co2 232  ASP232     -0.2456
     27  OD2       -0.6390   -6.8180  -37.0920 O.co2 232  ASP232     -0.2456
     28  N         -4.2950  -13.5980  -42.5150 N.3   288  ILE288     -0.1231
     29  CA        -3.9810  -13.0240  -41.2110 C.3   288  ILE288      0.1692
     30  C         -5.0800  -13.3570  -40.2200 C.2   288  ILE288      0.2592
     31  O         -6.2420  -13.4090  -40.6060 O.2   288  ILE288     -0.2718
     32  CB        -3.7630  -11.4830  -41.3210 C.3   288  ILE288      0.0266
     33  CG1       -3.4780  -10.8600  -39.9620 C.3   288  ILE288      0.0019
     34  CG2       -4.9660  -10.7920  -41.9830 C.3   288  ILE288      0.0020
     35  CD1       -3.0600   -9.3550  -40.0780 C.3   288  ILE288      0.0001
     36  N         -4.6990  -13.6060  -38.9620 N.am  289  ASP289     -0.1974
     37  CA        -5.6330  -13.9600  -37.8880 C.3   289  ASP289      0.1709
     38  C         -6.3640  -15.2920  -38.1500 C.2   289  ASP289      0.2293
     39  O         -7.4260  -15.3110  -38.7600 O.2   289  ASP289     -0.2864
     40  CB        -6.6610  -12.8440  -37.6530 C.3   289  ASP289      0.1436
     41  CG        -6.0330  -11.5460  -37.1280 C.2   289  ASP289      0.3671
     42  OD1       -4.8130  -11.5150  -36.8420 O.co2 289  ASP289     -0.2456
     43  OD2       -6.7760  -10.5460  -36.9960 O.co2 289  ASP289     -0.2456
     44  N        -15.9820  -10.0710  -35.6020 N.3   471  TYR471     -0.1241
     45  CA       -16.4930   -8.7650  -35.2030 C.3   471  TYR471      0.1605
     46  C        -16.4780   -7.7640  -36.3550 C.2   471  TYR471      0.2264
     47  O        -15.7490   -7.9250  -37.3500 O.2   471  TYR471     -0.2867
     48  CB       -15.6890   -8.2080  -34.0260 C.3   471  TYR471      0.0534
     49  CG       -14.2540   -7.8810  -34.3820 C.ar  471  TYR471     -0.0201
     50  CD1      -13.8700   -6.5820  -34.7030 C.ar  471  TYR471     -0.0009
     51  CD2      -13.2830   -8.8700  -34.3870 C.ar  471  TYR471     -0.0009
     52  CE1      -12.5490   -6.2840  -35.0230 C.ar  471  TYR471      0.0417
     53  CE2      -11.9710   -8.5850  -34.7030 C.ar  471  TYR471      0.0417
     54  CZ       -11.6120   -7.2930  -35.0230 C.ar  471  TYR471      0.1957
     55  OH       -10.2960   -7.0290  -35.3400 O.3   471  TYR471     -0.2866
     56  N        -11.6300   -3.2660  -31.8310 N.3   501  THR501     -0.1218
     57  CA       -11.0150   -4.5170  -32.2530 C.3   501  THR501      0.1862
     58  C        -11.5190   -5.5400  -31.2460 C.2   501  THR501      0.2287
     59  O        -10.7980   -5.9310  -30.3340 O.2   501  THR501     -0.2866
     60  CB        -9.4680   -4.4010  -32.2080 C.3   501  THR501      0.1770
     61  OG1       -9.0730   -3.2990  -33.0290 O.3   501  THR501     -0.2211
     62  CG2       -8.7740   -5.6660  -32.7280 C.3   501  THR501      0.0375
     63  N        -11.9090   -8.5710  -30.3750 N.3   503  GLU503     -0.1245
     64  CA       -11.5000   -9.9720  -30.4920 C.3   503  GLU503      0.1567
     65  C        -12.1000  -10.7760  -29.3430 C.2   503  GLU503      0.2260
     66  O        -11.8470  -10.4830  -28.1660 O.2   503  GLU503     -0.2867
     67  CB        -9.9690  -10.0730  -30.5140 C.3   503  GLU503      0.0388
     68  CG        -9.3790   -9.6350  -31.8630 C.3   503  GLU503      0.1160
     69  CD        -7.9290   -9.1960  -31.7750 C.2   503  GLU503      0.3649
     70  OE1       -7.2700   -9.1130  -32.8380 O.co2 503  GLU503     -0.2457
     71  OE2       -7.4330   -8.9220  -30.6560 O.co2 503  GLU503     -0.2457
     72  N        -12.1350   -8.3690  -26.1420 N.3   519  ARG519     -0.1245
     73  CA       -11.3300   -7.1520  -26.0610 C.3   519  ARG519      0.1563
     74  C        -12.2040   -5.9380  -26.3150 C.2   519  ARG519      0.2260
     75  O        -13.1460   -6.0080  -27.1090 O.2   519  ARG519     -0.2867
     76  CB       -10.2540   -7.2400  -27.1460 C.3   519  ARG519      0.0307
     77  CG        -9.3920   -6.0160  -27.3660 C.3   519  ARG519      0.0489
     78  CD        -8.3700   -6.3260  -28.4540 C.3   519  ARG519      0.2205
     79  NE        -7.6410   -5.1390  -28.8890 N.pl3 519  ARG519     -0.0865
     80  CZ        -6.6450   -5.1670  -29.7660 C.cat 519  ARG519      0.5346
     81  NH1       -6.2600   -6.3260  -30.2980 N.pl3 519  ARG519      0.1354
     82  NH2       -6.0370   -4.0440  -30.1130 N.pl3 519  ARG519      0.1354
     83  N          1.4610   -4.1530  -23.2490 N.3   581  ARG581     -0.1245
     84  CA         1.1970   -5.5900  -23.3620 C.3   581  ARG581      0.1563
     85  C          2.2960   -6.3270  -22.6080 C.2   581  ARG581      0.2260
     86  O          3.3230   -6.7430  -23.1780 O.2   581  ARG581     -0.2867
     87  CB         1.1320   -6.0240  -24.8350 C.3   581  ARG581      0.0307
     88  CG        -0.0390   -5.3750  -25.5930 C.3   581  ARG581      0.0489
     89  CD        -0.1950   -5.8960  -27.0260 C.3   581  ARG581      0.2205
     90  NE        -1.5260   -5.5910  -27.5790 N.pl3 581  ARG581     -0.0865
     91  CZ        -1.8380   -5.6820  -28.8720 C.cat 581  ARG581      0.5346
     92  NH1       -0.9220   -6.0710  -29.7540 N.pl3 581  ARG581      0.1354
     93  NH2       -3.0660   -5.3840  -29.2860 N.pl3 581  ARG581      0.1354
     94  N         -0.6480  -11.3540  -27.5480 N.3   615  TYR615     -0.1241
     95  CA        -1.6310  -12.3470  -28.0040 C.3   615  TYR615      0.1605
     96  C         -1.2790  -13.7060  -27.4280 C.2   615  TYR615      0.2264
     97  O         -0.1000  -14.0110  -27.2130 O.2   615  TYR615     -0.2867
     98  CB        -1.6950  -12.4050  -29.5340 C.3   615  TYR615      0.0534
     99  CG        -2.6090  -11.3460  -30.1280 C.ar  615  TYR615     -0.0201
    100  CD1       -2.5100  -10.0140  -29.7310 C.ar  615  TYR615     -0.0009
    101  CD2       -3.5590  -11.6720  -31.0870 C.ar  615  TYR615     -0.0009
    102  CE1       -3.3420   -9.0310  -30.2740 C.ar  615  TYR615      0.0417
    103  CE2       -4.3910  -10.7010  -31.6430 C.ar  615  TYR615      0.0417
    104  CZ        -4.2750   -9.3810  -31.2300 C.ar  615  TYR615      0.1957
    105  OH        -5.1010   -8.4130  -31.7720 O.3   615  TYR615     -0.2866
    106  N          3.6700   -6.5630  -28.5670 N.3   635  SER635     -0.1202
    107  CA         3.4180   -6.5190  -30.0080 C.3   635  SER635      0.2020
    108  C          2.6650   -5.2500  -30.4250 C.2   635  SER635      0.2618
    109  O          2.3130   -5.0830  -31.5970 O.2   635  SER635     -0.2717
    110  CB         2.6630   -7.7690  -30.4550 C.3   635  SER635      0.2103
    111  OG         1.4160   -7.8640  -29.7830 O.3   635  SER635     -0.2182
    112  N          2.4170   -4.3510  -29.4760 N.am  636  TRP636     -0.1975
    113  CA         1.8830   -3.0260  -29.8250 C.3   636  TRP636      0.1640
    114  C          3.0320   -2.0270  -29.9800 C.2   636  TRP636      0.2290
    115  O          3.0330   -1.1970  -30.8960 O.2   636  TRP636     -0.2864
    116  CB         0.8830   -2.5370  -28.7640 C.3   636  TRP636      0.0576
    117  CG         0.1360   -1.2800  -29.1520 C.ar  636  TRP636      0.0006
    118  CD1        0.4740    0.0160  -28.8390 C.ar  636  TRP636      0.0946
    119  CD2       -1.0650   -1.2040  -29.9390 C.ar  636  TRP636      0.0152
    120  NE1       -0.4560    0.8880  -29.3800 N.ar  636  TRP636     -0.2442
    121  CE2       -1.4040    0.1670  -30.0560 C.ar  636  TRP636      0.0810
    122  CE3       -1.8900   -2.1580  -30.5520 C.ar  636  TRP636      0.0012
    123  CZ2       -2.5340    0.5970  -30.7630 C.ar  636  TRP636      0.0191
    124  CZ3       -3.0130   -1.7300  -31.2480 C.ar  636  TRP636      0.0001
    125  CH2       -3.3230   -0.3620  -31.3480 C.ar  636  TRP636      0.0015
@<TRIPOS>BOND
     1    28    29    1
     2    34    32    1
     3    23    22    2
     4    22    21    1
     5    32    29    1
     6    32    33    1
     7    29    30    1
     8    31    30    2
     9    30    36   am
    10    35    33    1
    11    21    20    1
    12    21    24    1
    13    24    25    1
    14    36    37    1
    15    39    38    2
    16    38    37    1
    17    37    40    1
    18    25    26   ar
    19    25    27   ar
    20    40    41    1
    21    47    46    2
    22    41    43   ar
    23    41    42   ar
    24    46    45    1
    25    44    45    1
    26     4     3    2
    27     1     2    1
    28    55    54    1
    29    17    16    1
    30    17    19    1
    31    45    48    1
    32    54    52   ar
    33    54    53   ar
    34    52    50   ar
    35     5     2    1
    36     5     6    1
    37    16    18    1
    38    16    13    1
    39    53    51   ar
    40    50    49   ar
    41     3     2    1
    42     3    12   am
    43     6     7    1
    44    51    49   ar
    45    49    48    1
    46    15    14    2
    47     7     8    1
    48    10     9    1
    49    12    13    1
    50    13    14    1
    51     8     9    2
    52     9    11    1
    53    61    60    1
    54    70    69   ar
    55    62    60    1
    56    57    60    1
    57    57    56    1
    58    57    58    1
    59    68    69    1
    60    68    67    1
    61    69    71   ar
    62   105   104    1
    63   103   104   ar
    64   103   101   ar
    65   109   108    2
    66   125   124   ar
    67   125   123   ar
    68   124   122   ar
    69    58    59    2
    70   104   102   ar
    71   101    99   ar
    72   115   114    2
    73   123   121   ar
    74   122   119   ar
    75    67    64    1
    76    64    63    1
    77    64    65    1
    78   110   107    1
    79   110   111    1
    80   108   107    1
    81   108   112   am
    82    81    80    1
    83   102   100   ar
    84    99   100   ar
    85    99    98    1
    86    82    80    1
    87   121   119   ar
    88   121   120   ar
    89   107   106    1
    90   114   113    1
    91   119   117   ar
    92   113   112    1
    93   113   116    1
    94    80    79    2
    95    92    91    1
    96    98    95    1
    97   120   118   ar
    98    65    66    2
    99    93    91    1
   100   117   118   ar
   101   117   116    1
   102    79    78    1
   103    91    90    2
   104    78    77    1
   105    95    94    1
   106    95    96    1
   107    90    89    1
   108    96    97    2
   109    77    76    1
   110    76    73    1
   111    75    74    2
   112    89    88    1
   113    74    73    1
   114    72    73    1
   115    88    87    1
   116    87    84    1
   117    84    83    1
   118    84    85    1
   119    86    85    2
