@<TRIPOS>MOLECULE
tmp/4foxG00.pdb
 204 199 0 0 0
SMALL
GASTEIGER

@<TRIPOS>ATOM
      1  N         36.4510  -18.6780   52.9560 N.3    21  ARG21      -0.1231
      2  CA        37.8800  -18.9760   52.9960 C.3    21  ARG21       0.1694
      3  C         38.7120  -18.0450   52.1160 C.2    21  ARG21       0.2592
      4  O         39.6580  -17.4260   52.5900 O.2    21  ARG21      -0.2718
      5  CB        38.1340  -20.4340   52.5940 C.3    21  ARG21       0.0321
      6  CG        39.5840  -20.8800   52.7340 C.3    21  ARG21       0.0489
      7  CD        39.7940  -22.2890   52.1900 C.3    21  ARG21       0.2205
      8  NE        39.1460  -22.4890   50.8900 N.pl3  21  ARG21      -0.0865
      9  CZ        39.7010  -22.1790   49.7190 C.cat  21  ARG21       0.5346
     10  NH1       40.9230  -21.6540   49.6720 N.pl3  21  ARG21       0.1354
     11  NH2       39.0410  -22.3940   48.5960 N.pl3  21  ARG21       0.1354
     12  N         38.3520  -17.9470   50.8390 N.am   22  THR22      -0.1953
     13  CA        39.1540  -17.1940   49.8730 C.3    22  THR22       0.1897
     14  C         39.1440  -15.6860   50.1370 C.2    22  THR22       0.2313
     15  O         39.8860  -14.9300   49.4980 O.2    22  THR22      -0.2863
     16  CB        38.7140  -17.4680   48.4110 C.3    22  THR22       0.1794
     17  OG1       37.5030  -16.7560   48.1260 O.3    22  THR22      -0.2208
     18  CG2       38.4880  -18.9600   48.1880 C.3    22  THR22       0.0378
     19  N         26.5280  -20.1380   27.9330 N.3    48  LYS48      -0.1245
     20  CA        27.9170  -19.6840   27.8200 C.3    48  LYS48       0.1561
     21  C         28.7260  -20.8860   27.3020 C.2    48  LYS48       0.2260
     22  O         28.3240  -22.0360   27.4890 O.2    48  LYS48      -0.2867
     23  CB        28.4700  -19.2090   29.1620 C.3    48  LYS48       0.0271
     24  CG        29.1020  -20.3250   30.0230 C.3    48  LYS48       0.0035
     25  CD        29.4740  -19.8530   31.4450 C.3    48  LYS48       0.0206
     26  CE        30.4770  -20.8230   32.0910 C.3    48  LYS48       0.1093
     27  NZ        30.8410  -20.4980   33.5100 N.3    48  LYS48      -0.1314
     28  N         31.2340  -23.5560   27.5700 N.3    50  VAL50      -0.1231
     29  CA        31.9990  -24.2470   28.5920 C.3    50  VAL50       0.1692
     30  C         33.1980  -24.9350   27.9520 C.2    50  VAL50       0.2592
     31  O         33.0530  -25.5800   26.9180 O.2    50  VAL50      -0.2718
     32  CB        31.1370  -25.3050   29.2630 C.3    50  VAL50       0.0266
     33  CG1       31.9890  -26.1780   30.1710 C.3    50  VAL50       0.0020
     34  CG2       29.9870  -24.6410   30.0270 C.3    50  VAL50       0.0020
     35  N         34.3800  -24.8090   28.5500 N.am   51  HIS51      -0.1976
     36  CA        35.5790  -25.4210   27.9440 C.3    51  HIS51       0.1656
     37  C         35.6410  -26.9200   28.2060 C.2    51  HIS51       0.2291
     38  O         36.4070  -27.3940   29.0510 O.2    51  HIS51      -0.2864
     39  CB        36.8750  -24.7360   28.4070 C.3    51  HIS51       0.0771
     40  CG        38.0780  -25.0940   27.5780 C.ar   51  HIS51       0.0820
     41  ND1       39.0510  -25.9650   28.0150 N.ar   51  HIS51      -0.2267
     42  CD2       38.4590  -24.6920   26.3420 C.ar   51  HIS51       0.1154
     43  CE1       39.9830  -26.0870   27.0810 C.ar   51  HIS51       0.1986
     44  NE2       39.6470  -25.3250   26.0590 N.ar   51  HIS51      -0.2212
     45  N         38.8360  -29.2110   28.8270 N.3    54  SER54      -0.1217
     46  CA        39.3550  -29.2560   30.1840 C.3    54  SER54       0.1889
     47  C         38.5140  -30.1720   31.0810 C.2    54  SER54       0.2288
     48  O         39.0440  -30.8380   31.9730 O.2    54  SER54      -0.2866
     49  CB        39.4160  -27.8420   30.7730 C.3    54  SER54       0.2089
     50  OG        40.3550  -27.0330   30.0870 O.3    54  SER54      -0.2183
     51  N         40.3340  -33.5920   32.5740 N.3    58  GLU58      -0.1245
     52  CA        40.3320  -33.6960   34.0330 C.3    58  GLU58       0.1567
     53  C         39.7770  -35.0430   34.4980 C.2    58  GLU58       0.2260
     54  O         40.3410  -35.6800   35.3880 O.2    58  GLU58      -0.2867
     55  CB        39.4950  -32.5940   34.6890 C.3    58  GLU58       0.0388
     56  CG        39.4830  -32.6900   36.2340 C.3    58  GLU58       0.1160
     57  CD        38.5630  -31.6890   36.9230 C.2    58  GLU58       0.3649
     58  OE1       39.0140  -31.0690   37.9050 O.co2  58  GLU58      -0.2457
     59  OE2       37.4000  -31.5260   36.5040 O.co2  58  GLU58      -0.2457
     60  N         45.0520  -26.4330   32.4180 N.3    78  THR78      -0.1203
     61  CA        45.7380  -25.7230   33.5120 C.3    78  THR78       0.1994
     62  C         44.8270  -25.3910   34.7010 C.2    78  THR78       0.2618
     63  O         45.1330  -24.5070   35.4980 O.2    78  THR78      -0.2717
     64  CB        46.3560  -24.3900   33.0330 C.3    78  THR78       0.1784
     65  OG1       45.3050  -23.4660   32.7340 O.3    78  THR78      -0.2211
     66  CG2       47.2320  -24.5840   31.7900 C.3    78  THR78       0.0376
     67  N         43.7080  -26.0880   34.8230 N.am   79  ILE79      -0.1965
     68  CA        42.7600  -25.7210   35.8670 C.3    79  ILE79       0.1727
     69  C         43.2340  -26.0060   37.2940 C.2    79  ILE79       0.2616
     70  O         42.7050  -25.4220   38.2380 O.2    79  ILE79      -0.2715
     71  CB        41.3570  -26.3150   35.6300 C.3    79  ILE79       0.0290
     72  CG1       41.3950  -27.8430   35.6540 C.3    79  ILE79       0.0022
     73  CG2       40.7920  -25.7990   34.3150 C.3    79  ILE79       0.0023
     74  CD1       40.0340  -28.4920   35.3360 C.3    79  ILE79       0.0001
     75  N         44.2270  -26.8820   37.4500 N.am   80  TRP80      -0.1974
     76  CA        44.7590  -27.2290   38.7740 C.3    80  TRP80       0.1640
     77  C         46.1920  -26.7180   39.0120 C.2    80  TRP80       0.2290
     78  O         47.0240  -27.4320   39.5820 O.2    80  TRP80      -0.2864
     79  CB        44.7190  -28.7490   38.9960 C.3    80  TRP80       0.0576
     80  CG        43.3570  -29.3070   39.3080 C.ar   80  TRP80       0.0006
     81  CD1       42.5460  -30.0140   38.4640 C.ar   80  TRP80       0.0946
     82  CD2       42.6520  -29.2010   40.5510 C.ar   80  TRP80       0.0152
     83  NE1       41.3740  -30.3560   39.1080 N.ar   80  TRP80      -0.2442
     84  CE2       41.4110  -29.8670   40.3880 C.ar   80  TRP80       0.0810
     85  CE3       42.9380  -28.6030   41.7810 C.ar   80  TRP80       0.0012
     86  CZ2       40.4700  -29.9550   41.4100 C.ar   80  TRP80       0.0191
     87  CZ3       41.9980  -28.6890   42.7970 C.ar   80  TRP80       0.0001
     88  CH2       40.7770  -29.3640   42.6040 C.ar   80  TRP80       0.0015
     89  N         46.9730  -24.3180   42.6370 N.3    83  TRP83      -0.1241
     90  CA        46.9650  -25.1680   43.8240 C.3    83  TRP83       0.1605
     91  C         48.0990  -26.1900   43.8680 C.2    83  TRP83       0.2264
     92  O         48.2600  -26.8950   44.8590 O.2    83  TRP83      -0.2867
     93  CB        45.6000  -25.8530   43.9880 C.3    83  TRP83       0.0550
     94  CG        44.5310  -24.8580   44.2850 C.ar   83  TRP83       0.0003
     95  CD1       44.1030  -24.4530   45.5180 C.ar   83  TRP83       0.0946
     96  CD2       43.7850  -24.0960   43.3300 C.ar   83  TRP83       0.0152
     97  NE1       43.1260  -23.4960   45.3870 N.ar   83  TRP83      -0.2442
     98  CE2       42.9120  -23.2590   44.0530 C.ar   83  TRP83       0.0810
     99  CE3       43.7640  -24.0460   41.9330 C.ar   83  TRP83       0.0012
    100  CZ2       42.0270  -22.3760   43.4220 C.ar   83  TRP83       0.0191
    101  CZ3       42.8790  -23.1730   41.3060 C.ar   83  TRP83       0.0001
    102  CH2       42.0250  -22.3510   42.0500 C.ar   83  TRP83       0.0015
    103  N         43.2630  -29.3160   48.0790 N.3   143  LEU143     -0.1245
    104  CA        41.9000  -28.9050   48.3980 C.3   143  LEU143      0.1561
    105  C         41.0490  -30.1100   48.7380 C.2   143  LEU143      0.2260
    106  O         41.0730  -31.1090   48.0240 O.2   143  LEU143     -0.2867
    107  CB        41.2560  -28.1710   47.2260 C.3   143  LEU143      0.0270
    108  CG        41.2700  -26.6450   47.2250 C.3   143  LEU143      0.0019
    109  CD1       40.5980  -26.1410   45.9580 C.3   143  LEU143      0.0001
    110  CD2       40.5690  -26.0990   48.4530 C.3   143  LEU143      0.0001
    111  N         33.3830  -32.4270   45.0890 N.3   147  HIS147     -0.1241
    112  CA        32.4500  -33.4920   44.7520 C.3   147  HIS147      0.1621
    113  C         32.9250  -34.7590   45.4550 C.2   147  HIS147      0.2264
    114  O         33.8200  -35.4830   44.9800 O.2   147  HIS147     -0.2867
    115  CB        32.3530  -33.6750   43.2400 C.3   147  HIS147      0.0745
    116  CG        33.6650  -33.5640   42.5250 C.ar  147  HIS147      0.0817
    117  ND1       34.2240  -34.6140   41.8280 N.ar  147  HIS147     -0.2268
    118  CD2       34.5210  -32.5230   42.3830 C.ar  147  HIS147      0.1154
    119  CE1       35.3630  -34.2260   41.2860 C.ar  147  HIS147      0.1986
    120  NE2       35.5690  -32.9620   41.6100 N.ar  147  HIS147     -0.2212
    121  N         30.9010  -23.6410   43.6720 N.3   169  ASP169     -0.1239
    122  CA        31.1070  -22.3600   43.0100 C.3   169  ASP169      0.1674
    123  C         30.2030  -22.3170   41.7700 C.2   169  ASP169      0.2266
    124  O         30.5500  -22.8700   40.7160 O.2   169  ASP169     -0.2867
    125  CB        32.5650  -22.2300   42.6070 C.3   169  ASP169      0.1410
    126  CG        32.8770  -20.8980   41.9770 C.2   169  ASP169      0.3668
    127  OD1       31.9710  -20.2720   41.3840 O.co2 169  ASP169     -0.2456
    128  OD2       34.0410  -20.4840   42.0790 O.co2 169  ASP169     -0.2456
    129  N         29.1690  -20.2340   39.4660 N.3   171  PHE171     -0.1227
    130  CA        29.6020  -19.7480   38.1660 C.3   171  PHE171      0.1736
    131  C         30.7710  -20.5420   37.5610 C.2   171  PHE171      0.2595
    132  O         30.6930  -20.9730   36.4110 O.2   171  PHE171     -0.2718
    133  CB        29.9240  -18.2490   38.1740 C.3   171  PHE171      0.0547
    134  CG        30.3040  -17.7330   36.8190 C.ar  171  PHE171     -0.0202
    135  CD1       29.3250  -17.4870   35.8660 C.ar  171  PHE171     -0.0042
    136  CD2       31.6430  -17.5520   36.4720 C.ar  171  PHE171     -0.0042
    137  CE1       29.6680  -17.0430   34.5970 C.ar  171  PHE171     -0.0003
    138  CE2       31.9970  -17.1080   35.2040 C.ar  171  PHE171     -0.0003
    139  CZ        31.0100  -16.8530   34.2620 C.ar  171  PHE171     -0.0000
    140  N         31.8470  -20.7360   38.3220 N.am  172  LEU172     -0.1966
    141  CA        33.0500  -21.3690   37.7620 C.3   172  LEU172      0.1728
    142  C         33.0330  -22.8970   37.7230 C.2   172  LEU172      0.2616
    143  O         33.0410  -23.4950   36.6530 O.2   172  LEU172     -0.2715
    144  CB        34.3130  -20.8880   38.4710 C.3   172  LEU172      0.0311
    145  CG        35.1010  -19.8300   37.7040 C.3   172  LEU172      0.0022
    146  CD1       36.3870  -19.5390   38.4130 C.3   172  LEU172      0.0001
    147  CD2       35.3760  -20.2970   36.2780 C.3   172  LEU172      0.0001
    148  N         33.0130  -23.5220   38.8930 N.am  173  GLY173     -0.1955
    149  CA        33.2120  -24.9540   38.9790 C.3   173  GLY173      0.1869
    150  C         32.0110  -25.8100   38.6060 C.2   173  GLY173      0.2309
    151  O         32.1710  -26.8370   37.9530 O.2   173  GLY173     -0.2863
    152  N         31.3220  -27.1840   35.1070 N.3   176  PHE176     -0.1227
    153  CA        32.3220  -28.2250   34.9140 C.3   176  PHE176      0.1736
    154  C         31.9070  -29.5360   35.5720 C.2   176  PHE176      0.2595
    155  O         31.9300  -30.5940   34.9270 O.2   176  PHE176     -0.2718
    156  CB        33.6730  -27.7780   35.4860 C.3   176  PHE176      0.0547
    157  CG        34.5710  -27.1510   34.4820 C.ar  176  PHE176     -0.0202
    158  CD1       34.1420  -26.0690   33.7290 C.ar  176  PHE176     -0.0042
    159  CD2       35.8470  -27.6500   34.2730 C.ar  176  PHE176     -0.0042
    160  CE1       34.9850  -25.4830   32.7780 C.ar  176  PHE176     -0.0003
    161  CE2       36.6910  -27.0740   33.3280 C.ar  176  PHE176     -0.0003
    162  CZ        36.2600  -25.9890   32.5810 C.ar  176  PHE176     -0.0000
    163  N         31.5450  -29.4640   36.8510 N.am  177  ASN177     -0.1974
    164  CA        31.1450  -30.6460   37.6080 C.3   177  ASN177      0.1688
    165  C         29.9630  -31.3810   36.9970 C.2   177  ASN177      0.2292
    166  O         29.9100  -32.6200   37.0020 O.2   177  ASN177     -0.2864
    167  CB        30.8060  -30.2740   39.0540 C.3   177  ASN177      0.1181
    168  CG        32.0080  -29.7490   39.8180 C.2   177  ASN177      0.2629
    169  OD1       31.9500  -28.6710   40.4190 O.2   177  ASN177     -0.2716
    170  ND2       33.1040  -30.5040   39.7980 N.am  177  ASN177     -0.0877
    171  N         30.1140  -16.1180   43.8940 N.3   209  TYR209     -0.1241
    172  CA        31.1330  -15.1980   44.4080 C.3   209  TYR209      0.1605
    173  C         30.7900  -13.7430   44.1010 C.2   209  TYR209      0.2264
    174  O         30.2890  -13.4290   43.0100 O.2   209  TYR209     -0.2867
    175  CB        32.5220  -15.5550   43.8730 C.3   209  TYR209      0.0534
    176  CG        33.1630  -16.6940   44.6180 C.ar  209  TYR209     -0.0201
    177  CD1       33.6820  -16.4980   45.8830 C.ar  209  TYR209     -0.0009
    178  CD2       33.2290  -17.9700   44.0660 C.ar  209  TYR209     -0.0009
    179  CE1       34.2550  -17.5360   46.5870 C.ar  209  TYR209      0.0417
    180  CE2       33.8010  -19.0150   44.7600 C.ar  209  TYR209      0.0417
    181  CZ        34.3140  -18.7880   46.0220 C.ar  209  TYR209      0.1957
    182  OH        34.8930  -19.8090   46.7330 O.3   209  TYR209     -0.2866
    183  N         32.1220  -16.5640   28.7770 N.3   257  ILE257     -0.1231
    184  CA        32.1800  -15.4220   29.6950 C.3   257  ILE257      0.1692
    185  C         33.3550  -15.6230   30.6530 C.2   257  ILE257      0.2592
    186  O         33.3290  -16.5170   31.4920 O.2   257  ILE257     -0.2718
    187  CB        30.8990  -15.3120   30.5410 C.3   257  ILE257      0.0266
    188  CG1       29.6420  -15.4100   29.6690 C.3   257  ILE257      0.0019
    189  CG2       30.8920  -14.0370   31.3610 C.3   257  ILE257      0.0020
    190  CD1       28.3590  -15.4050   30.4820 C.3   257  ILE257      0.0001
    191  N         34.3820  -14.7940   30.5390 N.am  258  LYS258     -0.1966
    192  CA        35.5970  -15.0070   31.3120 C.3   258  LYS258      0.1728
    193  C         35.4450  -14.7640   32.8080 C.2   258  LYS258      0.2616
    194  O         34.7100  -13.8760   33.2370 O.2   258  LYS258     -0.2715
    195  CB        36.7320  -14.1380   30.7530 C.3   258  LYS258      0.0311
    196  CG        37.3620  -14.7080   29.5000 C.3   258  LYS258      0.0038
    197  CD        38.6200  -13.9330   29.0980 C.3   258  LYS258      0.0206
    198  CE        39.7310  -14.0460   30.1490 C.3   258  LYS258      0.1093
    199  NZ        40.2160  -15.4420   30.3410 N.3   258  LYS258     -0.1314
    200  N         36.1480  -15.5790   33.5910 N.am  259  ALA259     -0.1977
    201  CA        36.3180  -15.3790   35.0280 C.3   259  ALA259      0.1597
    202  C         37.1770  -14.1460   35.2830 C.2   259  ALA259      0.2287
    203  O         38.1140  -13.8790   34.5280 O.2   259  ALA259     -0.2864
    204  CB        36.9930  -16.5800   35.6260 C.3   259  ALA259      0.0319
@<TRIPOS>BOND
     1    44    42   ar
     2    44    43   ar
     3    42    40   ar
     4    31    30    2
     5    43    41   ar
     6    21    22    2
     7    21    20    1
     8    28    29    1
     9    40    41   ar
    10    40    39    1
    11    20    19    1
    12    20    23    1
    13    36    37    1
    14    36    39    1
    15    36    35    1
    16    30    35   am
    17    30    29    1
    18    37    38    2
    19    29    32    1
    20   183   184    1
    21    45    46    1
    22   197   196    1
    23   197   198    1
    24    23    24    1
    25    32    34    1
    26    32    33    1
    27   196   195    1
    28   188   190    1
    29   188   187    1
    30   184   187    1
    31   184   185    1
    32    24    25    1
    33    50    49    1
    34   198   199    1
    35    46    49    1
    36    46    47    1
    37   191   185   am
    38   191   192    1
    39   187   189    1
    40   185   186    2
    41   195   192    1
    42    47    48    2
    43   192   193    1
    44    25    26    1
    45    66    64    1
    46    26    27    1
    47    60    61    1
    48    51    52    1
    49   162   160   ar
    50   162   161   ar
    51    65    64    1
    52   160   158   ar
    53   193   194    2
    54   193   200   am
    55    64    61    1
    56   161   159   ar
    57    61    62    1
    58   200   201    1
    59   158   157   ar
    60    52    53    1
    61    52    55    1
    62   139   137   ar
    63   139   138   ar
    64   159   157   ar
    65    73    71    1
    66   157   156    1
    67    53    54    2
    68   203   202    2
    69   137   135   ar
    70    55    56    1
    71    62    67   am
    72    62    63    2
    73    67    68    1
    74   153   152    1
    75   153   156    1
    76   153   154    1
    77   155   154    2
    78   201   202    1
    79   201   204    1
    80   138   136   ar
    81    74    72    1
    82   154   163   am
    83    71    72    1
    84    71    68    1
    85   135   134   ar
    86    68    69    1
    87    56    57    1
    88   147   145    1
    89   132   131    2
    90   136   134   ar
    91    59    57   ar
    92   143   142    2
    93   134   133    1
    94   163   164    1
    95    57    58   ar
    96   165   166    2
    97   165   164    1
    98    69    75   am
    99    69    70    2
   100    75    76    1
   101   131   130    1
   102   131   140   am
   103   164   167    1
   104   145   146    1
   105   145   144    1
   106   142   141    1
   107   142   148   am
   108   141   140    1
   109   141   144    1
   110   151   150    2
   111   130   133    1
   112   130   129    1
   113    81    83   ar
   114    81    80   ar
   115   150   149    1
   116    76    79    1
   117    76    77    1
   118   148   149    1
   119    79    80    1
   120    77    78    2
   121   167   168    1
   122    83    84   ar
   123    80    82   ar
   124   170   168   am
   125   168   169    2
   126    84    82   ar
   127    84    86   ar
   128    82    85   ar
   129   124   123    2
   130   119   120   ar
   131   119   117   ar
   132   101    99   ar
   133   101   102   ar
   134   127   126   ar
   135    86    88   ar
   136   120   118   ar
   137   123   122    1
   138    85    87   ar
   139   117   116   ar
   140    99    96   ar
   141   126   128   ar
   142   126   125    1
   143   102   100   ar
   144   118   116   ar
   145   116   115    1
   146    88    87   ar
   147   125   122    1
   148    89    90    1
   149   122   121    1
   150   174   173    2
   151   115   112    1
   152    96    98   ar
   153    96    94   ar
   154   100    98   ar
   155    90    91    1
   156    90    93    1
   157    91    92    2
   158   175   172    1
   159   175   176    1
   160   171   172    1
   161    93    94    1
   162    98    97   ar
   163   178   176   ar
   164   178   180   ar
   165   173   172    1
   166    94    95   ar
   167   176   177   ar
   168   112   111    1
   169   112   113    1
   170   180   181   ar
   171   114   113    2
   172    97    95   ar
   173   177   179   ar
   174   109   108    1
   175   181   179   ar
   176   181   182    1
   177   108   107    1
   178   108   110    1
   179   107   104    1
   180   106   105    2
   181   103   104    1
   182    17    16    1
   183    18    16    1
   184   104   105    1
   185    16    13    1
   186    11     9    1
   187    15    14    2
   188    10     9    1
   189     9     8    2
   190    13    14    1
   191    13    12    1
   192    12     3   am
   193     8     7    1
   194     3     4    2
   195     3     2    1
   196     7     6    1
   197     5     6    1
   198     5     2    1
   199     1     2    1
