@<TRIPOS>MOLECULE
tmp/4fp1A00.pdb
 130 119 0 0 0
SMALL
GASTEIGER

@<TRIPOS>ATOM
      1  N        -27.9530  -24.5830  -16.8870 N.3    20  VAL20      -0.1245
      2  CA       -26.8950  -23.6470  -17.1740 C.3    20  VAL20       0.1561
      3  C        -27.4280  -22.2370  -17.2480 C.2    20  VAL20       0.2260
      4  O        -27.8230  -21.7520  -18.3100 O.2    20  VAL20      -0.2867
      5  CB       -26.1220  -23.9890  -18.4450 C.3    20  VAL20       0.0252
      6  CG1      -24.8870  -23.0760  -18.5700 C.3    20  VAL20       0.0019
      7  CG2      -25.7140  -25.4440  -18.3980 C.3    20  VAL20       0.0019
      8  N        -27.0210  -18.3380  -17.4560 N.3    22  THR22      -0.1218
      9  CA       -26.0210  -17.3880  -17.9410 C.3    22  THR22       0.1862
     10  C        -26.5870  -15.9680  -17.7990 C.2    22  THR22       0.2287
     11  O        -27.8050  -15.7700  -17.5860 O.2    22  THR22      -0.2866
     12  CB       -25.5910  -17.5950  -19.4140 C.3    22  THR22       0.1770
     13  OG1      -26.5690  -17.0110  -20.2690 O.3    22  THR22      -0.2211
     14  CG2      -25.4270  -19.0570  -19.7820 C.3    22  THR22       0.0375
     15  N        -30.0010  -22.0640  -20.0200 N.3    27  VAL27      -0.1245
     16  CA       -30.1070  -23.3300  -20.7680 C.3    27  VAL27       0.1561
     17  C        -30.5790  -24.4030  -19.7450 C.2    27  VAL27       0.2260
     18  O        -29.7640  -25.0150  -19.0640 O.2    27  VAL27      -0.2867
     19  CB       -28.7380  -23.7090  -21.3940 C.3    27  VAL27       0.0252
     20  CG1      -28.7860  -25.0380  -22.1560 C.3    27  VAL27       0.0019
     21  CG2      -28.2070  -22.5700  -22.2570 C.3    27  VAL27       0.0019
     22  N        -25.2000  -30.0060  -30.4020 N.3    50  PHE50      -0.1241
     23  CA       -25.9180  -29.2580  -29.3630 C.3    50  PHE50       0.1605
     24  C        -26.6440  -28.1300  -30.0910 C.2    50  PHE50       0.2264
     25  O        -26.0350  -27.3920  -30.8790 O.2    50  PHE50      -0.2867
     26  CB       -24.8730  -28.7080  -28.3660 C.3    50  PHE50       0.0534
     27  CG       -25.4270  -27.8160  -27.2820 C.ar   50  PHE50      -0.0203
     28  CD1      -26.5800  -28.1620  -26.5310 C.ar   50  PHE50      -0.0042
     29  CD2      -24.7520  -26.6210  -26.9680 C.ar   50  PHE50      -0.0042
     30  CE1      -27.0140  -27.3230  -25.4910 C.ar   50  PHE50      -0.0003
     31  CE2      -25.1730  -25.8140  -25.9030 C.ar   50  PHE50      -0.0003
     32  CZ       -26.3200  -26.1450  -25.2010 C.ar   50  PHE50      -0.0000
     33  N        -28.4270  -25.6390  -28.5140 N.3    52  TYR52      -0.1241
     34  CA       -28.4190  -24.4500  -27.6290 C.3    52  TYR52       0.1605
     35  C        -29.7770  -24.1140  -27.0470 C.2    52  TYR52       0.2264
     36  O        -29.9060  -23.9260  -25.8320 O.2    52  TYR52      -0.2867
     37  CB       -27.7980  -23.1840  -28.3020 C.3    52  TYR52       0.0534
     38  CG       -26.3540  -23.4170  -28.6900 C.ar   52  TYR52      -0.0201
     39  CD1      -25.3130  -23.0800  -27.8290 C.ar   52  TYR52      -0.0009
     40  CD2      -26.0530  -23.9950  -29.9160 C.ar   52  TYR52      -0.0009
     41  CE1      -24.0000  -23.3600  -28.1760 C.ar   52  TYR52       0.0417
     42  CE2      -24.7570  -24.2450  -30.2940 C.ar   52  TYR52       0.0417
     43  CZ       -23.7310  -23.9420  -29.4120 C.ar   52  TYR52       0.1957
     44  OH       -22.4440  -24.2230  -29.8500 O.3    52  TYR52      -0.2866
     45  N        -20.0290  -18.7440  -14.3710 N.3   164  LYS164     -0.1245
     46  CA       -20.5630  -17.7420  -15.2910 C.3   164  LYS164      0.1561
     47  C        -20.9160  -16.5200  -14.4700 C.2   164  LYS164      0.2260
     48  O        -21.5110  -16.6340  -13.3690 O.2   164  LYS164     -0.2867
     49  CB       -21.7700  -18.3230  -16.0950 C.3   164  LYS164      0.0271
     50  CG       -21.2400  -19.4460  -16.9980 C.3   164  LYS164      0.0035
     51  CD       -22.2530  -20.1160  -17.9050 C.3   164  LYS164      0.0206
     52  CE       -21.6300  -21.3200  -18.6230 C.3   164  LYS164      0.1093
     53  NZ       -20.2630  -21.1030  -19.2550 N.3   164  LYS164     -0.1314
     54  N        -16.7300  -16.6530  -17.0730 N.3   193  ASP193     -0.1239
     55  CA       -17.3290  -16.5440  -18.3870 C.3   193  ASP193      0.1674
     56  C        -18.4390  -15.5190  -18.3350 C.2   193  ASP193      0.2266
     57  O        -19.3630  -15.6780  -17.5870 O.2   193  ASP193     -0.2867
     58  CB       -17.9360  -17.9270  -18.7350 C.3   193  ASP193      0.1410
     59  CG       -18.4550  -18.0170  -20.1590 C.2   193  ASP193      0.3668
     60  OD1      -18.5510  -17.0130  -20.8800 O.co2 193  ASP193     -0.2456
     61  OD2      -18.7730  -19.1540  -20.5630 O.co2 193  ASP193     -0.2456
     62  N        -20.2640  -14.6880  -21.0920 N.3   195  ASN195     -0.1240
     63  CA       -21.2890  -15.0420  -22.1180 C.3   195  ASN195      0.1653
     64  C        -21.7900  -13.8330  -22.8990 C.2   195  ASN195      0.2266
     65  O        -23.0230  -13.6490  -23.0710 O.2   195  ASN195     -0.2867
     66  CB       -22.5040  -15.7090  -21.4540 C.3   195  ASN195      0.1155
     67  CG       -22.2080  -17.1230  -21.0640 C.2   195  ASN195      0.2627
     68  OD1      -22.0120  -17.3970  -19.8900 O.2   195  ASN195     -0.2716
     69  ND2      -22.0380  -17.9970  -22.0540 N.am  195  ASN195     -0.0877
     70  N        -13.6130  -15.0010  -20.1900 N.3   219  GLU219     -0.1245
     71  CA       -14.1470  -15.5530  -21.4330 C.3   219  GLU219      0.1567
     72  C        -15.3360  -14.7630  -21.9700 C.2   219  GLU219      0.2260
     73  O        -16.2560  -14.4000  -21.2170 O.2   219  GLU219     -0.2867
     74  CB       -14.5410  -17.0080  -21.1400 C.3   219  GLU219      0.0388
     75  CG       -15.1750  -17.7730  -22.2820 C.3   219  GLU219      0.1160
     76  CD       -15.4810  -19.2000  -21.8340 C.2   219  GLU219      0.3649
     77  OE1      -14.7940  -19.7100  -20.9340 O.co2 219  GLU219     -0.2457
     78  OE2      -16.3870  -19.8200  -22.4200 O.co2 219  GLU219     -0.2457
     79  N        -15.5710  -20.2830  -28.7020 N.3   245  GLU245     -0.1245
     80  CA       -16.6350  -21.3060  -28.7290 C.3   245  GLU245      0.1567
     81  C        -17.6590  -20.9960  -29.7960 C.2   245  GLU245      0.2260
     82  O        -18.4140  -21.8810  -30.2150 O.2   245  GLU245     -0.2867
     83  CB       -17.3130  -21.4230  -27.3740 C.3   245  GLU245      0.0388
     84  CG       -18.0330  -20.1590  -26.9190 C.3   245  GLU245      0.1160
     85  CD       -18.0150  -20.0340  -25.4180 C.2   245  GLU245      0.3649
     86  OE1      -19.0640  -20.2490  -24.8170 O.co2 245  GLU245     -0.2457
     87  OE2      -16.9480  -19.7180  -24.8510 O.co2 245  GLU245     -0.2457
     88  N        -14.3780  -26.4740  -25.9310 N.3   295  HIS295     -0.1226
     89  CA       -15.7000  -26.0530  -25.4660 C.3   295  HIS295      0.1752
     90  C        -16.6580  -27.1840  -25.6870 C.2   295  HIS295      0.2595
     91  O        -16.8660  -27.5910  -26.8340 O.2   295  HIS295     -0.2718
     92  CB       -16.1810  -24.8630  -26.2740 C.3   295  HIS295      0.0759
     93  CG       -17.5810  -24.4160  -25.8960 C.ar  295  HIS295      0.0818
     94  ND1      -18.6470  -24.5770  -26.7290 N.ar  295  HIS295     -0.2268
     95  CD2      -18.0730  -23.8230  -24.7380 C.ar  295  HIS295      0.1154
     96  CE1      -19.7450  -24.0660  -26.1530 C.ar  295  HIS295      0.1986
     97  NE2      -19.4140  -23.6240  -24.9270 N.ar  295  HIS295     -0.2212
     98  N        -17.2180  -27.6720  -24.5830 N.am  296  LEU296     -0.1980
     99  CA       -18.2000  -28.8060  -24.6440 C.3   296  LEU296      0.1596
    100  C        -17.6160  -30.0220  -25.3640 C.2   296  LEU296      0.2287
    101  O        -16.4030  -30.1620  -25.5480 O.2   296  LEU296     -0.2864
    102  CB       -19.5310  -28.3660  -25.2900 C.3   296  LEU296      0.0297
    103  CG       -20.2380  -27.1800  -24.6380 C.3   296  LEU296      0.0022
    104  CD1      -21.4990  -26.8700  -25.4710 C.3   296  LEU296      0.0001
    105  CD2      -20.5640  -27.3990  -23.1570 C.3   296  LEU296      0.0001
    106  N        -12.7660  -28.5920  -21.2150 N.3   315  GLU315     -0.1245
    107  CA       -13.9890  -28.2150  -20.4690 C.3   315  GLU315      0.1567
    108  C        -14.8200  -29.4610  -20.0910 C.2   315  GLU315      0.2260
    109  O        -15.3300  -30.1620  -20.9690 O.2   315  GLU315     -0.2867
    110  CB       -14.8510  -27.2690  -21.2910 C.3   315  GLU315      0.0388
    111  CG       -16.0510  -26.8150  -20.4500 C.3   315  GLU315      0.1160
    112  CD       -16.9340  -25.7920  -21.1240 C.2   315  GLU315      0.3649
    113  OE1      -17.0480  -25.8480  -22.3620 O.co2 315  GLU315     -0.2457
    114  OE2      -17.5590  -24.9820  -20.3870 O.co2 315  GLU315     -0.2457
    115  N        -18.1640  -30.3330  -19.0700 N.3   317  LEU317     -0.1245
    116  CA       -19.5580  -29.8880  -18.9430 C.3   317  LEU317      0.1561
    117  C        -20.3050  -30.9890  -19.6490 C.2   317  LEU317      0.2260
    118  O        -20.3140  -31.0570  -20.8630 O.2   317  LEU317     -0.2867
    119  CB       -19.8080  -28.5210  -19.5920 C.3   317  LEU317      0.0270
    120  CG       -21.0860  -27.8450  -19.0230 C.3   317  LEU317      0.0019
    121  CD1      -21.1530  -26.3750  -19.3990 C.3   317  LEU317      0.0001
    122  CD2      -22.3530  -28.5590  -19.4910 C.3   317  LEU317      0.0001
    123  N        -22.9340  -32.4350  -21.0220 N.3   319  LEU319     -0.1245
    124  CA       -24.2690  -32.2630  -21.5850 C.3   319  LEU319      0.1561
    125  C        -24.9280  -33.5770  -21.9850 C.2   319  LEU319      0.2260
    126  O        -26.1580  -33.6730  -21.8900 O.2   319  LEU319     -0.2867
    127  CB       -24.2530  -31.3720  -22.8300 C.3   319  LEU319      0.0270
    128  CG       -24.1130  -29.8650  -22.6770 C.3   319  LEU319      0.0019
    129  CD1      -24.2630  -29.2550  -24.0640 C.3   319  LEU319      0.0001
    130  CD2      -25.0750  -29.2410  -21.6790 C.3   319  LEU319      0.0001
@<TRIPOS>BOND
     1    25    24    2
     2    22    23    1
     3    42    40   ar
     4    42    43   ar
     5    82    81    2
     6    24    23    1
     7    40    38   ar
     8    44    43    1
     9    81    80    1
    10    43    41   ar
    11    23    26    1
    12    80    79    1
    13    80    83    1
    14    38    37    1
    15    38    39   ar
    16    33    34    1
    17    26    27    1
    18    37    34    1
    19    41    39   ar
    20    34    35    1
    21    83    84    1
    22    27    29   ar
    23    27    28   ar
    24    35    36    2
    25    29    31   ar
    26    84    85    1
    27    91    90    2
    28    94    96   ar
    29    94    93   ar
    30    28    30   ar
    31    92    93    1
    32    92    89    1
    33    96    97   ar
    34    88    89    1
    35    31    32   ar
    36    93    95   ar
    37    90    89    1
    38    90    98   am
    39   101   100    2
    40    30    32   ar
    41   104   103    1
    42    85    87   ar
    43    85    86   ar
    44   100    99    1
    45   102    99    1
    46   102   103    1
    47    97    95   ar
    48    99    98    1
    49   103   105    1
    50   129   128    1
    51    65    64    2
    52    64    63    1
    53   127   128    1
    54   127   124    1
    55   128   130    1
    56    78    76   ar
    57   113   112   ar
    58    75    76    1
    59    75    74    1
    60    21    19    1
    61    20    19    1
    62    63    66    1
    63    63    62    1
    64    69    67   am
    65   125   126    2
    66   125   124    1
    67    72    71    1
    68    72    73    2
    69    76    77   ar
    70   124   123    1
    71    66    67    1
    72    71    74    1
    73    71    70    1
    74    19    16    1
    75   110   107    1
    76   110   111    1
    77   106   107    1
    78   112   111    1
    79   112   114   ar
    80    67    68    2
    81   109   108    2
    82    60    59   ar
    83   118   117    2
    84    16    15    1
    85    16    17    1
    86    61    59   ar
    87   107   108    1
    88    13    12    1
    89    59    58    1
    90    14    12    1
    91    17    18    2
    92   117   116    1
    93   119   120    1
    94   119   116    1
    95   122   120    1
    96    12     9    1
    97   121   120    1
    98    53    52    1
    99   115   116    1
   100    58    55    1
   101    52    51    1
   102     6     5    1
   103     5     7    1
   104     5     2    1
   105    55    56    1
   106    55    54    1
   107    56    57    2
   108     4     3    2
   109     9    10    1
   110     9     8    1
   111    51    50    1
   112    10    11    2
   113     3     2    1
   114     2     1    1
   115    50    49    1
   116    49    46    1
   117    46    47    1
   118    46    45    1
   119    47    48    2
