@<TRIPOS>MOLECULE
tmp/4fp3A00.pdb
 178 168 0 0 0
SMALL
GASTEIGER

@<TRIPOS>ATOM
      1  N          3.1750  -14.0300  -35.4800 N.3   207  ARG207     -0.1231
      2  CA         2.2160  -13.3270  -34.6380 C.3   207  ARG207      0.1694
      3  C          0.8740  -14.0660  -34.6730 C.2   207  ARG207      0.2591
      4  O          0.5970  -14.8460  -35.5870 O.2   207  ARG207     -0.2718
      5  CB         2.0180  -11.8680  -35.0950 C.3   207  ARG207      0.0321
      6  CG         3.0310  -10.8740  -34.5500 C.3   207  ARG207      0.0489
      7  CD         2.4290   -9.4770  -34.3720 C.3   207  ARG207      0.2205
      8  NE         1.4030   -9.4430  -33.3320 N.pl3 207  ARG207     -0.0865
      9  CZ         0.4600   -8.5060  -33.2340 C.cat 207  ARG207      0.5346
     10  NH1        0.4110   -7.5160  -34.1230 N.pl3 207  ARG207      0.1354
     11  NH2       -0.4430   -8.5600  -32.2540 N.pl3 207  ARG207      0.1354
     12  N          0.0490  -13.8050  -33.6680 N.am  208  ILE208     -0.1980
     13  CA        -1.3220  -14.2890  -33.6320 C.3   208  ILE208      0.1595
     14  C         -1.4080  -15.8090  -33.5240 C.2   208  ILE208      0.2287
     15  O         -1.8770  -16.4790  -34.4410 O.2   208  ILE208     -0.2864
     16  CB        -2.1430  -13.8210  -34.8500 C.3   208  ILE208      0.0276
     17  CG1       -1.7730  -12.3970  -35.2590 C.3   208  ILE208      0.0022
     18  CG2       -3.5970  -13.8740  -34.5160 C.3   208  ILE208      0.0022
     19  CD1       -2.0110  -11.3880  -34.1890 C.3   208  ILE208      0.0001
     20  N          4.5320  -14.3070  -40.7380 N.3   226  ARG226     -0.1245
     21  CA         4.6740  -12.9830  -41.3180 C.3   226  ARG226      0.1563
     22  C          6.0750  -12.7250  -41.8490 C.2   226  ARG226      0.2260
     23  O          7.0660  -12.8840  -41.1440 O.2   226  ARG226     -0.2867
     24  CB         4.2540  -11.9100  -40.3120 C.3   226  ARG226      0.0307
     25  CG         2.8540  -12.1180  -39.7700 C.3   226  ARG226      0.0489
     26  CD         2.4710  -11.0340  -38.8130 C.3   226  ARG226      0.2205
     27  NE         1.0380  -11.0230  -38.5350 N.pl3 226  ARG226     -0.0865
     28  CZ         0.4110  -10.0270  -37.9110 C.cat 226  ARG226      0.5346
     29  NH1        1.0940   -8.9620  -37.5060 N.pl3 226  ARG226      0.1354
     30  NH2       -0.8940  -10.0920  -37.6970 N.pl3 226  ARG226      0.1354
     31  N          0.9720   -5.7700  -39.5500 N.3   232  ASP232     -0.1225
     32  CA        -0.3230   -6.2580  -40.0140 C.3   232  ASP232      0.1805
     33  C         -0.3190   -6.2420  -41.5330 C.2   232  ASP232      0.2598
     34  O          0.5740   -5.6750  -42.1520 O.2   232  ASP232     -0.2718
     35  CB        -1.4460   -5.3350  -39.5480 C.3   232  ASP232      0.1424
     36  CG        -1.8980   -5.6170  -38.1350 C.2   232  ASP232      0.3668
     37  OD1       -2.7940   -4.8840  -37.6580 O.co2 232  ASP232     -0.2456
     38  OD2       -1.3730   -6.5660  -37.5140 O.co2 232  ASP232     -0.2456
     39  N         -1.3230   -6.8610  -42.1380 N.am  233  SER233     -0.1952
     40  CA        -1.5850   -6.6440  -43.5530 C.3   233  SER233      0.1924
     41  C         -1.8250   -5.1420  -43.7220 C.2   233  SER233      0.2314
     42  O         -2.2980   -4.4940  -42.7910 O.2   233  SER233     -0.2863
     43  CB        -2.8040   -7.4580  -44.0050 C.3   233  SER233      0.2116
     44  OG        -2.5700   -8.8520  -43.8700 O.3   233  SER233     -0.2180
     45  N         -4.4310  -13.4200  -42.4690 N.3   288  ILE288     -0.1231
     46  CA        -4.1880  -12.8340  -41.1550 C.3   288  ILE288      0.1692
     47  C         -5.3380  -13.1850  -40.2130 C.2   288  ILE288      0.2592
     48  O         -6.4980  -13.1990  -40.6190 O.2   288  ILE288     -0.2718
     49  CB        -3.9520  -11.2840  -41.2600 C.3   288  ILE288      0.0266
     50  CG1       -3.7780  -10.6320  -39.8840 C.3   288  ILE288      0.0019
     51  CG2       -5.0650  -10.5850  -42.0770 C.3   288  ILE288      0.0020
     52  CD1       -3.4110   -9.1710  -39.9710 C.3   288  ILE288      0.0001
     53  N         -5.0000  -13.4970  -38.9670 N.am  289  ASP289     -0.1974
     54  CA        -5.9700  -13.9180  -37.9520 C.3   289  ASP289      0.1709
     55  C         -6.6900  -15.2280  -38.2790 C.2   289  ASP289      0.2293
     56  O         -7.7310  -15.2310  -38.9340 O.2   289  ASP289     -0.2864
     57  CB        -6.9950  -12.8180  -37.6490 C.3   289  ASP289      0.1436
     58  CG        -6.3470  -11.5460  -37.1730 C.2   289  ASP289      0.3671
     59  OD1       -5.1560  -11.6100  -36.8090 O.co2 289  ASP289     -0.2456
     60  OD2       -7.0240  -10.4880  -37.1680 O.co2 289  ASP289     -0.2456
     61  N         -8.7670  -14.2620  -42.0670 N.3   306  ASP306     -0.1239
     62  CA        -9.0540  -13.1110  -42.9290 C.3   306  ASP306      0.1674
     63  C         -8.1840  -13.1980  -44.1820 C.2   306  ASP306      0.2266
     64  O         -7.0240  -13.5990  -44.1230 O.2   306  ASP306     -0.2867
     65  CB        -8.8080  -11.7650  -42.2300 C.3   306  ASP306      0.1410
     66  CG        -9.6220  -11.5900  -40.9630 C.2   306  ASP306      0.3668
     67  OD1      -10.7780  -12.0670  -40.8890 O.co2 306  ASP306     -0.2456
     68  OD2       -9.0930  -10.9630  -40.0290 O.co2 306  ASP306     -0.2456
     69  N         -6.7680  -11.0730  -47.5890 N.3   308  MET308     -0.1245
     70  CA        -6.5130   -9.7150  -48.0680 C.3   308  MET308      0.1570
     71  C         -5.9080   -9.7590  -49.4660 C.2   308  MET308      0.2261
     72  O         -4.8890  -10.4140  -49.6770 O.2   308  MET308     -0.2867
     73  CB        -5.5630   -8.9910  -47.1160 C.3   308  MET308      0.0387
     74  CG        -6.0720   -8.8840  -45.6930 C.3   308  MET308      0.0595
     75  SD        -7.2710   -7.5480  -45.4540 S.3   308  MET308     -0.1393
     76  CE        -7.4420   -7.5160  -43.6710 C.3   308  MET308      0.0692
     77  N         -6.5630   -3.7170  -43.1640 N.3   314  ASN314     -0.1240
     78  CA        -7.8650   -3.2530  -42.6630 C.3   314  ASN314      0.1653
     79  C         -8.0210   -1.7250  -42.6710 C.2   314  ASN314      0.2266
     80  O         -9.1320   -1.1960  -42.6330 O.2   314  ASN314     -0.2867
     81  CB        -8.1740   -3.8330  -41.2750 C.3   314  ASN314      0.1155
     82  CG        -7.2040   -3.3690  -40.2150 C.2   314  ASN314      0.2627
     83  OD1       -6.7220   -2.2430  -40.2590 O.2   314  ASN314     -0.2716
     84  ND2       -6.9090   -4.2370  -39.2540 N.am  314  ASN314     -0.0877
     85  N        -14.4180   -9.2580  -39.3290 N.3   451  TYR451     -0.1241
     86  CA       -13.0670   -9.6440  -38.9830 C.3   451  TYR451      0.1605
     87  C        -13.0640  -10.8180  -38.0460 C.2   451  TYR451      0.2264
     88  O        -13.6360  -10.7710  -36.9610 O.2   451  TYR451     -0.2867
     89  CB       -12.3380   -8.4760  -38.3560 C.3   451  TYR451      0.0534
     90  CG       -12.0100   -7.4090  -39.3550 C.ar  451  TYR451     -0.0201
     91  CD1      -11.0060   -7.6130  -40.2960 C.ar  451  TYR451     -0.0009
     92  CD2      -12.6940   -6.2000  -39.3650 C.ar  451  TYR451     -0.0009
     93  CE1      -10.6870   -6.6480  -41.2190 C.ar  451  TYR451      0.0417
     94  CE2      -12.3780   -5.2220  -40.2860 C.ar  451  TYR451      0.0417
     95  CZ       -11.3720   -5.4570  -41.2110 C.ar  451  TYR451      0.1957
     96  OH       -11.0450   -4.5020  -42.1350 O.3   451  TYR451     -0.2866
     97  N        -15.8800   -9.7940  -35.6520 N.3   471  TYR471     -0.1241
     98  CA       -16.2760   -8.4530  -35.2240 C.3   471  TYR471      0.1605
     99  C        -16.3100   -7.4620  -36.3840 C.2   471  TYR471      0.2264
    100  O        -15.6260   -7.6170  -37.4000 O.2   471  TYR471     -0.2867
    101  CB       -15.3650   -7.9230  -34.1000 C.3   471  TYR471      0.0534
    102  CG       -13.9340   -7.6860  -34.5400 C.ar  471  TYR471     -0.0201
    103  CD1      -13.5600   -6.4870  -35.1430 C.ar  471  TYR471     -0.0009
    104  CD2      -12.9580   -8.6610  -34.3600 C.ar  471  TYR471     -0.0009
    105  CE1      -12.2640   -6.2650  -35.5580 C.ar  471  TYR471      0.0417
    106  CE2      -11.6500   -8.4390  -34.7750 C.ar  471  TYR471      0.0417
    107  CZ       -11.3160   -7.2340  -35.3730 C.ar  471  TYR471      0.1957
    108  OH       -10.0330   -7.0030  -35.7920 O.3   471  TYR471     -0.2866
    109  N        -11.5670   -2.8970  -31.9320 N.3   501  THR501     -0.1218
    110  CA       -11.0550   -4.1860  -32.3310 C.3   501  THR501      0.1862
    111  C        -11.5470   -5.2040  -31.3000 C.2   501  THR501      0.2287
    112  O        -10.8170   -5.5840  -30.3800 O.2   501  THR501     -0.2866
    113  CB        -9.5190   -4.1640  -32.3730 C.3   501  THR501      0.1770
    114  OG1       -9.0750   -2.9850  -33.0630 O.3   501  THR501     -0.2211
    115  CG2       -8.9840   -5.4020  -33.0790 C.3   501  THR501      0.0375
    116  N        -11.8320   -8.2720  -30.6100 N.3   503  GLU503     -0.1245
    117  CA       -11.4000   -9.6600  -30.6760 C.3   503  GLU503      0.1567
    118  C        -12.0410  -10.4210  -29.5320 C.2   503  GLU503      0.2260
    119  O        -11.8580  -10.0610  -28.3610 O.2   503  GLU503     -0.2867
    120  CB        -9.8740   -9.7510  -30.6100 C.3   503  GLU503      0.0388
    121  CG        -9.1750   -9.0270  -31.7500 C.3   503  GLU503      0.1160
    122  CD        -7.7830   -8.5510  -31.3760 C.2   503  GLU503      0.3649
    123  OE1       -7.5270   -8.3070  -30.1760 O.co2 503  GLU503     -0.2457
    124  OE2       -6.9400   -8.4230  -32.2870 O.co2 503  GLU503     -0.2457
    125  N        -12.2060   -7.9940  -26.3770 N.3   519  ARG519     -0.1245
    126  CA       -11.3850   -6.7980  -26.2030 C.3   519  ARG519      0.1563
    127  C        -12.1990   -5.5370  -26.4570 C.2   519  ARG519      0.2260
    128  O        -12.9860   -5.4900  -27.3920 O.2   519  ARG519     -0.2867
    129  CB       -10.2100   -6.8670  -27.1840 C.3   519  ARG519      0.0307
    130  CG        -9.3890   -5.5970  -27.3990 C.3   519  ARG519      0.0489
    131  CD        -8.4160   -5.8510  -28.5430 C.3   519  ARG519      0.2205
    132  NE        -7.5770   -4.7040  -28.8690 N.pl3 519  ARG519     -0.0865
    133  CZ        -6.5440   -4.7490  -29.7120 C.cat 519  ARG519      0.5346
    134  NH1       -6.2270   -5.8850  -30.3270 N.pl3 519  ARG519      0.1354
    135  NH2       -5.8230   -3.6570  -29.9470 N.pl3 519  ARG519      0.1354
    136  N          1.4470   -3.7700  -23.4170 N.3   581  ARG581     -0.1245
    137  CA         1.2300   -5.2000  -23.5380 C.3   581  ARG581      0.1563
    138  C          2.3200   -5.9790  -22.7870 C.2   581  ARG581      0.2260
    139  O          3.2370   -6.5630  -23.3720 O.2   581  ARG581     -0.2867
    140  CB         1.0880   -5.5800  -25.0130 C.3   581  ARG581      0.0307
    141  CG        -0.1990   -5.0360  -25.6350 C.3   581  ARG581      0.0489
    142  CD        -0.3040   -5.3800  -27.1160 C.3   581  ARG581      0.2205
    143  NE        -1.6560   -5.2040  -27.6450 N.pl3 581  ARG581     -0.0865
    144  CZ        -1.9820   -5.2710  -28.9410 C.cat 581  ARG581      0.5346
    145  NH1       -1.0640   -5.4930  -29.8730 N.pl3 581  ARG581      0.1354
    146  NH2       -3.2400   -5.1060  -29.3130 N.pl3 581  ARG581      0.1354
    147  N         -0.7540  -11.1040  -27.6380 N.3   615  TYR615     -0.1241
    148  CA        -1.7830  -12.0540  -28.0600 C.3   615  TYR615      0.1605
    149  C         -1.4220  -13.4170  -27.5040 C.2   615  TYR615      0.2264
    150  O         -0.2410  -13.7170  -27.3210 O.2   615  TYR615     -0.2867
    151  CB        -1.9190  -12.0920  -29.5790 C.3   615  TYR615      0.0534
    152  CG        -2.7270  -10.9360  -30.1310 C.ar  615  TYR615     -0.0201
    153  CD1       -2.5770   -9.6450  -29.6250 C.ar  615  TYR615     -0.0009
    154  CD2       -3.6390  -11.1320  -31.1480 C.ar  615  TYR615     -0.0009
    155  CE1       -3.3180   -8.5880  -30.1170 C.ar  615  TYR615      0.0417
    156  CE2       -4.3810  -10.0810  -31.6510 C.ar  615  TYR615      0.0417
    157  CZ        -4.2120   -8.8100  -31.1380 C.ar  615  TYR615      0.1957
    158  OH        -4.9490   -7.7620  -31.6430 O.3   615  TYR615     -0.2866
    159  N          3.5220   -6.3240  -28.7530 N.3   635  SER635     -0.1202
    160  CA         3.2010   -6.3040  -30.1730 C.3   635  SER635      0.2020
    161  C          2.4640   -5.0290  -30.5980 C.2   635  SER635      0.2618
    162  O          2.0740   -4.8900  -31.7670 O.2   635  SER635     -0.2717
    163  CB         2.4120   -7.5650  -30.5690 C.3   635  SER635      0.2103
    164  OG         1.1710   -7.6720  -29.8790 O.3   635  SER635     -0.2182
    165  N          2.2790   -4.1100  -29.6450 N.am  636  TRP636     -0.1975
    166  CA         1.7450   -2.7710  -29.9270 C.3   636  TRP636      0.1640
    167  C          2.8740   -1.7490  -30.0080 C.2   636  TRP636      0.2290
    168  O          2.8400   -0.8330  -30.8360 O.2   636  TRP636     -0.2864
    169  CB         0.7390   -2.3280  -28.8540 C.3   636  TRP636      0.0576
    170  CG         0.0170   -1.0220  -29.1650 C.ar  636  TRP636      0.0006
    171  CD1        0.3510    0.2350  -28.7280 C.ar  636  TRP636      0.0946
    172  CD2       -1.1700   -0.8580  -29.9620 C.ar  636  TRP636      0.0152
    173  NE1       -0.5480    1.1570  -29.2010 N.ar  636  TRP636     -0.2442
    174  CE2       -1.4920    0.5130  -29.9570 C.ar  636  TRP636      0.0810
    175  CE3       -1.9950   -1.7410  -30.6740 C.ar  636  TRP636      0.0012
    176  CZ2       -2.5990    1.0170  -30.6390 C.ar  636  TRP636      0.0191
    177  CZ3       -3.0850   -1.2380  -31.3490 C.ar  636  TRP636      0.0001
    178  CH2       -3.3830    0.1220  -31.3240 C.ar  636  TRP636      0.0015
@<TRIPOS>BOND
     1    72    71    2
     2    71    70    1
     3    70    69    1
     4    70    73    1
     5    73    74    1
     6    74    75    1
     7    75    76    1
     8    63    64    2
     9    63    62    1
    10    43    44    1
    11    43    40    1
    12    41    40    1
    13    41    42    2
    14    40    39    1
    15    77    78    1
    16    62    65    1
    17    62    61    1
    18    79    78    1
    19    79    80    2
    20    78    81    1
    21    45    46    1
    22    65    66    1
    23    34    33    2
    24    39    33   am
    25    96    95    1
    26    51    49    1
    27    22    21    1
    28    22    23    2
    29    33    32    1
    30    21    20    1
    31    21    24    1
    32    81    82    1
    33    49    46    1
    34    49    50    1
    35    93    95   ar
    36    93    91   ar
    37    95    94   ar
    38    46    47    1
    39    66    67   ar
    40    66    68   ar
    41    48    47    2
    42    24    25    1
    43    91    90   ar
    44    94    92   ar
    45    83    82    2
    46    82    84   am
    47    47    53   am
    48    32    31    1
    49    32    35    1
    50    52    50    1
    51    25    26    1
    52    35    36    1
    53    92    90   ar
    54    90    89    1
    55    85    86    1
    56    86    89    1
    57    86    87    1
    58    53    54    1
    59    56    55    2
    60    26    27    1
    61    27    28    2
    62    55    54    1
    63    36    37   ar
    64    36    38   ar
    65    87    88    2
    66    54    57    1
    67    28    30    1
    68    28    29    1
    69    57    58    1
    70   100    99    2
    71    58    60   ar
    72    58    59   ar
    73    99    98    1
    74   108   107    1
    75    97    98    1
    76     4     3    2
    77   105   107   ar
    78   105   103   ar
    79     1     2    1
    80   107   106   ar
    81    17    16    1
    82    17    19    1
    83    98   101    1
    84   103   102   ar
    85     5     2    1
    86     5     6    1
    87    16    18    1
    88    16    13    1
    89   106   104   ar
    90     3     2    1
    91     3    12   am
    92     6     7    1
    93   102   104   ar
    94   102   101    1
    95    15    14    2
    96     7     8    1
    97    10     9    1
    98    12    13    1
    99    13    14    1
   100     8     9    2
   101     9    11    1
   102   115   113    1
   103   114   113    1
   104   113   110    1
   105   110   109    1
   106   110   111    1
   107   124   122   ar
   108   162   161    2
   109   121   122    1
   110   121   120    1
   111   156   154   ar
   112   156   157   ar
   113   158   157    1
   114   122   123   ar
   115   177   178   ar
   116   177   175   ar
   117   178   176   ar
   118   111   112    2
   119   154   152   ar
   120   157   155   ar
   121   168   167    2
   122   117   116    1
   123   117   120    1
   124   117   118    1
   125   175   172   ar
   126   176   174   ar
   127   161   160    1
   128   161   165   am
   129   163   160    1
   130   163   164    1
   131   134   133    1
   132   160   159    1
   133   152   153   ar
   134   152   151    1
   135   155   153   ar
   136   167   166    1
   137   172   174   ar
   138   172   170   ar
   139   174   173   ar
   140   135   133    1
   141   166   165    1
   142   166   169    1
   143   145   144    1
   144   133   132    2
   145   151   148    1
   146   118   119    2
   147   146   144    1
   148   173   171   ar
   149   170   169    1
   150   170   171   ar
   151   144   143    2
   152   132   131    1
   153   131   130    1
   154   148   147    1
   155   148   149    1
   156   143   142    1
   157   149   150    2
   158   130   129    1
   159   128   127    2
   160   129   126    1
   161   142   141    1
   162   127   126    1
   163   125   126    1
   164   141   140    1
   165   140   137    1
   166   137   136    1
   167   137   138    1
   168   139   138    2
