@<TRIPOS>MOLECULE
tmp/4fp4A01.pdb
 140 136 0 0 0
SMALL
GASTEIGER

@<TRIPOS>ATOM
      1  N          4.8870   41.9970   35.4030 N.3    38  TYR38      -0.1241
      2  CA         5.5730   42.7410   34.3480 C.3    38  TYR38       0.1605
      3  C          5.3450   42.1500   32.9600 C.2    38  TYR38       0.2264
      4  O          5.7750   42.7010   31.9350 O.2    38  TYR38      -0.2867
      5  CB         7.0660   42.8540   34.6850 C.3    38  TYR38       0.0534
      6  CG         7.3240   43.8250   35.7800 C.ar   38  TYR38      -0.0201
      7  CD1        7.0050   45.1710   35.6070 C.ar   38  TYR38      -0.0009
      8  CD2        7.9040   43.4310   36.9830 C.ar   38  TYR38      -0.0009
      9  CE1        7.2610   46.0840   36.5960 C.ar   38  TYR38       0.0417
     10  CE2        8.1630   44.3450   37.9840 C.ar   38  TYR38       0.0417
     11  CZ         7.8310   45.6760   37.7740 C.ar   38  TYR38       0.1957
     12  OH         8.0720   46.6200   38.7340 O.3    38  TYR38      -0.2866
     13  N          1.3820   43.9200   32.4110 N.3    41  THR41      -0.1204
     14  CA         1.5150   45.3400   32.2300 C.3    41  THR41       0.1979
     15  C          2.8040   45.3320   31.4760 C.2    41  THR41       0.2460
     16  O          3.8740   45.4210   32.0840 O.2    41  THR41      -0.2732
     17  CB         1.6680   46.1120   33.5400 C.3    41  THR41       0.1783
     18  OG1        0.4990   45.9150   34.3470 O.3    41  THR41      -0.2211
     19  CG2        1.8530   47.6060   33.2600 C.3    41  THR41       0.0376
     20  N          2.7120   45.1860   30.1440 N.am   42  PRO42      -0.2717
     21  CA         3.8810   45.0220   29.3070 C.3    42  PRO42       0.1536
     22  C          4.5400   46.3560   28.9930 C.2    42  PRO42       0.2599
     23  O          3.8840   47.4030   29.0080 O.2    42  PRO42      -0.2715
     24  CB         3.3020   44.3810   28.0330 C.3    42  PRO42       0.0310
     25  CG         1.8070   44.5860   28.1030 C.3    42  PRO42       0.0237
     26  CD         1.5100   45.4070   29.3260 C.3    42  PRO42       0.0939
     27  N          5.8410   46.3160   28.7390 N.am   43  GLY43      -0.1941
     28  CA         6.5750   47.5250   28.4090 C.3    43  GLY43       0.2014
     29  C          6.5340   47.7680   26.9160 C.2    43  GLY43       0.2639
     30  O          5.5150   47.5340   26.2560 O.2    43  GLY43      -0.2714
     31  N          7.6610   48.2280   26.3820 N.am   44  LYS44      -0.1963
     32  CA         7.7890   48.4910   24.9570 C.3    44  LYS44       0.1728
     33  C          8.2440   47.2390   24.2070 C.2    44  LYS44       0.2616
     34  O          8.2840   47.2300   22.9760 O.2    44  LYS44      -0.2715
     35  CB         8.7720   49.6380   24.7110 C.3    44  LYS44       0.0311
     36  CG         8.3730   50.9490   25.3680 C.3    44  LYS44       0.0038
     37  CD         9.3890   52.0420   25.0810 C.3    44  LYS44       0.0206
     38  CE        10.7690   51.6630   25.5950 C.3    44  LYS44       0.1093
     39  NZ        10.7690   51.4340   27.0660 N.3    44  LYS44      -0.1314
     40  N          8.5870   46.1850   24.9450 N.am   45  LEU45      -0.1963
     41  CA         9.0410   44.9390   24.3150 C.3    45  LEU45       0.1728
     42  C         10.1810   45.2660   23.3500 C.2    45  LEU45       0.2616
     43  O         10.2730   44.7520   22.2580 O.2    45  LEU45      -0.2715
     44  CB         7.9120   44.2100   23.6100 C.3    45  LEU45       0.0311
     45  CG         6.7950   43.7270   24.5540 C.3    45  LEU45       0.0022
     46  CD1        5.7240   43.0210   23.7490 C.3    45  LEU45       0.0001
     47  CD2        7.3020   42.7880   25.6320 C.3    45  LEU45       0.0001
     48  N         11.0090   46.1810   23.7920 N.am   46  LEU46      -0.1963
     49  CA        12.1660   46.6090   23.0570 C.3    46  LEU46       0.1728
     50  C         13.1410   45.4450   22.7890 C.2    46  LEU46       0.2616
     51  O         13.6360   45.2610   21.6610 O.2    46  LEU46      -0.2715
     52  CB        12.8500   47.6670   23.8930 C.3    46  LEU46       0.0311
     53  CG        14.2120   48.1440   23.4290 C.3    46  LEU46       0.0022
     54  CD1       14.0230   48.8380   22.1010 C.3    46  LEU46       0.0001
     55  CD2       14.8390   49.0590   24.4700 C.3    46  LEU46       0.0001
     56  N         13.4120   44.6580   23.8220 N.am   47  ARG47      -0.1977
     57  CA        14.3930   43.5700   23.6490 C.3    47  ARG47       0.1597
     58  C         13.9000   42.5500   22.6260 C.2    47  ARG47       0.2287
     59  O         14.6310   42.2670   21.6780 O.2    47  ARG47      -0.2864
     60  CB        14.7850   43.0030   25.0140 C.3    47  ARG47       0.0334
     61  CG        15.5800   44.0460   25.7780 C.3    47  ARG47       0.0492
     62  CD        15.5850   43.8010   27.2610 C.3    47  ARG47       0.2205
     63  NE        16.1650   44.9510   27.9270 N.pl3  47  ARG47      -0.0865
     64  CZ        15.5320   46.0990   28.1430 C.cat  47  ARG47       0.5346
     65  NH1       14.2760   46.2640   27.7500 N.pl3  47  ARG47       0.1354
     66  NH2       16.1730   47.0850   28.7420 N.pl3  47  ARG47       0.1354
     67  N         12.8310   38.6970   26.9670 N.3    76  GLU76      -0.1245
     68  CA        11.8940   39.5320   27.7110 C.3    76  GLU76       0.1567
     69  C         11.7700   38.9950   29.1560 C.2    76  GLU76       0.2260
     70  O         11.7710   39.7580   30.1220 O.2    76  GLU76      -0.2867
     71  CB        10.5460   39.6180   26.9940 C.3    76  GLU76       0.0388
     72  CG         9.5420   40.5470   27.6950 C.3    76  GLU76       0.1160
     73  CD        10.0210   42.0050   27.8020 C.2    76  GLU76       0.3649
     74  OE1       10.9170   42.4380   27.0510 O.co2  76  GLU76      -0.2457
     75  OE2        9.4990   42.7460   28.6500 O.co2  76  GLU76      -0.2457
     76  N         14.5870   40.2660   31.1700 N.3    79  HIS79      -0.1226
     77  CA        14.3730   41.6820   31.4690 C.3    79  HIS79       0.1752
     78  C         13.3980   41.7900   32.6740 C.2    79  HIS79       0.2595
     79  O         13.6030   42.5780   33.5900 O.2    79  HIS79      -0.2718
     80  CB        13.8120   42.3770   30.2570 C.3    79  HIS79       0.0759
     81  CG        13.3460   43.7740   30.5230 C.ar   79  HIS79       0.0818
     82  ND1       14.1950   44.7700   30.9610 N.ar   79  HIS79      -0.2268
     83  CD2       12.1280   44.3490   30.3700 C.ar   79  HIS79       0.1154
     84  CE1       13.5130   45.8970   31.0880 C.ar   79  HIS79       0.1986
     85  NE2       12.2580   45.6680   30.7310 N.ar   79  HIS79      -0.2212
     86  N         12.3330   40.9900   32.6620 N.am   80  VAL80      -0.1980
     87  CA        11.3820   40.9810   33.7810 C.3    80  VAL80       0.1595
     88  C         12.0680   40.5920   35.0780 C.2    80  VAL80       0.2287
     89  O         11.8250   41.2130   36.1090 O.2    80  VAL80      -0.2864
     90  CB        10.1810   40.0530   33.4760 C.3    80  VAL80       0.0276
     91  CG1        9.3310   39.8120   34.7340 C.3    80  VAL80       0.0022
     92  CG2        9.3720   40.6470   32.3210 C.3    80  VAL80       0.0022
     93  N         13.8400   43.6850   36.2750 N.3    83  LEU83      -0.1245
     94  CA        12.9070   44.6330   36.9220 C.3    83  LEU83       0.1561
     95  C         12.5380   44.2400   38.3590 C.2    83  LEU83       0.2260
     96  O         12.5340   45.0800   39.2700 O.2    83  LEU83      -0.2867
     97  CB        11.6250   44.7730   36.0960 C.3    83  LEU83       0.0270
     98  CG        11.8740   45.3760   34.7140 C.3    83  LEU83       0.0019
     99  CD1       10.5840   45.4650   33.8990 C.3    83  LEU83       0.0001
    100  CD2       12.5300   46.7460   34.8460 C.3    83  LEU83       0.0001
    101  N          6.3980   51.4500   39.5640 N.3    95  ARG95      -0.1231
    102  CA         7.2440   51.4830   38.3940 C.3    95  ARG95       0.1694
    103  C          6.3340   51.9770   37.2940 C.2    95  ARG95       0.2591
    104  O          5.5410   51.2130   36.7360 O.2    95  ARG95      -0.2718
    105  CB         7.8880   50.1200   38.0990 C.3    95  ARG95       0.0321
    106  CG         8.9320   50.1890   37.0000 C.3    95  ARG95       0.0489
    107  CD         9.7030   48.8880   36.8100 C.3    95  ARG95       0.2205
    108  NE        10.6690   48.6240   37.8710 N.pl3  95  ARG95      -0.0865
    109  CZ        11.9270   49.0570   37.8480 C.cat  95  ARG95       0.5346
    110  NH1       12.3440   49.7930   36.8330 N.pl3  95  ARG95       0.1354
    111  NH2       12.7640   48.7680   38.8410 N.pl3  95  ARG95       0.1354
    112  N          6.4570   53.2810   37.0240 N.am   96  ARG96      -0.1980
    113  CA         5.6340   54.0330   36.0730 C.3    96  ARG96       0.1597
    114  C          4.1390   54.1040   36.4350 C.2    96  ARG96       0.2287
    115  O          3.2900   53.7280   35.6430 O.2    96  ARG96      -0.2864
    116  CB         5.7990   53.4820   34.6570 C.3    96  ARG96       0.0334
    117  CG         7.2370   53.3910   34.2030 C.3    96  ARG96       0.0492
    118  CD         7.3440   53.4640   32.6990 C.3    96  ARG96       0.2205
    119  NE         8.5750   54.1270   32.2980 N.pl3  96  ARG96      -0.0865
    120  CZ         9.6030   53.5030   31.7460 C.cat  96  ARG96       0.5346
    121  NH1        9.5370   52.2030   31.5200 N.pl3  96  ARG96       0.1354
    122  NH2       10.6920   54.1810   31.4130 N.pl3  96  ARG96       0.1354
    123  N         21.4440   53.5330   25.5930 N.3   198  TYR198     -0.1241
    124  CA        20.0800   53.3680   26.0310 C.3   198  TYR198      0.1605
    125  C         19.9450   53.3040   27.5270 C.2   198  TYR198      0.2264
    126  O         18.8500   53.1580   28.0380 O.2   198  TYR198     -0.2867
    127  CB        19.4970   52.1010   25.4270 C.3   198  TYR198      0.0534
    128  CG        18.0310   51.9940   25.6600 C.ar  198  TYR198     -0.0201
    129  CD1       17.1340   52.2670   24.6490 C.ar  198  TYR198     -0.0009
    130  CD2       17.5380   51.6510   26.9000 C.ar  198  TYR198     -0.0009
    131  CE1       15.7860   52.1870   24.8550 C.ar  198  TYR198      0.0417
    132  CE2       16.1860   51.5680   27.1210 C.ar  198  TYR198      0.0417
    133  CZ        15.3150   51.8400   26.0910 C.ar  198  TYR198      0.1957
    134  OH        13.9630   51.7560   26.2990 O.3   198  TYR198     -0.2866
    135  N         17.7290   56.5680   29.0150 N.3   201  SER201     -0.1217
    136  CA        16.2820   56.6500   28.8500 C.3   201  SER201      0.1889
    137  C         15.5660   55.4030   29.3620 C.2   201  SER201      0.2288
    138  O         14.3430   55.3920   29.5150 O.2   201  SER201     -0.2866
    139  CB        15.9320   56.8980   27.3830 C.3   201  SER201      0.2089
    140  OG        14.5470   56.7280   27.1490 O.3   201  SER201     -0.2183
@<TRIPOS>BOND
     1    51    50    2
     2    59    58    2
     3    54    53    1
     4    43    42    2
     5    58    57    1
     6    50    49    1
     7    50    56   am
     8    34    33    2
     9    49    48    1
    10    49    52    1
    11    42    48   am
    12    42    41    1
    13    53    52    1
    14    53    55    1
    15    44    41    1
    16    44    45    1
    17    57    56    1
    18    57    60    1
    19    46    45    1
    20    33    40   am
    21    33    32    1
    22    41    40    1
    23    45    47    1
    24   129   131   ar
    25   129   128   ar
    26    35    32    1
    27    35    36    1
    28   131   133   ar
    29    32    31    1
    30    60    61    1
    31    37    36    1
    32    37    38    1
    33   127   128    1
    34   127   124    1
    35   123   124    1
    36    38    39    1
    37   128   130   ar
    38    61    62    1
    39   124   125    1
    40   133   134    1
    41   133   132   ar
    42    30    29    2
    43    31    29   am
    44   130   132   ar
    45    29    28    1
    46    67    68    1
    47    71    72    1
    48    71    68    1
    49    74    73   ar
    50   140   139    1
    51    62    63    1
    52   139   136    1
    53   125   126    2
    54    72    73    1
    55    68    69    1
    56    65    64    1
    57    73    75   ar
    58    63    64    2
    59    24    25    1
    60    24    21    1
    61    25    26    1
    62    64    66    1
    63    28    27    1
    64    27    22   am
    65   136   135    1
    66   136   137    1
    67    22    23    2
    68    22    21    1
    69    69    70    2
    70    21    20    1
    71    26    20    1
    72   137   138    2
    73    20    15   am
    74    80    81    1
    75    80    77    1
    76    83    81   ar
    77    83    85   ar
    78    81    82   ar
    79    85    84   ar
    80    82    84   ar
    81    76    77    1
    82   122   120    1
    83    77    78    1
    84    15    16    2
    85    15    14    1
    86   121   120    1
    87   120   119    2
    88     4     3    2
    89    14    13    1
    90    14    17    1
    91   119   118    1
    92    92    90    1
    93    86    78   am
    94    86    87    1
    95    78    79    2
    96   118   117    1
    97     3     2    1
    98    19    17    1
    99    90    87    1
   100    90    91    1
   101    17    18    1
   102    87    88    1
   103    99    98    1
   104   117   116    1
   105     2     5    1
   106     2     1    1
   107   116   113    1
   108     5     6    1
   109    98   100    1
   110    98    97    1
   111    88    89    2
   112     7     6   ar
   113     7     9   ar
   114   115   114    2
   115     6     8   ar
   116   113   114    1
   117   113   112    1
   118    97    94    1
   119    93    94    1
   120     9    11   ar
   121   104   103    2
   122   107   106    1
   123   107   108    1
   124   110   109    1
   125    94    95    1
   126     8    10   ar
   127   106   105    1
   128   112   103   am
   129   103   102    1
   130    11    10   ar
   131    11    12    1
   132   109   108    2
   133   109   111    1
   134   105   102    1
   135    95    96    2
   136   102   101    1
