@<TRIPOS>MOLECULE
tmp/4fp4A00.pdb
 145 131 0 0 0
SMALL
GASTEIGER

@<TRIPOS>ATOM
      1  N         14.0730   37.6180   31.0060 N.3    78  LEU78      -0.1245
      2  CA        15.2250   38.0270   31.7890 C.3    78  LEU78       0.1561
      3  C         15.1090   39.5080   32.1080 C.2    78  LEU78       0.2260
      4  O         15.5460   39.9430   33.1490 O.2    78  LEU78      -0.2867
      5  CB        16.5420   37.7610   31.0320 C.3    78  LEU78       0.0270
      6  CG        16.7130   36.2610   30.7490 C.3    78  LEU78       0.0019
      7  CD1       17.8940   35.9690   29.8350 C.3    78  LEU78       0.0001
      8  CD2       16.8690   35.5410   32.0720 C.3    78  LEU78       0.0001
      9  N         12.9420   39.5770   35.0370 N.3    81  VAL81      -0.1231
     10  CA        13.7130   39.2340   36.2180 C.3    81  VAL81       0.1692
     11  C         14.5010   40.4700   36.6800 C.2    81  VAL81       0.2592
     12  O         14.6240   40.7400   37.8940 O.2    81  VAL81      -0.2718
     13  CB        14.7210   38.0840   35.9420 C.3    81  VAL81       0.0266
     14  CG1       15.7160   37.9890   37.0880 C.3    81  VAL81       0.0020
     15  CG2       13.9780   36.7750   35.7030 C.3    81  VAL81       0.0020
     16  N         15.0830   41.2090   35.7380 N.am   82  SER82      -0.1952
     17  CA        15.8950   42.3530   36.1920 C.3    82  SER82       0.1924
     18  C         15.0010   43.4170   36.8530 C.2    82  SER82       0.2314
     19  O         15.3550   43.9700   37.8890 O.2    82  SER82      -0.2863
     20  CB        16.7510   42.9700   35.0770 C.3    82  SER82       0.2116
     21  OG        15.9710   43.6120   34.1020 O.3    82  SER82      -0.2180
     22  N         14.1010   42.3170   40.5620 N.3    85  GLN85      -0.1231
     23  CA        15.2060   42.4190   41.5040 C.3    85  GLN85       0.1698
     24  C         15.6100   43.8600   41.7340 C.2    85  GLN85       0.2592
     25  O         15.9900   44.2400   42.8300 O.2    85  GLN85      -0.2718
     26  CB        16.4070   41.5780   41.0240 C.3    85  GLN85       0.0381
     27  CG        16.0740   40.0860   41.0470 C.3    85  GLN85       0.0905
     28  CD        17.3020   39.2010   40.8800 C.2    85  GLN85       0.2608
     29  OE1       17.2320   37.9740   40.9560 O.2    85  GLN85      -0.2717
     30  NE2       18.4260   39.8250   40.6460 N.am   85  GLN85      -0.0878
     31  N         15.5400   44.6530   40.6850 N.am   86  ASP86      -0.1974
     32  CA        15.8630   46.0620   40.8070 C.3    86  ASP86       0.1709
     33  C         14.8410   46.7550   41.7330 C.2    86  ASP86       0.2293
     34  O         15.1920   47.6470   42.5190 O.2    86  ASP86      -0.2864
     35  CB        15.8710   46.6830   39.4320 C.3    86  ASP86       0.1436
     36  CG        16.2030   48.1330   39.4780 C.2    86  ASP86       0.3671
     37  OD1       17.3800   48.4460   39.7100 O.co2  86  ASP86      -0.2456
     38  OD2       15.2860   48.9570   39.2790 O.co2  86  ASP86      -0.2456
     39  N         16.1890   45.9830   45.1930 N.3    89  MET89      -0.1245
     40  CA        17.4490   46.6430   45.5440 C.3    89  MET89       0.1570
     41  C         17.3350   48.1610   45.6310 C.2    89  MET89       0.2261
     42  O         17.9710   48.7900   46.4690 O.2    89  MET89      -0.2867
     43  CB        18.5260   46.2620   44.5430 C.3    89  MET89       0.0387
     44  CG        18.6940   44.7600   44.4680 C.3    89  MET89       0.0595
     45  SD        20.0810   44.3430   43.4160 S.3    89  MET89      -0.1393
     46  CE        19.5010   42.7930   42.7400 C.3    89  MET89       0.0692
     47  N         13.8990   32.8670   36.4000 N.3   118  ILE118     -0.1245
     48  CA        15.2240   32.4620   35.9260 C.3   118  ILE118      0.1561
     49  C         15.1290   31.0020   35.5380 C.2   118  ILE118      0.2260
     50  O         15.5450   30.6060   34.4550 O.2   118  ILE118     -0.2867
     51  CB        16.2980   32.6670   36.9940 C.3   118  ILE118      0.0252
     52  CG1       16.5120   34.1630   37.2180 C.3   118  ILE118      0.0019
     53  CG2       17.6080   31.9980   36.5710 C.3   118  ILE118      0.0019
     54  CD1       17.2930   34.4990   38.4740 C.3   118  ILE118      0.0001
     55  N         13.2090   30.4820   32.2780 N.3   121  SER121     -0.1202
     56  CA        14.0580   30.8500   31.1460 C.3   121  SER121      0.2020
     57  C         15.1250   29.7850   30.7930 C.2   121  SER121      0.2618
     58  O         15.4160   29.5500   29.6110 O.2   121  SER121     -0.2717
     59  CB        14.7890   32.1580   31.4630 C.3   121  SER121      0.2103
     60  OG        13.8770   33.2220   31.5410 O.3   121  SER121     -0.2182
     61  N         15.7260   29.2060   31.8220 N.am  122  ILE122     -0.1979
     62  CA        16.6900   28.1270   31.6120 C.3   122  ILE122      0.1595
     63  C         15.9750   26.9980   30.9090 C.2   122  ILE122      0.2287
     64  O         16.4740   26.4710   29.9030 O.2   122  ILE122     -0.2864
     65  CB        17.3030   27.6290   32.9330 C.3   122  ILE122      0.0276
     66  CG1       18.0520   28.7800   33.5950 C.3   122  ILE122      0.0022
     67  CG2       18.2370   26.4310   32.6890 C.3   122  ILE122      0.0022
     68  CD1       18.4710   28.5420   35.0290 C.3   122  ILE122      0.0001
     69  N         15.5510   27.9070   27.4310 N.3   125  ALA125     -0.1245
     70  CA        16.8380   27.9660   26.6920 C.3   125  ALA125      0.1562
     71  C         17.3930   26.5720   26.3450 C.2   125  ALA125      0.2260
     72  O         18.0170   26.3740   25.3090 O.2   125  ALA125     -0.2867
     73  CB        17.8680   28.7650   27.4830 C.3   125  ALA125      0.0290
     74  N         22.4230   28.3200   26.1710 N.3   133  VAL133     -0.1245
     75  CA        22.4100   28.2250   27.6240 C.3   133  VAL133      0.1561
     76  C         23.6690   28.8070   28.2590 C.2   133  VAL133      0.2260
     77  O         23.5830   29.6210   29.1790 O.2   133  VAL133     -0.2867
     78  CB        22.2260   26.7710   28.1130 C.3   133  VAL133      0.0252
     79  CG1       22.3910   26.7200   29.6120 C.3   133  VAL133      0.0019
     80  CG2       20.8460   26.2430   27.7200 C.3   133  VAL133      0.0019
     81  N         23.6990   32.6260   27.7750 N.3   136  LEU136     -0.1231
     82  CA        22.7950   33.3430   28.6870 C.3   136  LEU136      0.1693
     83  C         23.3160   33.3780   30.1190 C.2   136  LEU136      0.2591
     84  O         23.1810   34.3820   30.8340 O.2   136  LEU136     -0.2718
     85  CB        21.3740   32.7540   28.6350 C.3   136  LEU136      0.0284
     86  CG        20.7430   33.0520   27.2830 C.3   136  LEU136      0.0019
     87  CD1       19.3570   32.4210   27.2040 C.3   136  LEU136      0.0001
     88  CD2       20.6670   34.5700   27.0560 C.3   136  LEU136      0.0001
     89  N         23.9260   32.2850   30.5490 N.am  137  ALA137     -0.1980
     90  CA        24.5140   32.2660   31.8620 C.3   137  ALA137      0.1597
     91  C         25.6540   33.2990   31.9350 C.2   137  ALA137      0.2287
     92  O         25.8160   33.9790   32.9680 O.2   137  ALA137     -0.2864
     93  CB        24.9890   30.8290   32.2560 C.3   137  ALA137      0.0319
     94  N         23.9750   36.6730   32.2700 N.3   140  ALA140     -0.1245
     95  CA        23.5920   36.7550   33.6750 C.3   140  ALA140      0.1562
     96  C         24.7130   37.1750   34.6310 C.2   140  ALA140      0.2260
     97  O         24.4940   38.0370   35.4940 O.2   140  ALA140     -0.2867
     98  CB        22.9960   35.4140   34.1270 C.3   140  ALA140      0.0290
     99  N         25.5470   40.7900   34.1220 N.3   143  LEU143     -0.1231
    100  CA        24.5010   41.6400   34.7160 C.3   143  LEU143      0.1693
    101  C         24.7280   41.7330   36.2120 C.2   143  LEU143      0.2592
    102  O         24.5900   42.7970   36.8120 O.2   143  LEU143     -0.2718
    103  CB        23.0940   41.1070   34.4000 C.3   143  LEU143      0.0284
    104  CG        22.5410   41.2290   32.9790 C.3   143  LEU143      0.0019
    105  CD1       21.2290   40.4500   32.8260 C.3   143  LEU143      0.0001
    106  CD2       22.3250   42.6960   32.5980 C.3   143  LEU143      0.0001
    107  N         25.0890   40.6020   36.8140 N.am  144  SER144     -0.1952
    108  CA        25.3960   40.5360   38.2220 C.3   144  SER144      0.1924
    109  C         26.5600   41.4720   38.5960 C.2   144  SER144      0.2314
    110  O         26.4780   42.2360   39.5560 O.2   144  SER144     -0.2863
    111  CB        25.7450   39.0850   38.6110 C.3   144  SER144      0.2116
    112  OG        24.5920   38.2560   38.5130 O.3   144  SER144     -0.2180
    113  N         25.5180   45.0190   38.3830 N.3   147  GLN147     -0.1245
    114  CA        24.7230   45.4870   39.4970 C.3   147  GLN147      0.1566
    115  C         25.5970   45.6480   40.7290 C.2   147  GLN147      0.2260
    116  O         25.3660   46.5520   41.5340 O.2   147  GLN147     -0.2867
    117  CB        23.5540   44.5330   39.7780 C.3   147  GLN147      0.0367
    118  CG        22.6690   44.9990   40.9200 C.3   147  GLN147      0.0905
    119  CD        22.0990   46.3920   40.6900 C.2   147  GLN147      0.2608
    120  OE1       22.0330   46.8720   39.5540 O.2   147  GLN147     -0.2717
    121  NE2       21.6750   47.0450   41.7720 N.am  147  GLN147     -0.0878
    122  N         25.4750   46.7820   33.2950 N.3   162  LYS162     -0.1231
    123  CA        24.1890   46.9130   33.9770 C.3   162  LYS162      0.1693
    124  C         22.9640   46.4690   33.1600 C.2   162  LYS162      0.2592
    125  O         22.1240   45.7260   33.6770 O.2   162  LYS162     -0.2718
    126  CB        24.0160   48.3550   34.4960 C.3   162  LYS162      0.0285
    127  CG        22.8500   48.5340   35.4570 C.3   162  LYS162      0.0035
    128  CD        22.8110   49.9390   36.0360 C.3   162  LYS162      0.0206
    129  CE        21.5670   50.1460   36.8840 C.3   162  LYS162      0.1093
    130  NZ        21.5060   49.1780   38.0110 N.3   162  LYS162     -0.1314
    131  N         22.8460   46.9180   31.9150 N.am  163  THR163     -0.1953
    132  CA        21.7040   46.5310   31.0870 C.3   163  THR163      0.1897
    133  C         22.1430   46.1310   29.6900 C.2   163  THR163      0.2313
    134  O         21.4880   45.3150   29.0290 O.2   163  THR163     -0.2863
    135  CB        20.6680   47.6630   30.9650 C.3   163  THR163      0.1794
    136  OG1       21.3120   48.8370   30.4610 O.3   163  THR163     -0.2208
    137  CG2       20.0310   47.9710   32.3160 C.3   163  THR163      0.0378
    138  N         21.8350   42.4800   28.2140 N.3   166  LEU166     -0.1245
    139  CA        20.5820   41.9810   27.6300 C.3   166  LEU166      0.1561
    140  C         20.2870   42.5510   26.2620 C.2   166  LEU166      0.2260
    141  O         19.6670   41.8800   25.4500 O.2   166  LEU166     -0.2867
    142  CB        19.3510   42.2740   28.5050 C.3   166  LEU166      0.0270
    143  CG        19.0470   41.3550   29.6580 C.3   166  LEU166      0.0019
    144  CD1       17.7040   41.7570   30.2590 C.3   166  LEU166      0.0001
    145  CD2       19.0370   39.9140   29.1650 C.3   166  LEU166      0.0001
@<TRIPOS>BOND
     1    72    71    2
     2   141   140    2
     3    74    75    1
     4   140   139    1
     5    71    70    1
     6    70    69    1
     7    70    73    1
     8    88    86    1
     9    87    86    1
    10    86    85    1
    11    75    78    1
    12    75    76    1
    13   139   138    1
    14   139   142    1
    15    80    78    1
    16    81    82    1
    17    78    79    1
    18    76    77    2
    19   142   143    1
    20    85    82    1
    21    82    83    1
    22   134   133    2
    23   145   143    1
    24    58    57    2
    25   143   144    1
    26   133   132    1
    27     7     6    1
    28    64    63    2
    29    83    89   am
    30    83    84    2
    31   136   135    1
    32    89    90    1
    33     6     5    1
    34     6     8    1
    35    57    56    1
    36    57    61   am
    37    63    62    1
    38   135   132    1
    39   135   137    1
    40     1     2    1
    41     5     2    1
    42   132   131    1
    43    56    59    1
    44    56    55    1
    45    59    60    1
    46    62    61    1
    47    62    65    1
    48     2     3    1
    49    90    91    1
    50    90    93    1
    51   131   124   am
    52    91    92    2
    53     3     4    2
    54    94    95    1
    55   106   104    1
    56    67    65    1
    57   105   104    1
    58    65    66    1
    59   104   103    1
    60   124   125    2
    61   124   123    1
    62   122   123    1
    63    66    68    1
    64    95    98    1
    65    95    96    1
    66   123   126    1
    67    21    20    1
    68    99   100    1
    69   103   100    1
    70    50    49    2
    71   126   127    1
    72    96    97    2
    73   100   101    1
    74     9    10    1
    75    20    17    1
    76   127   128    1
    77    49    48    1
    78    15    13    1
    79    16    17    1
    80    16    11   am
    81    48    47    1
    82    48    51    1
    83    13    10    1
    84    13    14    1
    85   128   129    1
    86    17    18    1
    87   101   102    2
    88   101   107   am
    89    10    11    1
    90    53    51    1
    91    11    12    2
    92   107   108    1
    93    18    19    2
    94   129   130    1
    95    51    52    1
    96    52    54    1
    97   108   109    1
    98   108   111    1
    99   113   114    1
   100   112   111    1
   101   109   110    2
   102    38    36   ar
   103    35    36    1
   104    35    32    1
   105    36    37   ar
   106   114   117    1
   107   114   115    1
   108   120   119    2
   109   117   118    1
   110    22    23    1
   111    30    28   am
   112    31    32    1
   113    31    24   am
   114   119   118    1
   115   119   121   am
   116   115   116    2
   117    32    33    1
   118    28    29    2
   119    28    27    1
   120    26    27    1
   121    26    23    1
   122    23    24    1
   123    33    34    2
   124    24    25    2
   125    46    45    1
   126    45    44    1
   127    44    43    1
   128    43    40    1
   129    39    40    1
   130    40    41    1
   131    41    42    2
