@<TRIPOS>MOLECULE
tmp/4fp9C00.pdb
 183 175 0 0 0
SMALL
GASTEIGER

@<TRIPOS>ATOM
      1  N        125.9970  101.8070   82.4770 N.3   116  SER116     -0.1217
      2  CA       126.5070  102.3790   81.2220 C.3   116  SER116      0.1889
      3  C        126.3210  101.4600   80.0100 C.2   116  SER116      0.2288
      4  O        126.4420  101.9120   78.8660 O.2   116  SER116     -0.2866
      5  CB       127.9880  102.7110   81.3400 C.3   116  SER116      0.2089
      6  OG       128.1690  103.7930   82.2360 O.3   116  SER116     -0.2183
      7  N        128.9570  106.9310   67.4440 N.3   133  ASP133     -0.1225
      8  CA       129.0510  107.2680   68.8670 C.3   133  ASP133      0.1805
      9  C        129.5480  108.7030   68.8400 C.2   133  ASP133      0.2598
     10  O        130.7330  108.9330   68.6790 O.2   133  ASP133     -0.2718
     11  CB       129.9750  106.2830   69.6390 C.3   133  ASP133      0.1424
     12  CG       129.9330  106.3780   71.1720 C.2   133  ASP133      0.3668
     13  OD1      129.3230  107.3550   71.7080 O.co2 133  ASP133     -0.2456
     14  OD2      130.5150  105.4830   71.8420 O.co2 133  ASP133     -0.2456
     15  N        128.6260  109.6660   68.8820 N.am  134  LEU134     -0.1966
     16  CA       128.9300  111.0950   68.7060 C.3   134  LEU134      0.1728
     17  C        129.8400  111.6790   69.8000 C.2   134  LEU134      0.2616
     18  O        130.6230  112.5860   69.5010 O.2   134  LEU134     -0.2715
     19  CB       127.6170  111.9050   68.6240 C.3   134  LEU134      0.0311
     20  CG       127.7070  113.3180   68.0540 C.3   134  LEU134      0.0022
     21  CD1      128.2750  113.3090   66.6550 C.3   134  LEU134      0.0001
     22  CD2      126.3310  113.9880   68.0440 C.3   134  LEU134      0.0001
     23  N        129.7510  111.1480   71.0370 N.am  135  CYS135     -0.1954
     24  CA       130.5300  111.5810   72.2040 C.3   135  CYS135      0.1843
     25  C        131.1070  110.3250   72.8450 C.2   135  CYS135      0.2625
     26  O        130.6370  109.8360   73.8680 O.2   135  CYS135     -0.2714
     27  CB       129.6070  112.3400   73.1450 C.3   135  CYS135      0.0997
     28  SG       128.7830  113.7610   72.3830 S.3   135  CYS135     -0.0797
     29  N        132.0920  109.7650   72.1680 N.am  136  ALA136     -0.1963
     30  CA       132.6390  108.4430   72.4400 C.3   136  ALA136      0.1728
     31  C        133.6710  108.3380   73.5530 C.2   136  ALA136      0.2616
     32  O        133.7560  107.2670   74.1620 O.2   136  ALA136     -0.2715
     33  CB       133.2600  107.9020   71.1610 C.3   136  ALA136      0.0334
     34  N        134.4660  109.3880   73.8100 N.am  137  ALA137     -0.1964
     35  CA       135.5850  109.2640   74.7470 C.3   137  ALA137      0.1713
     36  C        135.1440  109.2170   76.2290 C.2   137  ALA137      0.2458
     37  O        134.1760  109.8770   76.6010 O.2   137  ALA137     -0.2730
     38  CB       136.5700  110.3980   74.5370 C.3   137  ALA137      0.0333
     39  N        135.8350  108.4400   77.0970 N.am  138  PRO138     -0.2716
     40  CA       137.0510  107.6340   76.8540 C.3   138  PRO138      0.1536
     41  C        136.8560  106.2910   76.1320 C.2   138  PRO138      0.2599
     42  O        137.8570  105.6240   75.9240 O.2   138  PRO138     -0.2715
     43  CB       137.5730  107.3910   78.2720 C.3   138  PRO138      0.0310
     44  CG       136.3230  107.2890   79.0720 C.3   138  PRO138      0.0237
     45  CD       135.4640  108.3930   78.5230 C.3   138  PRO138      0.0939
     46  N        135.6310  105.8990   75.7620 N.am  139  GLY139     -0.1941
     47  CA       135.4100  104.6830   74.9820 C.3   139  GLY139      0.2014
     48  C        134.7430  103.4830   75.6150 C.2   139  GLY139      0.2639
     49  O        134.7290  102.4110   75.0000 O.2   139  GLY139     -0.2714
     50  N        134.1590  103.6400   76.7960 N.am  140  GLY140     -0.1939
     51  CA       133.4630  102.5320   77.4410 C.3   140  GLY140      0.2014
     52  C        132.3130  102.0000   76.6040 C.2   140  GLY140      0.2638
     53  O        132.2420  100.8040   76.3340 O.2   140  GLY140     -0.2714
     54  N        131.4280  102.8970   76.1560 N.am  141  LYS141     -0.1977
     55  CA       130.2710  102.5120   75.3470 C.3   141  LYS141      0.1596
     56  C        130.7070  102.1680   73.9130 C.2   141  LYS141      0.2287
     57  O        130.0970  101.2950   73.2940 O.2   141  LYS141     -0.2864
     58  CB       129.1870  103.6010   75.3640 C.3   141  LYS141      0.0298
     59  CG       128.4920  103.7030   76.7130 C.3   141  LYS141      0.0038
     60  CD       127.5340  104.8590   76.7890 C.3   141  LYS141      0.0206
     61  CE       127.0740  105.2270   78.1890 C.3   141  LYS141      0.1093
     62  NZ       128.1620  105.7980   79.0290 N.3   141  LYS141     -0.1314
     63  N        133.4120  109.5770   67.7960 N.3   157  ASN157     -0.1225
     64  CA       133.7950  110.9840   67.7610 C.3   157  ASN157      0.1785
     65  C        133.8110  111.6120   69.1480 C.2   157  ASN157      0.2597
     66  O        132.9870  111.2890   69.9990 O.2   157  ASN157     -0.2718
     67  CB       132.8330  111.7690   66.8660 C.3   157  ASN157      0.1169
     68  CG       133.0910  113.2570   66.8690 C.2   157  ASN157      0.2627
     69  OD1      134.1070  113.7210   66.3450 O.2   157  ASN157     -0.2716
     70  ND2      132.2540  114.0200   67.5660 N.am  157  ASN157     -0.0877
     71  N        134.7330  112.5480   69.3500 N.am  158  ASP158     -0.1960
     72  CA       134.8130  113.3190   70.5830 C.3   158  ASP158      0.1840
     73  C        135.6090  114.5770   70.3210 C.2   158  ASP158      0.2622
     74  O        136.6890  114.5030   69.7570 O.2   158  ASP158     -0.2715
     75  CB       135.4290  112.5250   71.7340 C.3   158  ASP158      0.1450
     76  CG       135.0210  113.0580   73.0890 C.2   158  ASP158      0.3671
     77  OD1      134.1800  112.4080   73.7550 O.co2 158  ASP158     -0.2456
     78  OD2      135.5160  114.1400   73.4770 O.co2 158  ASP158     -0.2456
     79  N        135.0930  115.7160   70.7560 N.am  159  LEU159     -0.1963
     80  CA       135.7180  117.0210   70.5570 C.3   159  LEU159      0.1728
     81  C        137.1330  117.1070   71.1710 C.2   159  LEU159      0.2616
     82  O        138.0230  117.6980   70.5590 O.2   159  LEU159     -0.2715
     83  CB       134.7990  118.0750   71.1900 C.3   159  LEU159      0.0311
     84  CG       135.2130  119.5240   71.1090 C.3   159  LEU159      0.0022
     85  CD1      135.3960  119.9620   69.6650 C.3   159  LEU159      0.0001
     86  CD2      134.1960  120.3870   71.8210 C.3   159  LEU159      0.0001
     87  N        137.3380  116.5000   72.3530 N.am  160  SER160     -0.1950
     88  CA       138.6210  116.5400   73.0490 C.3   160  SER160      0.1924
     89  C        139.6460  115.5880   72.4310 C.2   160  SER160      0.2314
     90  O        139.4260  114.3780   72.4630 O.2   160  SER160     -0.2863
     91  CB       138.4350  116.1810   74.5190 C.3   160  SER160      0.2116
     92  OG       139.6620  116.2810   75.2240 O.3   160  SER160     -0.2180
     93  N        141.0450  113.1690   75.3490 N.3   163  ARG163     -0.1245
     94  CA       140.2080  112.0230   75.7200 C.3   163  ARG163      0.1563
     95  C        140.1990  110.9800   74.5910 C.2   163  ARG163      0.2260
     96  O        140.0140  109.7950   74.8650 O.2   163  ARG163     -0.2867
     97  CB       138.7730  112.4370   76.0680 C.3   163  ARG163      0.0307
     98  CG       138.6350  113.4380   77.2050 C.3   163  ARG163      0.0489
     99  CD       137.2180  113.4250   77.7680 C.3   163  ARG163      0.2205
    100  NE       137.1300  112.7350   79.0650 N.pl3 163  ARG163     -0.0865
    101  CZ       136.0500  112.1180   79.5540 C.cat 163  ARG163      0.5346
    102  NH1      134.9230  112.0630   78.8460 N.pl3 163  ARG163      0.1354
    103  NH2      136.0960  111.5300   80.7440 N.pl3 163  ARG163      0.1354
    104  N        133.7770  118.5380   66.1110 N.3   191  ASP191     -0.1225
    105  CA       132.6160  118.9960   66.8640 C.3   191  ASP191      0.1805
    106  C        131.4120  118.1530   66.4730 C.2   191  ASP191      0.2598
    107  O        131.0940  118.0550   65.2910 O.2   191  ASP191     -0.2718
    108  CB       132.3650  120.4920   66.5900 C.3   191  ASP191      0.1424
    109  CG       131.3360  121.1720   67.4700 C.2   191  ASP191      0.3668
    110  OD1      131.0180  120.6230   68.5460 O.co2 191  ASP191     -0.2456
    111  OD2      130.8900  122.2820   67.1090 O.co2 191  ASP191     -0.2456
    112  N        130.7900  117.5210   67.4600 N.am  192  GLY192     -0.1942
    113  CA       129.6400  116.6560   67.2590 C.3   192  GLY192      0.2014
    114  C        128.4030  117.3750   66.7770 C.2   192  GLY192      0.2638
    115  O        127.6020  116.7950   66.0480 O.2   192  GLY192     -0.2714
    116  N        128.2460  118.6500   67.1580 N.am  193  ARG193     -0.1977
    117  CA       127.0960  119.4670   66.7680 C.3   193  ARG193      0.1597
    118  C        127.0360  119.7220   65.2540 C.2   193  ARG193      0.2287
    119  O        125.9520  119.9600   64.7200 O.2   193  ARG193     -0.2864
    120  CB       127.1280  120.8150   67.4950 C.3   193  ARG193      0.0334
    121  CG       126.9800  120.7160   69.0090 C.3   193  ARG193      0.0492
    122  CD       127.0810  122.0890   69.6270 C.3   193  ARG193      0.2205
    123  NE       128.4450  122.6100   69.5610 N.pl3 193  ARG193     -0.0865
    124  CZ       128.8020  123.8480   69.8880 C.cat 193  ARG193      0.5346
    125  NH1      127.8970  124.7170   70.3250 N.pl3 193  ARG193      0.1354
    126  NH2      130.0680  124.2270   69.7820 N.pl3 193  ARG193      0.1354
    127  N        125.7940  110.0670   73.9730 N.3   209  ASP209     -0.1225
    128  CA       126.0570  110.0340   75.4240 C.3   209  ASP209      0.1805
    129  C        126.7440  111.3550   75.7560 C.2   209  ASP209      0.2598
    130  O        127.9710  111.4530   75.7750 O.2   209  ASP209     -0.2718
    131  CB       126.9030  108.7950   75.7670 C.3   209  ASP209      0.1424
    132  CG       127.2820  108.6510   77.2070 C.2   209  ASP209      0.3668
    133  OD1      126.4870  109.1110   78.0910 O.co2 209  ASP209     -0.2456
    134  OD2      128.3630  108.0730   77.4720 O.co2 209  ASP209     -0.2456
    135  N        125.9280  112.3870   75.9250 N.am  210  VAL210     -0.1966
    136  CA       126.3620  113.7800   76.0730 C.3   210  VAL210      0.1712
    137  C        127.1690  114.1260   77.3240 C.2   210  VAL210      0.2458
    138  O        126.9760  113.5190   78.3860 O.2   210  VAL210     -0.2730
    139  CB       125.1500  114.7700   76.0110 C.3   210  VAL210      0.0289
    140  CG1      124.5060  114.7780   74.6230 C.3   210  VAL210      0.0023
    141  CG2      124.1120  114.5070   77.1000 C.3   210  VAL210      0.0023
    142  N        127.9750  115.2250   77.2230 N.am  211  PRO211     -0.2716
    143  CA       128.6260  115.7680   78.4140 C.3   211  PRO211      0.1536
    144  C        127.5760  116.4120   79.3110 C.2   211  PRO211      0.2598
    145  O        126.7040  117.1330   78.8390 O.2   211  PRO211     -0.2715
    146  CB       129.5870  116.8040   77.8380 C.3   211  PRO211      0.0310
    147  CG       128.8950  117.3050   76.6350 C.3   211  PRO211      0.0237
    148  CD       128.2680  116.0780   76.0450 C.3   211  PRO211      0.0939
    149  N        127.6370  116.1020   80.5960 N.am  212  CYS212     -0.1968
    150  CA       126.6610  116.5390   81.5760 C.3   212  CYS212      0.1712
    151  C        127.3810  116.9170   82.8650 C.2   212  CYS212      0.2296
    152  O        128.6090  117.0220   82.8670 O.2   212  CYS212     -0.2864
    153  CB       125.6690  115.3980   81.7930 C.3   212  CYS212      0.0983
    154  SG       126.4230  113.8810   82.4210 S.3   212  CYS212     -0.0798
    155  N        127.9650  115.0520   85.3070 N.3   214  THR214     -0.1218
    156  CA       128.5760  113.8230   85.8490 C.3   214  THR214      0.1862
    157  C        128.4500  113.7780   87.3710 C.2   214  THR214      0.2287
    158  O        129.4470  113.8390   88.0870 O.2   214  THR214     -0.2866
    159  CB       130.0360  113.7110   85.3870 C.3   214  THR214      0.1770
    160  OG1      130.7710  114.8330   85.8490 O.3   214  THR214     -0.2211
    161  CG2      130.1630  113.6850   83.8970 C.3   214  THR214      0.0375
    162  N        123.9360  122.9170   74.6890 N.3   241  LEU241     -0.1245
    163  CA       124.8970  122.0090   74.0650 C.3   241  LEU241      0.1561
    164  C        124.3130  120.6080   73.8890 C.2   241  LEU241      0.2260
    165  O        124.4270  120.0090   72.8190 O.2   241  LEU241     -0.2867
    166  CB       126.1530  121.9350   74.9450 C.3   241  LEU241      0.0270
    167  CG       127.2380  120.9520   74.5410 C.3   241  LEU241      0.0019
    168  CD1      127.6920  121.1840   73.1230 C.3   241  LEU241      0.0001
    169  CD2      128.4030  121.0320   75.4940 C.3   241  LEU241      0.0001
    170  N        123.8030  118.6490   70.4280 N.3   245  LEU245     -0.1245
    171  CA       124.4190  117.3580   70.1270 C.3   245  LEU245      0.1561
    172  C        123.3760  116.2970   69.8040 C.2   245  LEU245      0.2260
    173  O        123.5940  115.4950   68.8900 O.2   245  LEU245     -0.2867
    174  CB       125.2880  116.8720   71.2820 C.3   245  LEU245      0.0270
    175  CG       126.5560  117.6700   71.5190 C.3   245  LEU245      0.0019
    176  CD1      127.0890  117.4240   72.9130 C.3   245  LEU245      0.0001
    177  CD2      127.6270  117.3290   70.5000 C.3   245  LEU245      0.0001
    178  N        124.7400  110.8500   82.5900 N.3   264  CYS264     -0.1235
    179  CA       125.0190  110.2780   83.8890 C.3   264  CYS264      0.1677
    180  C        124.7160  111.3690   84.9160 C.2   264  CYS264      0.2270
    181  O        125.5430  111.7370   85.7550 O.2   264  CYS264     -0.2867
    182  CB       126.4430  109.7300   83.9900 C.3   264  CYS264      0.0956
    183  SG       127.7390  110.8550   83.3960 S.3   264  CYS264     -0.0801
@<TRIPOS>BOND
     1   119   118    2
     2   118   117    1
     3   107   106    2
     4   115   114    2
     5   104   105    1
     6    69    68    2
     7   106   105    1
     8   106   112   am
     9   108   105    1
    10   108   109    1
    11    21    20    1
    12   117   116    1
    13   117   120    1
    14   114   116   am
    15   114   113    1
    16    67    68    1
    17    67    64    1
    18    68    70   am
    19   111   109   ar
    20   113   112    1
    21     7     8    1
    22   109   110   ar
    23   120   121    1
    24    64    63    1
    25    64    65    1
    26    22    20    1
    27    20    19    1
    28    19    16    1
    29    10     9    2
    30    16    15    1
    31    16    17    1
    32     9     8    1
    33     9    15   am
    34     8    11    1
    35   173   172    2
    36   121   122    1
    37    65    71   am
    38    65    66    2
    39    71    72    1
    40    18    17    2
    41   123   122    1
    42   123   124    2
    43    11    12    1
    44    85    84    1
    45    74    73    2
    46   126   124    1
    47    17    23   am
    48   172   171    1
    49   124   125    1
    50   171   170    1
    51   171   174    1
    52    73    72    1
    53    73    79   am
    54   177   175    1
    55    80    79    1
    56    80    81    1
    57    80    83    1
    58    82    81    2
    59    72    75    1
    60    23    24    1
    61    84    83    1
    62    84    86    1
    63    33    30    1
    64    81    87   am
    65    12    13   ar
    66    12    14   ar
    67   174   175    1
    68   175   176    1
    69    75    76    1
    70    29    30    1
    71    29    25   am
    72    24    25    1
    73    24    27    1
    74    87    88    1
    75    28    27    1
    76    89    90    2
    77    89    88    1
    78    30    31    1
    79   165   164    2
    80    25    26    2
    81    88    91    1
    82    76    78   ar
    83    76    77   ar
    84   168   167    1
    85    57    56    2
    86    31    34   am
    87    31    32    2
    88    34    35    1
    89   164   163    1
    90    56    55    1
    91   127   128    1
    92   163   162    1
    93   163   166    1
    94    91    92    1
    95    38    35    1
    96   167   166    1
    97   167   169    1
    98    95    96    2
    99    95    94    1
   100   140   139    1
   101    35    36    1
   102    47    48    1
   103    47    46    1
   104    49    48    2
   105    55    58    1
   106    55    54    1
   107    93    94    1
   108    58    59    1
   109   128   129    1
   110   128   131    1
   111    48    50   am
   112    94    97    1
   113   129   130    2
   114   129   135   am
   115    46    41   am
   116   131   132    1
   117    42    41    2
   118   135   136    1
   119   139   136    1
   120   139   141    1
   121   148   147    1
   122   148   142    1
   123    97    98    1
   124   136   137    1
   125    41    40    1
   126    54    52   am
   127    36    37    2
   128    36    39   am
   129    53    52    2
   130    52    51    1
   131   147   146    1
   132    59    60    1
   133    60    61    1
   134    50    51    1
   135    40    39    1
   136    40    43    1
   137    39    45    1
   138    98    99    1
   139   132   134   ar
   140   132   133   ar
   141   142   137   am
   142   142   143    1
   143   137   138    2
   144    99   100    1
   145   146   143    1
   146    61    62    1
   147    43    44    1
   148   143   144    1
   149    45    44    1
   150   145   144    2
   151   102   101    1
   152     4     3    2
   153   100   101    2
   154   144   149   am
   155   101   103    1
   156     3     2    1
   157   149   150    1
   158     2     5    1
   159     2     1    1
   160     5     6    1
   161   150   153    1
   162   150   151    1
   163   153   154    1
   164   178   179    1
   165   151   152    2
   166   183   182    1
   167   179   182    1
   168   179   180    1
   169   161   159    1
   170   180   181    2
   171   155   156    1
   172   159   160    1
   173   159   156    1
   174   156   157    1
   175   157   158    2
