@<TRIPOS>MOLECULE
tmp/4fpdA03.pdb
 94 89 0 0 0
SMALL
GASTEIGER

@<TRIPOS>ATOM
      1  N         20.4310   24.2180    9.0230 N.3    20  THR20      -0.1218
      2  CA        19.1590   23.7600    9.5850 C.3    20  THR20       0.1862
      3  C         19.3230   22.3700   10.1920 C.2    20  THR20       0.2287
      4  O         18.6800   22.0560   11.1980 O.2    20  THR20      -0.2866
      5  CB        18.0070   23.8220    8.5550 C.3    20  THR20       0.1770
      6  OG1       17.0590   22.7760    8.8020 O.3    20  THR20      -0.2211
      7  CG2       18.5550   23.7000    7.1600 C.3    20  THR20       0.0375
      8  N         21.0400   22.7620   13.4930 N.3    23  PHE23      -0.1227
      9  CA        20.1370   23.3460   14.4780 C.3    23  PHE23       0.1736
     10  C         19.0660   22.3580   14.9280 C.2    23  PHE23       0.2595
     11  O         18.5150   22.5020   16.0180 O.2    23  PHE23      -0.2718
     12  CB        19.5000   24.6330   13.9460 C.3    23  PHE23       0.0547
     13  CG        20.4530   25.7960   13.8650 C.ar   23  PHE23      -0.0202
     14  CD1       21.2780   26.1190   14.9390 C.ar   23  PHE23      -0.0042
     15  CD2       20.5170   26.5850   12.7180 C.ar   23  PHE23      -0.0042
     16  CE1       22.1490   27.2100   14.8680 C.ar   23  PHE23      -0.0003
     17  CE2       21.3910   27.6780   12.6450 C.ar   23  PHE23      -0.0003
     18  CZ        22.2000   27.9840   13.7190 C.ar   23  PHE23      -0.0000
     19  N         18.7690   21.3660   14.0850 N.am   24  LEU24      -0.1980
     20  CA        17.7820   20.3240   14.4070 C.3    24  LEU24       0.1596
     21  C         18.3730   19.3690   15.4400 C.2    24  LEU24       0.2287
     22  O         17.6900   18.9420   16.3700 O.2    24  LEU24      -0.2864
     23  CB        17.3920   19.5230   13.1610 C.3    24  LEU24       0.0297
     24  CG        16.4390   20.2020   12.1810 C.3    24  LEU24       0.0022
     25  CD1       16.2760   19.3590   10.9190 C.3    24  LEU24       0.0001
     26  CD2       15.0970   20.4720   12.8390 C.3    24  LEU24       0.0001
     27  N         19.1030   21.1760   18.7810 N.3    27  GLY27      -0.1225
     28  CA        17.8420   21.3930   19.4750 C.3    27  GLY27       0.1811
     29  C         17.2830   20.1680   20.1810 C.2    27  GLY27       0.2280
     30  O         16.1650   20.1880   20.6940 O.2    27  GLY27      -0.2866
     31  N         13.2400   26.3180   23.9720 N.3    36  LYS36      -0.1245
     32  CA        12.4640   25.6680   22.9080 C.3    36  LYS36       0.1561
     33  C         11.9930   26.6720   21.8590 C.2    36  LYS36       0.2260
     34  O         12.0090   26.3670   20.6780 O.2    36  LYS36      -0.2867
     35  CB        11.2480   24.9200   23.4860 C.3    36  LYS36       0.0271
     36  CG        11.5100   23.4950   23.9470 C.3    36  LYS36       0.0035
     37  CD        10.1930   22.7670   24.1770 C.3    36  LYS36       0.0206
     38  CE        10.1990   21.9620   25.4710 C.3    36  LYS36       0.1093
     39  NZ        10.6580   20.5610   25.2640 N.3    36  LYS36      -0.1314
     40  N         14.9540   27.9000   19.8230 N.3    39  TYR39      -0.1227
     41  CA        15.4190   26.8380   18.9290 C.3    39  TYR39       0.1736
     42  C         14.4510   26.6450   17.7740 C.2    39  TYR39       0.2595
     43  O         14.8590   26.3380   16.6590 O.2    39  TYR39      -0.2718
     44  CB        15.6310   25.5270   19.6830 C.3    39  TYR39       0.0548
     45  CG        17.0470   25.3670   20.1730 C.ar   39  TYR39      -0.0200
     46  CD1       18.0610   24.9810   19.3010 C.ar   39  TYR39      -0.0009
     47  CD2       17.3810   25.6420   21.4950 C.ar   39  TYR39      -0.0009
     48  CE1       19.3790   24.8750   19.7370 C.ar   39  TYR39       0.0417
     49  CE2       18.6910   25.5460   21.9420 C.ar   39  TYR39       0.0417
     50  CZ        19.6870   25.1610   21.0630 C.ar   39  TYR39       0.1957
     51  OH        20.9910   25.0780   21.5120 O.3    39  TYR39      -0.2866
     52  N         13.1660   26.8370   18.0460 N.am   40  ALA40      -0.1980
     53  CA        12.1490   26.7200   17.0090 C.3    40  ALA40       0.1597
     54  C         12.4640   27.7730   15.9410 C.2    40  ALA40       0.2287
     55  O         12.5760   27.4700   14.7470 O.2    40  ALA40      -0.2864
     56  CB        10.7660   26.9370   17.5840 C.3    40  ALA40       0.0319
     57  N         15.9920   27.5020   14.0420 N.3    43  THR43      -0.1203
     58  CA        16.0390   26.3710   13.1290 C.3    43  THR43       0.1994
     59  C         15.1530   26.5750   11.9070 C.2    43  THR43       0.2617
     60  O         15.5320   26.2160   10.7900 O.2    43  THR43      -0.2717
     61  CB        15.6640   25.0640   13.8490 C.3    43  THR43       0.1784
     62  OG1       16.5920   24.8430   14.9230 O.3    43  THR43      -0.2211
     63  CG2       15.7150   23.9020   12.8800 C.3    43  THR43       0.0376
     64  N         13.9760   27.1650   12.1210 N.am   44  LEU44      -0.1979
     65  CA        13.0180   27.3990   11.0450 C.3    44  LEU44       0.1596
     66  C         13.5390   28.3750    9.9880 C.2    44  LEU44       0.2287
     67  O         13.3540   28.1620    8.7880 O.2    44  LEU44      -0.2864
     68  CB        11.7040   27.9100   11.6340 C.3    44  LEU44       0.0297
     69  CG        10.6650   26.8290   11.9400 C.3    44  LEU44       0.0022
     70  CD1        9.5970   27.3630   12.8910 C.3    44  LEU44       0.0001
     71  CD2       10.0380   26.3100   10.6630 C.3    44  LEU44       0.0001
     72  N         15.7050   26.8160    7.4730 N.3    47  ALA47      -0.1245
     73  CA        14.9100   25.7660    6.8090 C.3    47  ALA47       0.1562
     74  C         14.0930   26.3690    5.6770 C.2    47  ALA47       0.2260
     75  O         13.9660   25.7720    4.6140 O.2    47  ALA47      -0.2867
     76  CB        14.0080   25.0620    7.8110 C.3    47  ALA47       0.0290
     77  N         16.4560   27.5520    2.9710 N.3    50  PHE50      -0.1227
     78  CA        16.9200   26.4090    2.1950 C.3    50  PHE50       0.1736
     79  C         15.9530   26.1090    1.0440 C.2    50  PHE50       0.2596
     80  O         16.3750   25.8940   -0.1000 O.2    50  PHE50      -0.2718
     81  CB        17.0970   25.1690    3.0920 C.3    50  PHE50       0.0547
     82  CG        17.0700   23.8750    2.3270 C.ar   50  PHE50      -0.0202
     83  CD1       18.1870   23.4340    1.6340 C.ar   50  PHE50      -0.0042
     84  CD2       15.8930   23.1360    2.2510 C.ar   50  PHE50      -0.0042
     85  CE1       18.1340   22.2880    0.8740 C.ar   50  PHE50      -0.0003
     86  CE2       15.8290   21.9810    1.4760 C.ar   50  PHE50      -0.0003
     87  CZ        16.9460   21.5550    0.7890 C.ar   50  PHE50      -0.0000
     88  N         14.6570   26.1060    1.3510 N.am   51  THR51      -0.1953
     89  CA        13.6380   25.8140    0.3470 C.3    51  THR51       0.1897
     90  C         13.5560   26.9000   -0.7190 C.2    51  THR51       0.2313
     91  O         13.4000   26.6070   -1.9080 O.2    51  THR51      -0.2863
     92  CB        12.2590   25.5980    0.9900 C.3    51  THR51       0.1794
     93  OG1       11.9400   26.7170    1.8240 O.3    51  THR51      -0.2208
     94  CG2       12.2580   24.3190    1.8020 C.3    51  THR51       0.0378
@<TRIPOS>BOND
     1    91    90    2
     2    90    89    1
     3    80    79    2
     4    89    92    1
     5    89    88    1
     6    87    85   ar
     7    87    86   ar
     8    85    83   ar
     9    92    94    1
    10    92    93    1
    11    79    88   am
    12    79    78    1
    13    86    84   ar
    14    83    82   ar
    15    78    77    1
    16    78    81    1
    17    84    82   ar
    18    82    81    1
    19    75    74    2
    20    74    73    1
    21    73    72    1
    22    73    76    1
    23     7     5    1
    24     5     6    1
    25     5     2    1
    26    67    66    2
    27     1     2    1
    28     2     3    1
    29    66    65    1
    30     3     4    2
    31    71    69    1
    32    60    59    2
    33    25    24    1
    34    65    68    1
    35    65    64    1
    36    68    69    1
    37    59    64   am
    38    59    58    1
    39    69    70    1
    40    24    26    1
    41    24    23    1
    42    17    15   ar
    43    17    18   ar
    44    15    13   ar
    45    63    61    1
    46    58    61    1
    47    58    57    1
    48    23    20    1
    49     8     9    1
    50    18    16   ar
    51    61    62    1
    52    13    12    1
    53    13    14   ar
    54    12     9    1
    55    19    20    1
    56    19    10   am
    57    20    21    1
    58     9    10    1
    59    55    54    2
    60    16    14   ar
    61    10    11    2
    62    21    22    2
    63    54    53    1
    64    43    42    2
    65    53    56    1
    66    53    52    1
    67    42    52   am
    68    42    41    1
    69    27    28    1
    70    41    44    1
    71    41    40    1
    72    46    48   ar
    73    46    45   ar
    74    28    29    1
    75    44    45    1
    76    48    50   ar
    77    45    47   ar
    78    29    30    2
    79    34    33    2
    80    50    51    1
    81    50    49   ar
    82    47    49   ar
    83    33    32    1
    84    32    35    1
    85    32    31    1
    86    35    36    1
    87    36    37    1
    88    37    38    1
    89    39    38    1
