@<TRIPOS>MOLECULE
tmp/4fpdA02.pdb
 93 90 0 0 0
SMALL
GASTEIGER

@<TRIPOS>ATOM
      1  N         13.6620   28.1540   -0.3000 N.3    52  MET52      -0.1245
      2  CA        13.5910   29.2520   -1.2450 C.3    52  MET52       0.1570
      3  C         14.8320   29.3420   -2.1260 C.2    52  MET52       0.2261
      4  O         14.7520   29.7540   -3.2910 O.2    52  MET52      -0.2867
      5  CB        13.3060   30.5600   -0.5020 C.3    52  MET52       0.0387
      6  CG        11.8970   30.6560    0.0530 C.3    52  MET52       0.0595
      7  SD        10.6230   30.3370   -1.1910 S.3    52  MET52      -0.1393
      8  CE         9.9670   28.7740   -0.6090 C.3    52  MET52       0.0692
      9  N         12.4110   27.7350  -10.2790 N.3    60  TYR60      -0.1241
     10  CA        11.0200   28.0720   -9.9880 C.3    60  TYR60       0.1605
     11  C         10.8760   29.4890   -9.4030 C.2    60  TYR60       0.2264
     12  O         10.0220   30.2660   -9.8430 O.2    60  TYR60      -0.2867
     13  CB        10.3900   27.0330   -9.0530 C.3    60  TYR60       0.0534
     14  CG         8.9460   27.3350   -8.7370 C.ar   60  TYR60      -0.0201
     15  CD1        7.9270   26.9300   -9.6000 C.ar   60  TYR60      -0.0009
     16  CD2        8.5960   28.0450   -7.6060 C.ar   60  TYR60      -0.0009
     17  CE1        6.5850   27.2200   -9.3400 C.ar   60  TYR60       0.0417
     18  CE2        7.2690   28.3690   -7.3420 C.ar   60  TYR60       0.0417
     19  CZ         6.2680   27.9510   -8.2080 C.ar   60  TYR60       0.1957
     20  OH         4.9620   28.2750   -7.9480 O.3    60  TYR60      -0.2866
     21  N         11.6300   34.8740  -12.1870 N.3    63  THR63      -0.1218
     22  CA        10.6190   35.4050  -13.0980 C.3    63  THR63       0.1862
     23  C         11.1710   36.5890  -13.8800 C.2    63  THR63       0.2287
     24  O         12.1090   37.2610  -13.4360 O.2    63  THR63      -0.2866
     25  CB         9.3360   35.8440  -12.3490 C.3    63  THR63       0.1770
     26  OG1        8.3330   36.2390  -13.2950 O.3    63  THR63      -0.2211
     27  CG2        9.6440   37.0050  -11.4030 C.3    63  THR63       0.0375
     28  N         11.8720   36.4120   -7.5980 N.3    76  TRP76      -0.1241
     29  CA        10.8150   36.7680   -6.6640 C.3    76  TRP76       0.1605
     30  C         10.8930   35.9330   -5.3780 C.2    76  TRP76       0.2264
     31  O         10.4300   36.3680   -4.3170 O.2    76  TRP76      -0.2867
     32  CB         9.4370   36.6190   -7.3240 C.3    76  TRP76       0.0550
     33  CG         9.0730   35.2070   -7.6980 C.ar   76  TRP76       0.0003
     34  CD1        9.1610   34.6310   -8.9320 C.ar   76  TRP76       0.0946
     35  CD2        8.5450   34.1870   -6.8240 C.ar   76  TRP76       0.0152
     36  NE1        8.7360   33.3170   -8.8860 N.ar   76  TRP76      -0.2442
     37  CE2        8.3780   33.0130   -7.6100 C.ar   76  TRP76       0.0810
     38  CE3        8.2260   34.1470   -5.4570 C.ar   76  TRP76       0.0012
     39  CZ2        7.9190   31.8150   -7.0600 C.ar   76  TRP76       0.0191
     40  CZ3        7.7670   32.9600   -4.9220 C.ar   76  TRP76       0.0001
     41  CH2        7.6330   31.8160   -5.7160 C.ar   76  TRP76       0.0015
     42  N         11.9440   37.2680   -1.7430 N.3    79  TYR79      -0.1227
     43  CA        10.9460   38.0010   -0.9700 C.3    79  TYR79       0.1736
     44  C         10.0270   37.0690   -0.2010 C.2    79  TYR79       0.2595
     45  O          9.5510   37.4140    0.8820 O.2    79  TYR79      -0.2718
     46  CB        10.1650   38.9630   -1.8820 C.3    79  TYR79       0.0548
     47  CG        11.1040   39.8390   -2.6800 C.ar   79  TYR79      -0.0200
     48  CD1       11.6770   40.9730   -2.1000 C.ar   79  TYR79      -0.0009
     49  CD2       11.4500   39.5100   -3.9900 C.ar   79  TYR79      -0.0009
     50  CE1       12.5560   41.7560   -2.7940 C.ar   79  TYR79       0.0417
     51  CE2       12.3540   40.2810   -4.6900 C.ar   79  TYR79       0.0417
     52  CZ        12.9020   41.4070   -4.0840 C.ar   79  TYR79       0.1957
     53  OH        13.7950   42.1750   -4.7840 O.3    79  TYR79      -0.2866
     54  N          9.7900   35.8840   -0.7510 N.am   80  ALA80      -0.1980
     55  CA         8.9730   34.9030   -0.0620 C.3    80  ALA80       0.1597
     56  C          9.7680   34.3830    1.1310 C.2    80  ALA80       0.2287
     57  O          9.2140   34.1090    2.1930 O.2    80  ALA80      -0.2864
     58  CB         8.5820   33.7650   -0.9820 C.3    80  ALA80       0.0319
     59  N         10.0400   37.1780    3.6680 N.3    83  LEU83      -0.1231
     60  CA         8.7100   37.4580    4.2250 C.3    83  LEU83       0.1693
     61  C          8.4320   36.7140    5.5210 C.2    83  LEU83       0.2592
     62  O          7.7150   37.2120    6.3900 O.2    83  LEU83      -0.2718
     63  CB         7.6040   37.1720    3.2190 C.3    83  LEU83       0.0284
     64  CG         6.2850   37.8220    3.6250 C.3    83  LEU83       0.0019
     65  CD1        6.3770   39.3240    3.4550 C.3    83  LEU83       0.0001
     66  CD2        5.1320   37.2630    2.8120 C.3    83  LEU83       0.0001
     67  N          9.0120   35.5260    5.6550 N.am   84  PHE84      -0.1976
     68  CA         8.8140   34.7240    6.8530 C.3    84  PHE84       0.1639
     69  C         10.0250   34.7150    7.7750 C.2    84  PHE84       0.2290
     70  O          9.8750   34.6560    8.9940 O.2    84  PHE84      -0.2864
     71  CB         8.4490   33.2900    6.4730 C.3    84  PHE84       0.0560
     72  CG         7.1590   33.1740    5.7090 C.ar   84  PHE84      -0.0200
     73  CD1        5.9330   33.3220    6.3550 C.ar   84  PHE84      -0.0042
     74  CD2        7.1700   32.9140    4.3410 C.ar   84  PHE84      -0.0042
     75  CE1        4.7360   33.2080    5.6490 C.ar   84  PHE84      -0.0003
     76  CE2        5.9790   32.7990    3.6210 C.ar   84  PHE84      -0.0003
     77  CZ         4.7610   32.9470    4.2750 C.ar   84  PHE84      -0.0000
     78  N          9.0460   43.8150   -2.6930 N.3   119  LEU119     -0.1245
     79  CA         8.5440   42.9190   -3.7330 C.3   119  LEU119      0.1561
     80  C          7.8150   43.7060   -4.8100 C.2   119  LEU119      0.2260
     81  O          7.9350   43.3980   -5.9950 O.2   119  LEU119     -0.2867
     82  CB         7.6340   41.8360   -3.1220 C.3   119  LEU119      0.0270
     83  CG         6.8600   40.9100   -4.0910 C.3   119  LEU119      0.0019
     84  CD1        7.8350   40.0290   -4.8530 C.3   119  LEU119      0.0001
     85  CD2        5.8480   40.0600   -3.3410 C.3   119  LEU119      0.0001
     86  N          8.9420   44.1650   -8.5400 N.3   123  LEU123     -0.1245
     87  CA         8.0740   43.7320   -9.6380 C.3   123  LEU123      0.1561
     88  C          7.4590   44.8770  -10.4600 C.2   123  LEU123      0.2260
     89  O          6.6910   44.6200  -11.3880 O.2   123  LEU123     -0.2867
     90  CB         6.9770   42.8040   -9.1040 C.3   123  LEU123      0.0270
     91  CG         7.3750   41.4090   -8.6220 C.3   123  LEU123      0.0019
     92  CD1        6.1320   40.6330   -8.2030 C.3   123  LEU123      0.0001
     93  CD2        8.1260   40.6570   -9.7050 C.3   123  LEU123      0.0001
@<TRIPOS>BOND
     1    23    24    2
     2    23    22    1
     3    26    25    1
     4    22    25    1
     5    22    21    1
     6    25    27    1
     7    89    88    2
     8    88    87    1
     9     9    10    1
    10    10    11    1
    11    10    13    1
    12    12    11    2
    13    93    91    1
    14    87    90    1
    15    87    86    1
    16    15    17   ar
    17    15    14   ar
    18    17    19   ar
    19    90    91    1
    20    13    14    1
    21    34    36   ar
    22    34    33   ar
    23    36    37   ar
    24    14    16   ar
    25    91    92    1
    26    19    20    1
    27    19    18   ar
    28    33    32    1
    29    33    35   ar
    30    37    39   ar
    31    37    35   ar
    32    16    18   ar
    33    28    29    1
    34    32    29    1
    35    39    41   ar
    36    35    38   ar
    37    29    30    1
    38    81    80    2
    39    41    40   ar
    40    38    40   ar
    41    30    31    2
    42    84    83    1
    43    80    79    1
    44    53    52    1
    45    51    52   ar
    46    51    49   ar
    47    83    85    1
    48    83    82    1
    49    52    50   ar
    50    49    47   ar
    51    79    82    1
    52    79    78    1
    53     4     3    2
    54    50    48   ar
    55    47    48   ar
    56    47    46    1
    57     3     2    1
    58    46    43    1
    59    42    43    1
    60     2     5    1
    61     2     1    1
    62     7     8    1
    63     7     6    1
    64    58    55    1
    65    43    44    1
    66    54    44   am
    67    54    55    1
    68     5     6    1
    69    44    45    2
    70    55    56    1
    71    56    57    2
    72    66    64    1
    73    63    64    1
    74    63    60    1
    75    65    64    1
    76    76    77   ar
    77    76    74   ar
    78    59    60    1
    79    60    61    1
    80    77    75   ar
    81    74    72   ar
    82    61    67   am
    83    61    62    2
    84    75    73   ar
    85    67    68    1
    86    72    73   ar
    87    72    71    1
    88    71    68    1
    89    68    69    1
    90    69    70    2
