@<TRIPOS>MOLECULE
tmp/4fpeA00.pdb
 178 168 0 0 0
SMALL
GASTEIGER

@<TRIPOS>ATOM
      1  N          3.1160  -14.1910  -35.3270 N.3   207  ARG207     -0.1231
      2  CA         2.1610  -13.5440  -34.4300 C.3   207  ARG207      0.1694
      3  C          0.8480  -14.3180  -34.4340 C.2   207  ARG207      0.2591
      4  O          0.6160  -15.1850  -35.2970 O.2   207  ARG207     -0.2718
      5  CB         1.9160  -12.0740  -34.8390 C.3   207  ARG207      0.0321
      6  CG         2.9440  -11.0730  -34.2750 C.3   207  ARG207      0.0489
      7  CD         2.3200   -9.6650  -34.0600 C.3   207  ARG207      0.2205
      8  NE         1.2010   -9.7330  -33.1160 N.pl3 207  ARG207     -0.0865
      9  CZ         0.3520   -8.7380  -32.8680 C.cat 207  ARG207      0.5346
     10  NH1        0.4800   -7.5530  -33.4840 N.pl3 207  ARG207      0.1354
     11  NH2       -0.6270   -8.9250  -31.9860 N.pl3 207  ARG207      0.1354
     12  N         -0.0140  -13.9910  -33.4800 N.am  208  ILE208     -0.1980
     13  CA        -1.3720  -14.5330  -33.4400 C.3   208  ILE208      0.1595
     14  C         -1.4160  -16.0560  -33.2880 C.2   208  ILE208      0.2287
     15  O         -1.9190  -16.7490  -34.1740 O.2   208  ILE208     -0.2864
     16  CB        -2.1770  -14.1300  -34.6950 C.3   208  ILE208      0.0276
     17  CG1       -1.7960  -12.7140  -35.1690 C.3   208  ILE208      0.0022
     18  CG2       -3.6520  -14.1770  -34.4090 C.3   208  ILE208      0.0022
     19  CD1       -2.1360  -11.5970  -34.1720 C.3   208  ILE208      0.0001
     20  N          4.6960  -14.4840  -40.4350 N.3   226  ARG226     -0.1245
     21  CA         4.7920  -13.1290  -40.9770 C.3   226  ARG226      0.1563
     22  C          6.1600  -12.8400  -41.5660 C.2   226  ARG226      0.2260
     23  O          7.1910  -12.9260  -40.8810 O.2   226  ARG226     -0.2867
     24  CB         4.3880  -12.0830  -39.9310 C.3   226  ARG226      0.0307
     25  CG         2.9820  -12.3150  -39.3630 C.3   226  ARG226      0.0489
     26  CD         2.5260  -11.1400  -38.5290 C.3   226  ARG226      0.2205
     27  NE         1.0860  -11.1700  -38.2820 N.pl3 226  ARG226     -0.0865
     28  CZ         0.3930  -10.1510  -37.7740 C.cat 226  ARG226      0.5346
     29  NH1        1.0010   -9.0050  -37.4530 N.pl3 226  ARG226      0.1354
     30  NH2       -0.9100  -10.2740  -37.5860 N.pl3 226  ARG226      0.1354
     31  N          1.0120   -6.0650  -39.2470 N.3   232  ASP232     -0.1225
     32  CA        -0.2970   -6.6210  -39.6290 C.3   232  ASP232      0.1805
     33  C         -0.5090   -6.4850  -41.1390 C.2   232  ASP232      0.2598
     34  O         -1.0180   -7.3880  -41.8130 O.2   232  ASP232     -0.2718
     35  CB        -1.4280   -5.8090  -38.9710 C.3   232  ASP232      0.1424
     36  CG        -1.7740   -6.2730  -37.5590 C.2   232  ASP232      0.3668
     37  OD1       -1.0680   -7.1390  -36.9900 O.co2 232  ASP232     -0.2456
     38  OD2       -2.7660   -5.7380  -37.0110 O.co2 232  ASP232     -0.2456
     39  N         -0.1240   -5.3180  -41.6450 N.am  233  SER233     -0.1952
     40  CA        -0.5110   -4.8630  -42.9730 C.3   233  SER233      0.1924
     41  C          0.0980   -3.4770  -43.2130 C.2   233  SER233      0.2314
     42  O          0.0820   -2.6360  -42.3030 O.2   233  SER233     -0.2863
     43  CB        -2.0280   -4.7580  -43.0790 C.3   233  SER233      0.2116
     44  OG        -2.4100   -4.6390  -44.4370 O.3   233  SER233     -0.2180
     45  N         -4.3960  -13.3170  -42.3430 N.3   288  ILE288     -0.1231
     46  CA        -4.0830  -12.8050  -41.0060 C.3   288  ILE288      0.1692
     47  C         -5.1590  -13.2890  -40.0440 C.2   288  ILE288      0.2592
     48  O         -6.3110  -13.4060  -40.4510 O.2   288  ILE288     -0.2718
     49  CB        -3.9480  -11.2440  -40.9940 C.3   288  ILE288      0.0266
     50  CG1       -3.5350  -10.7310  -39.6160 C.3   288  ILE288      0.0019
     51  CG2       -5.2330  -10.5520  -41.4560 C.3   288  ILE288      0.0020
     52  CD1       -3.3070   -9.2080  -39.6040 C.3   288  ILE288      0.0001
     53  N         -4.7870  -13.6080  -38.8000 N.am  289  ASP289     -0.1974
     54  CA        -5.7540  -14.0230  -37.7630 C.3   289  ASP289      0.1709
     55  C         -6.4450  -15.3640  -38.0690 C.2   289  ASP289      0.2293
     56  O         -7.4530  -15.3920  -38.7770 O.2   289  ASP289     -0.2864
     57  CB        -6.8440  -12.9540  -37.5380 C.3   289  ASP289      0.1436
     58  CG        -6.3200  -11.6910  -36.8540 C.2   289  ASP289      0.3671
     59  OD1       -5.1700  -11.6940  -36.3570 O.co2 289  ASP289     -0.2456
     60  OD2       -7.0790  -10.6920  -36.7990 O.co2 289  ASP289     -0.2456
     61  N         -8.6470  -14.5120  -41.8910 N.3   306  ASP306     -0.1239
     62  CA        -8.9360  -13.3770  -42.7700 C.3   306  ASP306      0.1674
     63  C         -8.0780  -13.5000  -44.0220 C.2   306  ASP306      0.2266
     64  O         -6.9490  -14.0030  -43.9630 O.2   306  ASP306     -0.2867
     65  CB        -8.6370  -12.0370  -42.0880 C.3   306  ASP306      0.1410
     66  CG        -9.4790  -11.8010  -40.8450 C.2   306  ASP306      0.3668
     67  OD1      -10.6720  -12.1850  -40.8340 O.co2 306  ASP306     -0.2456
     68  OD2       -8.9520  -11.2050  -39.8770 O.co2 306  ASP306     -0.2456
     69  N         -6.6770  -11.1470  -47.4070 N.3   308  MET308     -0.1245
     70  CA        -6.5600   -9.8360  -48.0200 C.3   308  MET308      0.1570
     71  C         -5.8710   -9.9490  -49.3790 C.2   308  MET308      0.2261
     72  O         -4.8240  -10.5880  -49.4950 O.2   308  MET308     -0.2867
     73  CB        -5.7520   -8.9020  -47.1150 C.3   308  MET308      0.0387
     74  CG        -6.3580   -8.7100  -45.7280 C.3   308  MET308      0.0595
     75  SD        -5.5750   -7.3750  -44.8210 S.3   308  MET308     -0.1393
     76  CE        -4.0060   -8.1340  -44.3620 C.3   308  MET308      0.0692
     77  N        -11.4070   -7.0120  -47.0320 N.3   419  ASN419     -0.1240
     78  CA       -11.0780   -8.1940  -46.2460 C.3   419  ASN419      0.1653
     79  C        -12.1810   -9.2440  -46.3930 C.2   419  ASN419      0.2266
     80  O        -13.3730   -8.9070  -46.3840 O.2   419  ASN419     -0.2867
     81  CB       -10.9020   -7.8210  -44.7710 C.3   419  ASN419      0.1155
     82  CG       -12.1470   -7.1710  -44.1950 C.2   419  ASN419      0.2627
     83  OD1      -12.4830   -6.0470  -44.5590 O.2   419  ASN419     -0.2716
     84  ND2      -12.8590   -7.8900  -43.3290 N.am  419  ASN419     -0.0877
     85  N        -14.4990   -9.3730  -39.0550 N.3   451  TYR451     -0.1241
     86  CA       -13.1220   -9.7740  -38.7720 C.3   451  TYR451      0.1605
     87  C        -13.0890  -10.9990  -37.8600 C.2   451  TYR451      0.2264
     88  O        -13.6860  -10.9910  -36.7770 O.2   451  TYR451     -0.2867
     89  CB       -12.3550   -8.6260  -38.1090 C.3   451  TYR451      0.0534
     90  CG       -12.1370   -7.4380  -39.0060 C.ar  451  TYR451     -0.0201
     91  CD1      -11.0850   -7.4190  -39.9090 C.ar  451  TYR451     -0.0009
     92  CD2      -12.9740   -6.3270  -38.9390 C.ar  451  TYR451     -0.0009
     93  CE1      -10.8730   -6.3330  -40.7320 C.ar  451  TYR451      0.0417
     94  CE2      -12.7720   -5.2330  -39.7570 C.ar  451  TYR451      0.0417
     95  CZ       -11.7170   -5.2440  -40.6530 C.ar  451  TYR451      0.1957
     96  OH       -11.4960   -4.1590  -41.4780 O.3   451  TYR451     -0.2866
     97  N        -15.8860  -10.1010  -35.3650 N.3   471  TYR471     -0.1241
     98  CA       -16.3220   -8.7750  -34.9390 C.3   471  TYR471      0.1605
     99  C        -16.4200   -7.7930  -36.1040 C.2   471  TYR471      0.2264
    100  O        -15.8320   -7.9860  -37.1730 O.2   471  TYR471     -0.2867
    101  CB       -15.4080   -8.1970  -33.8460 C.3   471  TYR471      0.0534
    102  CG       -13.9740   -7.9350  -34.2750 C.ar  471  TYR471     -0.0201
    103  CD1      -13.5740   -6.6760  -34.7150 C.ar  471  TYR471     -0.0009
    104  CD2      -13.0170   -8.9440  -34.2160 C.ar  471  TYR471     -0.0009
    105  CE1      -12.2550   -6.4310  -35.0990 C.ar  471  TYR471      0.0417
    106  CE2      -11.7050   -8.7120  -34.5860 C.ar  471  TYR471      0.0417
    107  CZ       -11.3290   -7.4580  -35.0320 C.ar  471  TYR471      0.1957
    108  OH       -10.0140   -7.2360  -35.4070 O.3   471  TYR471     -0.2866
    109  N        -11.6630   -3.3010  -31.7680 N.3   501  THR501     -0.1218
    110  CA       -11.0670   -4.5790  -32.1150 C.3   501  THR501      0.1862
    111  C        -11.5540   -5.5720  -31.0740 C.2   501  THR501      0.2287
    112  O        -10.8290   -5.9080  -30.1430 O.2   501  THR501     -0.2866
    113  CB        -9.5250   -4.4790  -32.1120 C.3   501  THR501      0.1770
    114  OG1       -9.1330   -3.3630  -32.9230 O.3   501  THR501     -0.2211
    115  CG2       -8.8810   -5.7560  -32.6630 C.3   501  THR501      0.0375
    116  N        -11.9000   -8.6310  -30.2460 N.3   503  GLU503     -0.1245
    117  CA       -11.4960  -10.0320  -30.3230 C.3   503  GLU503      0.1567
    118  C        -12.1370  -10.8020  -29.1730 C.2   503  GLU503      0.2260
    119  O        -11.9630  -10.4450  -27.9970 O.2   503  GLU503     -0.2867
    120  CB        -9.9610  -10.1480  -30.3080 C.3   503  GLU503      0.0388
    121  CG        -9.3320   -9.5970  -31.5990 C.3   503  GLU503      0.1160
    122  CD        -7.9020   -9.1070  -31.4200 C.2   503  GLU503      0.3649
    123  OE1       -7.1690   -9.0310  -32.4370 O.co2 503  GLU503     -0.2457
    124  OE2       -7.5090   -8.7930  -30.2740 O.co2 503  GLU503     -0.2457
    125  N        -12.1390   -8.3900  -26.0000 N.3   519  ARG519     -0.1245
    126  CA       -11.3380   -7.1690  -25.9230 C.3   519  ARG519      0.1563
    127  C        -12.2060   -5.9380  -26.1860 C.2   519  ARG519      0.2260
    128  O        -13.0830   -5.9700  -27.0510 O.2   519  ARG519     -0.2867
    129  CB       -10.2470   -7.2670  -26.9860 C.3   519  ARG519      0.0307
    130  CG        -9.4200   -6.0280  -27.2050 C.3   519  ARG519      0.0489
    131  CD        -8.3800   -6.3280  -28.2660 C.3   519  ARG519      0.2205
    132  NE        -7.6780   -5.1230  -28.6820 N.pl3 519  ARG519     -0.0865
    133  CZ        -6.6430   -5.1270  -29.5160 C.cat 519  ARG519      0.5346
    134  NH1       -6.1820   -6.2820  -30.0190 N.pl3 519  ARG519      0.1354
    135  NH2       -6.0630   -3.9820  -29.8410 N.pl3 519  ARG519      0.1354
    136  N          1.4580   -4.1550  -23.0110 N.3   581  ARG581     -0.1245
    137  CA         1.2260   -5.5950  -23.0920 C.3   581  ARG581      0.1563
    138  C          2.3180   -6.3220  -22.3210 C.2   581  ARG581      0.2260
    139  O          3.3420   -6.7330  -22.8760 O.2   581  ARG581     -0.2867
    140  CB         1.1420   -6.0540  -24.5560 C.3   581  ARG581      0.0307
    141  CG        -0.0240   -5.3810  -25.3150 C.3   581  ARG581      0.0489
    142  CD        -0.2090   -5.9210  -26.7220 C.3   581  ARG581      0.2205
    143  NE        -1.5320   -5.5780  -27.2620 N.pl3 581  ARG581     -0.0865
    144  CZ        -1.8610   -5.6670  -28.5500 C.cat 581  ARG581      0.5346
    145  NH1       -0.9610   -6.0700  -29.4410 N.pl3 581  ARG581      0.1354
    146  NH2       -3.0820   -5.3340  -28.9570 N.pl3 581  ARG581      0.1354
    147  N         -0.7780  -11.3080  -27.2950 N.3   615  TYR615     -0.1241
    148  CA        -1.7500  -12.3020  -27.7550 C.3   615  TYR615      0.1605
    149  C         -1.3880  -13.6710  -27.2050 C.2   615  TYR615      0.2264
    150  O         -0.2050  -13.9780  -26.9960 O.2   615  TYR615     -0.2867
    151  CB        -1.7820  -12.3710  -29.2760 C.3   615  TYR615      0.0534
    152  CG        -2.6310  -11.3030  -29.9270 C.ar  615  TYR615     -0.0201
    153  CD1       -2.4880   -9.9560  -29.5770 C.ar  615  TYR615     -0.0009
    154  CD2       -3.5600  -11.6310  -30.9050 C.ar  615  TYR615     -0.0009
    155  CE1       -3.2490   -8.9670  -30.1880 C.ar  615  TYR615      0.0417
    156  CE2       -4.3300  -10.6450  -31.5300 C.ar  615  TYR615      0.0417
    157  CZ        -4.1670   -9.3200  -31.1740 C.ar  615  TYR615      0.1957
    158  OH        -4.9390   -8.3420  -31.7930 O.3   615  TYR615     -0.2866
    159  N          3.6020   -6.5750  -28.3290 N.3   635  SER635     -0.1202
    160  CA         3.3410   -6.5220  -29.7750 C.3   635  SER635      0.2020
    161  C          2.5660   -5.2580  -30.1900 C.2   635  SER635      0.2618
    162  O          2.1420   -5.1200  -31.3500 O.2   635  SER635     -0.2717
    163  CB         2.6120   -7.7880  -30.2360 C.3   635  SER635      0.2103
    164  OG         1.3390   -7.9070  -29.6060 O.3   635  SER635     -0.2182
    165  N          2.3680   -4.3350  -29.2510 N.am  636  TRP636     -0.1975
    166  CA         1.8160   -3.0200  -29.6010 C.3   636  TRP636      0.1640
    167  C          2.9580   -2.0260  -29.7640 C.2   636  TRP636      0.2290
    168  O          2.9610   -1.2050  -30.6810 O.2   636  TRP636     -0.2864
    169  CB         0.8730   -2.5200  -28.5030 C.3   636  TRP636      0.0576
    170  CG         0.1250   -1.2680  -28.8670 C.ar  636  TRP636      0.0006
    171  CD1        0.4620    0.0170  -28.5420 C.ar  636  TRP636      0.0946
    172  CD2       -1.0910   -1.1850  -29.6240 C.ar  636  TRP636      0.0152
    173  NE1       -0.4730    0.8940  -29.0530 N.ar  636  TRP636     -0.2442
    174  CE2       -1.4380    0.1790  -29.7190 C.ar  636  TRP636      0.0810
    175  CE3       -1.9270   -2.1390  -30.2300 C.ar  636  TRP636      0.0012
    176  CZ2       -2.5840    0.6190  -30.3960 C.ar  636  TRP636      0.0191
    177  CZ3       -3.0660   -1.7090  -30.8970 C.ar  636  TRP636      0.0001
    178  CH2       -3.3830   -0.3370  -30.9770 C.ar  636  TRP636      0.0015
@<TRIPOS>BOND
     1    72    71    2
     2    71    70    1
     3    70    69    1
     4    70    73    1
     5    73    74    1
     6    77    78    1
     7    79    80    2
     8    79    78    1
     9    78    81    1
    10    74    75    1
    11    75    76    1
    12    81    82    1
    13    83    82    2
    14    44    43    1
    15    82    84   am
    16    63    64    2
    17    63    62    1
    18    41    40    1
    19    41    42    2
    20    43    40    1
    21    40    39    1
    22    62    65    1
    23    62    61    1
    24    45    46    1
    25    65    66    1
    26    34    33    2
    27    39    33   am
    28    22    21    1
    29    22    23    2
    30    96    95    1
    31    51    49    1
    32    33    32    1
    33    46    49    1
    34    46    47    1
    35    49    50    1
    36    21    20    1
    37    21    24    1
    38    66    67   ar
    39    66    68   ar
    40    93    95   ar
    41    93    91   ar
    42    95    94   ar
    43    48    47    2
    44    47    53   am
    45    24    25    1
    46    91    90   ar
    47    94    92   ar
    48    32    31    1
    49    32    35    1
    50    50    52    1
    51    25    26    1
    52    85    86    1
    53    90    92   ar
    54    90    89    1
    55    35    36    1
    56    53    54    1
    57    56    55    2
    58    86    89    1
    59    86    87    1
    60    26    27    1
    61    27    28    2
    62    55    54    1
    63    87    88    2
    64    28    30    1
    65    28    29    1
    66    54    57    1
    67    36    38   ar
    68    36    37   ar
    69    57    58    1
    70   100    99    2
    71    58    60   ar
    72    58    59   ar
    73    99    98    1
    74   108   107    1
    75    97    98    1
    76     1     2    1
    77     4     3    2
    78    17    16    1
    79    17    19    1
    80   105   107   ar
    81   105   103   ar
    82   107   106   ar
    83    98   101    1
    84     5     2    1
    85     5     6    1
    86   103   102   ar
    87    16    18    1
    88    16    13    1
    89   106   104   ar
    90     3     2    1
    91     3    12   am
    92   102   104   ar
    93   102   101    1
    94     6     7    1
    95    15    14    2
    96     7     8    1
    97    10     9    1
    98    12    13    1
    99    13    14    1
   100     8     9    2
   101   114   113    1
   102     9    11    1
   103   115   113    1
   104   123   122   ar
   105   110   113    1
   106   110   109    1
   107   110   111    1
   108   158   157    1
   109   121   122    1
   110   121   120    1
   111   156   157   ar
   112   156   154   ar
   113   122   124   ar
   114   162   161    2
   115   157   155   ar
   116   111   112    2
   117   178   177   ar
   118   178   176   ar
   119   154   152   ar
   120   177   175   ar
   121   168   167    2
   122   176   174   ar
   123   117   120    1
   124   117   116    1
   125   117   118    1
   126   163   160    1
   127   163   164    1
   128   175   172   ar
   129   161   160    1
   130   161   165   am
   131   155   153   ar
   132   134   133    1
   133   152   153   ar
   134   152   151    1
   135   135   133    1
   136   160   159    1
   137   167   166    1
   138   174   172   ar
   139   174   173   ar
   140   172   170   ar
   141   166   165    1
   142   166   169    1
   143   133   132    2
   144   145   144    1
   145   151   148    1
   146   118   119    2
   147   173   171   ar
   148   146   144    1
   149   170   171   ar
   150   170   169    1
   151   132   131    1
   152   144   143    2
   153   131   130    1
   154   148   147    1
   155   148   149    1
   156   143   142    1
   157   149   150    2
   158   130   129    1
   159   128   127    2
   160   129   126    1
   161   142   141    1
   162   127   126    1
   163   125   126    1
   164   141   140    1
   165   140   137    1
   166   137   136    1
   167   137   138    1
   168   139   138    2
