@<TRIPOS>MOLECULE
tmp/4fpgA00.pdb
 178 168 0 0 0
SMALL
GASTEIGER

@<TRIPOS>ATOM
      1  N          3.2330  -14.5380  -35.1350 N.3   207  ARG207     -0.1231
      2  CA         2.2890  -13.7410  -34.3520 C.3   207  ARG207      0.1694
      3  C          0.9170  -14.3910  -34.3560 C.2   207  ARG207      0.2591
      4  O          0.5680  -15.1060  -35.2890 O.2   207  ARG207     -0.2718
      5  CB         2.1710  -12.3120  -34.8930 C.3   207  ARG207      0.0321
      6  CG         3.0540  -11.2970  -34.1940 C.3   207  ARG207      0.0489
      7  CD         2.3890   -9.9200  -34.0630 C.3   207  ARG207      0.2205
      8  NE         1.2290   -9.9490  -33.1770 N.pl3 207  ARG207     -0.0865
      9  CZ         0.5260   -8.8770  -32.8220 C.cat 207  ARG207      0.5346
     10  NH1        0.8640   -7.6610  -33.2760 N.pl3 207  ARG207      0.1354
     11  NH2       -0.5160   -9.0180  -32.0070 N.pl3 207  ARG207      0.1354
     12  N          0.1560  -14.1170  -33.3020 N.am  208  ILE208     -0.1980
     13  CA        -1.2120  -14.5940  -33.1490 C.3   208  ILE208      0.1595
     14  C         -1.3010  -16.1260  -33.0240 C.2   208  ILE208      0.2287
     15  O         -1.8040  -16.8070  -33.9180 O.2   208  ILE208     -0.2864
     16  CB        -2.1490  -14.0850  -34.2830 C.3   208  ILE208      0.0276
     17  CG1       -1.7500  -12.6890  -34.7820 C.3   208  ILE208      0.0022
     18  CG2       -3.5690  -14.0430  -33.7960 C.3   208  ILE208      0.0022
     19  CD1       -1.7430  -11.6080  -33.7080 C.3   208  ILE208      0.0001
     20  N          4.4820  -14.4880  -40.3650 N.3   226  ARG226     -0.1245
     21  CA         4.6900  -13.1190  -40.8310 C.3   226  ARG226      0.1563
     22  C          6.0900  -12.8830  -41.3870 C.2   226  ARG226      0.2260
     23  O          7.0860  -12.9880  -40.6690 O.2   226  ARG226     -0.2867
     24  CB         4.3500  -12.1180  -39.7170 C.3   226  ARG226      0.0307
     25  CG         2.9090  -12.2810  -39.2340 C.3   226  ARG226      0.0489
     26  CD         2.4900  -11.2340  -38.2530 C.3   226  ARG226      0.2205
     27  NE         1.0430  -11.0390  -38.2660 N.pl3 226  ARG226     -0.0865
     28  CZ         0.4090  -10.1030  -37.5620 C.cat 226  ARG226      0.5346
     29  NH1        1.0990   -9.2830  -36.7820 N.pl3 226  ARG226      0.1354
     30  NH2       -0.9110   -9.9810  -37.6410 N.pl3 226  ARG226      0.1354
     31  N          0.8700   -6.1260  -39.2570 N.3   232  ASP232     -0.1225
     32  CA        -0.3850   -6.6560  -39.8110 C.3   232  ASP232      0.1805
     33  C         -0.3610   -6.4610  -41.3350 C.2   232  ASP232      0.2598
     34  O          0.5610   -5.8250  -41.8800 O.2   232  ASP232     -0.2718
     35  CB        -1.6070   -5.9170  -39.2360 C.3   232  ASP232      0.1424
     36  CG        -1.7490   -6.0770  -37.7270 C.2   232  ASP232      0.3668
     37  OD1       -2.5070   -5.2970  -37.1070 O.co2 232  ASP232     -0.2456
     38  OD2       -1.1030   -6.9660  -37.1470 O.co2 232  ASP232     -0.2456
     39  N         -1.3620   -7.0010  -42.0260 N.am  233  SER233     -0.1952
     40  CA        -1.5770   -6.6540  -43.4260 C.3   233  SER233      0.1924
     41  C         -1.7450   -5.1270  -43.4850 C.2   233  SER233      0.2314
     42  O         -2.3160   -4.5480  -42.5690 O.2   233  SER233     -0.2863
     43  CB        -2.8310   -7.3470  -43.9620 C.3   233  SER233      0.2116
     44  OG        -2.8770   -8.7090  -43.5850 O.3   233  SER233     -0.2180
     45  N         -4.4400  -13.4800  -42.1060 N.3   288  ILE288     -0.1231
     46  CA        -4.1950  -12.9570  -40.7640 C.3   288  ILE288      0.1692
     47  C         -5.3530  -13.3520  -39.8650 C.2   288  ILE288      0.2592
     48  O         -6.4870  -13.4050  -40.3270 O.2   288  ILE288     -0.2718
     49  CB        -3.9990  -11.4110  -40.8080 C.3   288  ILE288      0.0266
     50  CG1       -3.9100  -10.8080  -39.4110 C.3   288  ILE288      0.0019
     51  CG2       -5.0940  -10.7350  -41.6270 C.3   288  ILE288      0.0020
     52  CD1       -3.4580   -9.3760  -39.4540 C.3   288  ILE288      0.0001
     53  N         -5.0730  -13.6470  -38.5970 N.am  289  ASP289     -0.1974
     54  CA        -6.1050  -14.0850  -37.6410 C.3   289  ASP289      0.1709
     55  C         -6.7220  -15.4800  -37.9370 C.2   289  ASP289      0.2293
     56  O         -7.8360  -15.5920  -38.4570 O.2   289  ASP289     -0.2864
     57  CB        -7.2280  -13.0450  -37.5130 C.3   289  ASP289      0.1436
     58  CG        -6.7670  -11.7590  -36.8670 C.2   289  ASP289      0.3671
     59  OD1       -5.6050  -11.7140  -36.4180 O.co2 289  ASP289     -0.2456
     60  OD2       -7.5780  -10.7980  -36.8060 O.co2 289  ASP289     -0.2456
     61  N         -8.7060  -14.5200  -41.6290 N.3   306  ASP306     -0.1239
     62  CA        -8.9850  -13.3560  -42.4680 C.3   306  ASP306      0.1674
     63  C         -8.0990  -13.4430  -43.7150 C.2   306  ASP306      0.2266
     64  O         -6.9590  -13.9140  -43.6590 O.2   306  ASP306     -0.2867
     65  CB        -8.7530  -12.0410  -41.7140 C.3   306  ASP306      0.1410
     66  CG        -9.7140  -11.8430  -40.5470 C.2   306  ASP306      0.3668
     67  OD1      -10.9230  -12.1210  -40.7090 O.co2 306  ASP306     -0.2456
     68  OD2       -9.2630  -11.3970  -39.4670 O.co2 306  ASP306     -0.2456
     69  N         -6.6790  -11.2950  -47.1840 N.3   308  MET308     -0.1245
     70  CA        -6.4700   -9.9510  -47.7060 C.3   308  MET308      0.1570
     71  C         -5.8840  -10.0350  -49.1050 C.2   308  MET308      0.2261
     72  O         -4.9320  -10.7680  -49.3320 O.2   308  MET308     -0.2867
     73  CB        -5.5230   -9.1760  -46.7930 C.3   308  MET308      0.0387
     74  CG        -5.9180   -9.1930  -45.3210 C.3   308  MET308      0.0595
     75  SD        -6.8750   -7.7500  -44.8420 S.3   308  MET308     -0.1393
     76  CE        -7.7600   -8.3930  -43.4280 C.3   308  MET308      0.0692
     77  N         -6.4580   -3.8580  -42.5870 N.3   314  ASN314     -0.1240
     78  CA        -7.3640   -3.1240  -41.6910 C.3   314  ASN314      0.1653
     79  C         -7.7090   -1.7030  -42.1510 C.2   314  ASN314      0.2266
     80  O         -8.8820   -1.3450  -42.2980 O.2   314  ASN314     -0.2867
     81  CB        -6.7120   -3.0190  -40.3030 C.3   314  ASN314      0.1155
     82  CG        -7.6150   -3.4950  -39.1800 C.2   314  ASN314      0.2627
     83  OD1       -8.7410   -3.9350  -39.4090 O.2   314  ASN314     -0.2716
     84  ND2       -7.1110   -3.4220  -37.9510 N.am  314  ASN314     -0.0877
     85  N        -14.5600   -9.3270  -38.9910 N.3   451  TYR451     -0.1241
     86  CA       -13.1920   -9.7190  -38.6770 C.3   451  TYR451      0.1605
     87  C        -13.1250  -10.9540  -37.7640 C.2   451  TYR451      0.2264
     88  O        -13.6450  -10.9320  -36.6470 O.2   451  TYR451     -0.2867
     89  CB       -12.4550   -8.5410  -38.0410 C.3   451  TYR451      0.0534
     90  CG       -12.0820   -7.4840  -39.0490 C.ar  451  TYR451     -0.0201
     91  CD1      -10.9600   -7.6440  -39.8550 C.ar  451  TYR451     -0.0009
     92  CD2      -12.8560   -6.3380  -39.2140 C.ar  451  TYR451     -0.0009
     93  CE1      -10.6160   -6.7040  -40.7900 C.ar  451  TYR451      0.0417
     94  CE2      -12.5140   -5.3920  -40.1420 C.ar  451  TYR451      0.0417
     95  CZ       -11.3870   -5.5780  -40.9270 C.ar  451  TYR451      0.1957
     96  OH       -11.0280   -4.6430  -41.8660 O.3   451  TYR451     -0.2866
     97  N        -15.9670  -10.0680  -35.3200 N.3   471  TYR471     -0.1241
     98  CA       -16.3700   -8.7420  -34.8590 C.3   471  TYR471      0.1605
     99  C        -16.3880   -7.7300  -35.9980 C.2   471  TYR471      0.2264
    100  O        -15.6220   -7.8220  -36.9630 O.2   471  TYR471     -0.2867
    101  CB       -15.4520   -8.2530  -33.7250 C.3   471  TYR471      0.0534
    102  CG       -14.0420   -7.8950  -34.1650 C.ar  471  TYR471     -0.0201
    103  CD1      -13.7040   -6.5800  -34.4930 C.ar  471  TYR471     -0.0009
    104  CD2      -13.0520   -8.8600  -34.2490 C.ar  471  TYR471     -0.0009
    105  CE1      -12.4270   -6.2420  -34.8930 C.ar  471  TYR471      0.0417
    106  CE2      -11.7710   -8.5330  -34.6480 C.ar  471  TYR471      0.0417
    107  CZ       -11.4640   -7.2190  -34.9720 C.ar  471  TYR471      0.1957
    108  OH       -10.1880   -6.8910  -35.3710 O.3   471  TYR471     -0.2866
    109  N        -11.3710   -3.4930  -31.5470 N.3   501  THR501     -0.1218
    110  CA       -10.8610   -4.7740  -31.9640 C.3   501  THR501      0.1862
    111  C        -11.4840   -5.7570  -30.9890 C.2   501  THR501      0.2287
    112  O        -10.8370   -6.2340  -30.0620 O.2   501  THR501     -0.2866
    113  CB        -9.3250   -4.7880  -31.8970 C.3   501  THR501      0.1770
    114  OG1       -8.8280   -3.6020  -32.5290 O.3   501  THR501     -0.2211
    115  CG2       -8.7760   -5.9960  -32.6100 C.3   501  THR501      0.0375
    116  N        -11.9470   -8.6500  -30.1870 N.3   503  GLU503     -0.1245
    117  CA       -11.5290  -10.0360  -30.2890 C.3   503  GLU503      0.1567
    118  C        -12.1790  -10.8190  -29.1480 C.2   503  GLU503      0.2260
    119  O        -11.9610  -10.5260  -27.9680 O.2   503  GLU503     -0.2867
    120  CB       -10.0010  -10.1370  -30.2910 C.3   503  GLU503      0.0388
    121  CG        -9.3750   -9.5300  -31.5510 C.3   503  GLU503      0.1160
    122  CD        -7.9600   -9.0230  -31.3350 C.2   503  GLU503      0.3649
    123  OE1       -7.1830   -9.0090  -32.3230 O.co2 503  GLU503     -0.2457
    124  OE2       -7.6290   -8.6380  -30.1870 O.co2 503  GLU503     -0.2457
    125  N        -12.2010   -8.2880  -25.8690 N.3   519  ARG519     -0.1245
    126  CA       -11.3270   -7.1290  -25.7600 C.3   519  ARG519      0.1563
    127  C        -12.1170   -5.8640  -26.0250 C.2   519  ARG519      0.2260
    128  O        -12.9390   -5.8320  -26.9310 O.2   519  ARG519     -0.2867
    129  CB       -10.2210   -7.2670  -26.8050 C.3   519  ARG519      0.0307
    130  CG        -9.4450   -6.0130  -27.1380 C.3   519  ARG519      0.0489
    131  CD        -8.3630   -6.3310  -28.1690 C.3   519  ARG519      0.2205
    132  NE        -7.6150   -5.1480  -28.5780 N.pl3 519  ARG519     -0.0865
    133  CZ        -6.5780   -5.1600  -29.4090 C.cat 519  ARG519      0.5346
    134  NH1       -6.1490   -6.3010  -29.9380 N.pl3 519  ARG519      0.1354
    135  NH2       -5.9640   -4.0230  -29.7040 N.pl3 519  ARG519      0.1354
    136  N          1.4570   -4.0990  -22.8240 N.3   581  ARG581     -0.1245
    137  CA         1.2210   -5.5340  -22.9260 C.3   581  ARG581      0.1563
    138  C          2.3140   -6.3270  -22.2080 C.2   581  ARG581      0.2260
    139  O          3.2770   -6.8050  -22.8080 O.2   581  ARG581     -0.2867
    140  CB         1.0610   -5.9370  -24.3930 C.3   581  ARG581      0.0307
    141  CG        -0.2000   -5.3400  -25.0150 C.3   581  ARG581      0.0489
    142  CD        -0.2900   -5.6380  -26.4770 C.3   581  ARG581      0.2205
    143  NE        -1.6470   -5.4660  -26.9920 N.pl3 581  ARG581     -0.0865
    144  CZ        -1.9660   -5.5930  -28.2790 C.cat 581  ARG581      0.5346
    145  NH1       -1.0270   -5.8910  -29.1710 N.pl3 581  ARG581      0.1354
    146  NH2       -3.2160   -5.4250  -28.6870 N.pl3 581  ARG581      0.1354
    147  N         -0.8250  -11.3660  -27.1920 N.3   615  TYR615     -0.1241
    148  CA        -1.7320  -12.3670  -27.7060 C.3   615  TYR615      0.1605
    149  C         -1.3380  -13.7380  -27.1520 C.2   615  TYR615      0.2264
    150  O         -0.1500  -14.0400  -26.9750 O.2   615  TYR615     -0.2867
    151  CB        -1.6960  -12.3690  -29.2340 C.3   615  TYR615      0.0534
    152  CG        -2.5800  -11.3200  -29.8640 C.ar  615  TYR615     -0.0201
    153  CD1       -2.4030   -9.9720  -29.5770 C.ar  615  TYR615     -0.0009
    154  CD2       -3.5990  -11.6750  -30.7420 C.ar  615  TYR615     -0.0009
    155  CE1       -3.2060   -9.0050  -30.1430 C.ar  615  TYR615      0.0417
    156  CE2       -4.4090  -10.7110  -31.3210 C.ar  615  TYR615      0.0417
    157  CZ        -4.2080   -9.3710  -31.0180 C.ar  615  TYR615      0.1957
    158  OH        -5.0030   -8.3900  -31.5870 O.3   615  TYR615     -0.2866
    159  N          3.6940   -6.6400  -28.3570 N.3   635  SER635     -0.1202
    160  CA         3.4460   -6.6140  -29.7920 C.3   635  SER635      0.2020
    161  C          2.6740   -5.3700  -30.2160 C.2   635  SER635      0.2618
    162  O          2.2750   -5.2320  -31.3800 O.2   635  SER635     -0.2717
    163  CB         2.6750   -7.8600  -30.2050 C.3   635  SER635      0.2103
    164  OG         1.5200   -8.0390  -29.4070 O.3   635  SER635     -0.2182
    165  N          2.4440   -4.4720  -29.2640 N.am  636  TRP636     -0.1975
    166  CA         1.8120   -3.2010  -29.5870 C.3   636  TRP636      0.1640
    167  C          2.8850   -2.1410  -29.7790 C.2   636  TRP636      0.2290
    168  O          2.8070   -1.3370  -30.6990 O.2   636  TRP636     -0.2864
    169  CB         0.8040   -2.7660  -28.5120 C.3   636  TRP636      0.0576
    170  CG         0.1570   -1.4720  -28.8500 C.ar  636  TRP636      0.0006
    171  CD1        0.6080   -0.2210  -28.5290 C.ar  636  TRP636      0.0946
    172  CD2       -1.0470   -1.2830  -29.6070 C.ar  636  TRP636      0.0152
    173  NE1       -0.2440    0.7310  -29.0330 N.ar  636  TRP636     -0.2442
    174  CE2       -1.2660    0.1080  -29.7000 C.ar  636  TRP636      0.0810
    175  CE3       -1.9680   -2.1550  -30.2060 C.ar  636  TRP636      0.0012
    176  CZ2       -2.3630    0.6450  -30.3670 C.ar  636  TRP636      0.0191
    177  CZ3       -3.0650   -1.6190  -30.8640 C.ar  636  TRP636      0.0001
    178  CH2       -3.2480   -0.2330  -30.9430 C.ar  636  TRP636      0.0015
@<TRIPOS>BOND
     1    72    71    2
     2    71    70    1
     3    70    69    1
     4    70    73    1
     5    73    74    1
     6    74    75    1
     7    75    76    1
     8    43    44    1
     9    43    40    1
    10    63    64    2
    11    63    62    1
    12    41    40    1
    13    41    42    2
    14    40    39    1
    15    77    78    1
    16    62    65    1
    17    62    61    1
    18    80    79    2
    19    79    78    1
    20    45    46    1
    21    39    33   am
    22    34    33    2
    23    96    95    1
    24    65    66    1
    25    78    81    1
    26    51    49    1
    27    22    21    1
    28    22    23    2
    29    33    32    1
    30    95    93   ar
    31    95    94   ar
    32    21    20    1
    33    21    24    1
    34    49    46    1
    35    49    50    1
    36    93    91   ar
    37    46    47    1
    38    67    66   ar
    39    66    68   ar
    40    48    47    2
    41    81    82    1
    42    94    92   ar
    43    47    53   am
    44    91    90   ar
    45    32    31    1
    46    32    35    1
    47    24    25    1
    48    52    50    1
    49    83    82    2
    50    35    36    1
    51    25    26    1
    52    92    90   ar
    53    82    84   am
    54    90    89    1
    55    85    86    1
    56    86    89    1
    57    86    87    1
    58    53    54    1
    59    56    55    2
    60    27    26    1
    61    27    28    2
    62    55    54    1
    63    87    88    2
    64    36    38   ar
    65    36    37   ar
    66    30    28    1
    67    54    57    1
    68    28    29    1
    69    57    58    1
    70   100    99    2
    71    58    60   ar
    72    58    59   ar
    73    99    98    1
    74   108   107    1
    75    97    98    1
    76     4     3    2
    77     1     2    1
    78   107   105   ar
    79   107   106   ar
    80     5     2    1
    81     5     6    1
    82   105   103   ar
    83    98   101    1
    84    17    16    1
    85    17    19    1
    86   106   104   ar
    87   103   102   ar
    88     3     2    1
    89     3    12   am
    90    16    18    1
    91    16    13    1
    92   104   102   ar
    93     6     7    1
    94   102   101    1
    95     7     8    1
    96    15    14    2
    97    12    13    1
    98    10     9    1
    99     8     9    2
   100    13    14    1
   101     9    11    1
   102   115   113    1
   103   114   113    1
   104   123   122   ar
   105   110   113    1
   106   110   109    1
   107   110   111    1
   108   158   157    1
   109   121   122    1
   110   121   120    1
   111   162   161    2
   112   122   124   ar
   113   156   157   ar
   114   156   154   ar
   115   157   155   ar
   116   111   112    2
   117   178   177   ar
   118   178   176   ar
   119   177   175   ar
   120   154   152   ar
   121   168   167    2
   122   176   174   ar
   123   120   117    1
   124   117   116    1
   125   117   118    1
   126   161   160    1
   127   161   165   am
   128   175   172   ar
   129   163   160    1
   130   163   164    1
   131   155   153   ar
   132   134   133    1
   133   152   153   ar
   134   152   151    1
   135   160   159    1
   136   167   166    1
   137   135   133    1
   138   174   172   ar
   139   174   173   ar
   140   172   170   ar
   141   166   165    1
   142   166   169    1
   143   133   132    2
   144   151   148    1
   145   145   144    1
   146   118   119    2
   147   173   171   ar
   148   170   171   ar
   149   170   169    1
   150   146   144    1
   151   132   131    1
   152   144   143    2
   153   131   130    1
   154   148   147    1
   155   148   149    1
   156   149   150    2
   157   130   129    1
   158   143   142    1
   159   128   127    2
   160   129   126    1
   161   142   141    1
   162   127   126    1
   163   125   126    1
   164   141   140    1
   165   140   137    1
   166   137   136    1
   167   137   138    1
   168   139   138    2
