@<TRIPOS>MOLECULE
tmp/4fphA00.pdb
 182 172 0 0 0
SMALL
GASTEIGER

@<TRIPOS>ATOM
      1  N          3.1980  -14.0550  -35.4820 N.3   207  ARG207     -0.1231
      2  CA         2.2540  -13.3960  -34.5860 C.3   207  ARG207      0.1694
      3  C          0.9550  -14.1820  -34.5930 C.2   207  ARG207      0.2591
      4  O          0.7350  -14.9950  -35.4870 O.2   207  ARG207     -0.2718
      5  CB         1.9970  -11.9470  -35.0320 C.3   207  ARG207      0.0321
      6  CG         2.9750  -10.9050  -34.4470 C.3   207  ARG207      0.0489
      7  CD         2.3100   -9.5250  -34.2660 C.3   207  ARG207      0.2205
      8  NE         1.2340   -9.5710  -33.2760 N.pl3 207  ARG207     -0.0865
      9  CZ         0.3560   -8.5880  -33.0750 C.cat 207  ARG207      0.5346
     10  NH1        0.4260   -7.4570  -33.7810 N.pl3 207  ARG207      0.1354
     11  NH2       -0.5910   -8.7350  -32.1610 N.pl3 207  ARG207      0.1354
     12  N          0.0950  -13.9190  -33.6120 N.am  208  ILE208     -0.1980
     13  CA        -1.2820  -14.4390  -33.5980 C.3   208  ILE208      0.1595
     14  C         -1.3350  -15.9740  -33.4620 C.2   208  ILE208      0.2287
     15  O         -1.8610  -16.6560  -34.3420 O.2   208  ILE208     -0.2864
     16  CB        -2.1220  -13.9700  -34.8480 C.3   208  ILE208      0.0276
     17  CG1       -1.7390  -12.5570  -35.3230 C.3   208  ILE208      0.0022
     18  CG2       -3.6080  -14.0230  -34.5560 C.3   208  ILE208      0.0022
     19  CD1       -2.0160  -11.4190  -34.3150 C.3   208  ILE208      0.0001
     20  N          4.7440  -14.3910  -40.6340 N.3   226  ARG226     -0.1245
     21  CA         4.8700  -13.0170  -41.1310 C.3   226  ARG226      0.1563
     22  C          6.2410  -12.7300  -41.7410 C.2   226  ARG226      0.2260
     23  O          7.2740  -12.7720  -41.0610 O.2   226  ARG226     -0.2867
     24  CB         4.5130  -12.0160  -40.0220 C.3   226  ARG226      0.0307
     25  CG         3.0800  -12.1970  -39.4690 C.3   226  ARG226      0.0489
     26  CD         2.5750  -10.9310  -38.7790 C.3   226  ARG226      0.2205
     27  NE         1.1400  -11.0020  -38.4720 N.pl3 226  ARG226     -0.0865
     28  CZ         0.4450  -10.0110  -37.9230 C.cat 226  ARG226      0.5346
     29  NH1        1.0460   -8.8760  -37.6040 N.pl3 226  ARG226      0.1354
     30  NH2       -0.8460  -10.1610  -37.6840 N.pl3 226  ARG226      0.1354
     31  N          1.0610   -5.9840  -39.3970 N.3   232  ASP232     -0.1225
     32  CA        -0.1960   -6.5440  -39.9340 C.3   232  ASP232      0.1805
     33  C         -0.2080   -6.3230  -41.4470 C.2   232  ASP232      0.2598
     34  O          0.5720   -5.5250  -41.9720 O.2   232  ASP232     -0.2718
     35  CB        -1.4470   -5.8210  -39.4000 C.3   232  ASP232      0.1424
     36  CG        -1.7460   -6.1060  -37.9410 C.2   232  ASP232      0.3668
     37  OD1       -2.5920   -5.3720  -37.3820 O.co2 232  ASP232     -0.2456
     38  OD2       -1.1690   -7.0500  -37.3640 O.co2 232  ASP232     -0.2456
     39  N         -1.1190   -6.9980  -42.1400 N.am  233  SER233     -0.1952
     40  CA        -1.4220   -6.6670  -43.5370 C.3   233  SER233      0.1924
     41  C         -1.6610   -5.1490  -43.6840 C.2   233  SER233      0.2314
     42  O         -2.1690   -4.5390  -42.7560 O.2   233  SER233     -0.2863
     43  CB        -2.6700   -7.4240  -43.9690 C.3   233  SER233      0.2116
     44  OG        -2.4890   -8.8160  -43.7930 O.3   233  SER233     -0.2180
     45  N         -4.3930  -13.5020  -42.5630 N.3   288  ILE288     -0.1231
     46  CA        -4.1060  -12.9630  -41.2340 C.3   288  ILE288      0.1692
     47  C         -5.2110  -13.3680  -40.2690 C.2   288  ILE288      0.2592
     48  O         -6.3640  -13.4610  -40.6710 O.2   288  ILE288     -0.2718
     49  CB        -3.8960  -11.4080  -41.2860 C.3   288  ILE288      0.0266
     50  CG1       -3.6860  -10.8060  -39.8950 C.3   288  ILE288      0.0019
     51  CG2       -5.0390  -10.6970  -42.0140 C.3   288  ILE288      0.0020
     52  CD1       -3.1620   -9.3600  -39.9750 C.3   288  ILE288      0.0001
     53  N         -4.8480  -13.6350  -39.0150 N.am  289  ASP289     -0.1974
     54  CA        -5.8000  -13.9960  -37.9570 C.3   289  ASP289      0.1709
     55  C         -6.5160  -15.3300  -38.2180 C.2   289  ASP289      0.2293
     56  O         -7.6360  -15.3480  -38.7330 O.2   289  ASP289     -0.2864
     57  CB        -6.8500  -12.8970  -37.7390 C.3   289  ASP289      0.1436
     58  CG        -6.2830  -11.6350  -37.0980 C.2   289  ASP289      0.3671
     59  OD1       -5.1140  -11.6420  -36.6680 O.co2 289  ASP289     -0.2456
     60  OD2       -7.0270  -10.6290  -37.0170 O.co2 289  ASP289     -0.2456
     61  N         -8.6430  -14.4770  -42.0660 N.3   306  ASP306     -0.1239
     62  CA        -8.9580  -13.3680  -42.9630 C.3   306  ASP306      0.1674
     63  C         -8.1060  -13.4910  -44.2320 C.2   306  ASP306      0.2266
     64  O         -6.9880  -14.0320  -44.1940 O.2   306  ASP306     -0.2867
     65  CB        -8.6580  -12.0010  -42.3260 C.3   306  ASP306      0.1410
     66  CG        -9.4310  -11.7380  -41.0400 C.2   306  ASP306      0.3668
     67  OD1      -10.5330  -12.2840  -40.8390 O.co2 306  ASP306     -0.2456
     68  OD2       -8.9230  -10.9440  -40.2200 O.co2 306  ASP306     -0.2456
     69  N         -6.5820  -11.0890  -47.4650 N.3   308  MET308     -0.1245
     70  CA        -6.3570   -9.7260  -47.9430 C.3   308  MET308      0.1570
     71  C         -5.7590   -9.7790  -49.3410 C.2   308  MET308      0.2261
     72  O         -4.7350  -10.4290  -49.5580 O.2   308  MET308     -0.2867
     73  CB        -5.3900   -8.9940  -47.0110 C.3   308  MET308      0.0387
     74  CG        -5.7580   -9.0670  -45.5380 C.3   308  MET308      0.0595
     75  SD        -7.0190   -7.8620  -45.1250 S.3   308  MET308     -0.1393
     76  CE        -7.9140   -8.8170  -43.8990 C.3   308  MET308      0.0692
     77  N         -4.8600   -4.0310  -46.3410 N.3   313  GLY313     -0.1210
     78  CA        -4.9050   -4.2860  -44.9060 C.3   313  GLY313      0.1956
     79  C         -6.2130   -3.7480  -44.3480 C.2   313  GLY313      0.2611
     80  O         -7.0970   -3.3720  -45.1230 O.2   313  GLY313     -0.2717
     81  N         -6.3630   -3.7030  -43.0230 N.am  314  ASN314     -0.1974
     82  CA        -7.6200   -3.1900  -42.4720 C.3   314  ASN314      0.1688
     83  C         -7.7470   -1.6730  -42.6330 C.2   314  ASN314      0.2292
     84  O         -8.8550   -1.1350  -42.6640 O.2   314  ASN314     -0.2864
     85  CB        -7.9040   -3.6820  -41.0330 C.3   314  ASN314      0.1181
     86  CG        -7.1170   -2.9300  -39.9520 C.2   314  ASN314      0.2629
     87  OD1       -6.3420   -2.0160  -40.2340 O.2   314  ASN314     -0.2716
     88  ND2       -7.3370   -3.3180  -38.6890 N.am  314  ASN314     -0.0877
     89  N        -14.3010   -9.3320  -39.3450 N.3   451  TYR451     -0.1241
     90  CA       -12.9420   -9.7750  -39.0640 C.3   451  TYR451      0.1605
     91  C        -12.9660  -10.9610  -38.1150 C.2   451  TYR451      0.2264
     92  O        -13.5560  -10.8930  -37.0420 O.2   451  TYR451     -0.2867
     93  CB       -12.1230   -8.6330  -38.4590 C.3   451  TYR451      0.0534
     94  CG       -11.7960   -7.5530  -39.4630 C.ar  451  TYR451     -0.0201
     95  CD1      -10.6600   -7.6450  -40.2520 C.ar  451  TYR451     -0.0009
     96  CD2      -12.6330   -6.4600  -39.6350 C.ar  451  TYR451     -0.0009
     97  CE1      -10.3530   -6.6820  -41.1780 C.ar  451  TYR451      0.0417
     98  CE2      -12.3340   -5.4760  -40.5670 C.ar  451  TYR451      0.0417
     99  CZ       -11.1910   -5.6000  -41.3350 C.ar  451  TYR451      0.1957
    100  OH       -10.8510   -4.6520  -42.2730 O.3   451  TYR451     -0.2866
    101  N        -15.7110  -10.0010  -35.6040 N.3   471  TYR471     -0.1241
    102  CA       -16.1240   -8.6700  -35.1570 C.3   471  TYR471      0.1605
    103  C        -16.2800   -7.6800  -36.3060 C.2   471  TYR471      0.2264
    104  O        -15.6630   -7.8140  -37.3700 O.2   471  TYR471     -0.2867
    105  CB       -15.1820   -8.0970  -34.0810 C.3   471  TYR471      0.0534
    106  CG       -13.7470   -7.8630  -34.5390 C.ar  471  TYR471     -0.0201
    107  CD1      -13.3420   -6.6260  -35.0350 C.ar  471  TYR471     -0.0009
    108  CD2      -12.8010   -8.8720  -34.4510 C.ar  471  TYR471     -0.0009
    109  CE1      -12.0360   -6.4100  -35.4470 C.ar  471  TYR471      0.0417
    110  CE2      -11.4940   -8.6710  -34.8520 C.ar  471  TYR471      0.0417
    111  CZ       -11.1140   -7.4340  -35.3440 C.ar  471  TYR471      0.1957
    112  OH        -9.8080   -7.2300  -35.7470 O.3   471  TYR471     -0.2866
    113  N        -11.5900   -3.2040  -32.0800 N.3   501  THR501     -0.1218
    114  CA       -10.9920   -4.4870  -32.4250 C.3   501  THR501      0.1862
    115  C        -11.5110   -5.4540  -31.3650 C.2   501  THR501      0.2287
    116  O        -10.8290   -5.7530  -30.3910 O.2   501  THR501     -0.2866
    117  CB        -9.4500   -4.4040  -32.3820 C.3   501  THR501      0.1770
    118  OG1       -9.0070   -3.3420  -33.2390 O.3   501  THR501     -0.2211
    119  CG2       -8.8190   -5.7020  -32.8390 C.3   501  THR501      0.0375
    120  N        -11.8880   -8.5280  -30.4750 N.3   503  GLU503     -0.1245
    121  CA       -11.4810   -9.9240  -30.5860 C.3   503  GLU503      0.1567
    122  C        -12.1110  -10.7070  -29.4450 C.2   503  GLU503      0.2260
    123  O        -11.9420  -10.3560  -28.2760 O.2   503  GLU503     -0.2867
    124  CB        -9.9530  -10.0260  -30.5840 C.3   503  GLU503      0.0388
    125  CG        -9.3010   -9.3810  -31.8380 C.3   503  GLU503      0.1160
    126  CD        -7.8650   -8.9610  -31.6060 C.2   503  GLU503      0.3649
    127  OE1       -7.1000   -8.8440  -32.5960 O.co2 503  GLU503     -0.2457
    128  OE2       -7.4970   -8.7530  -30.4290 O.co2 503  GLU503     -0.2457
    129  N        -12.0920   -8.2570  -26.1920 N.3   519  ARG519     -0.1245
    130  CA       -11.2650   -7.0550  -26.1270 C.3   519  ARG519      0.1563
    131  C        -12.1280   -5.8300  -26.3700 C.2   519  ARG519      0.2260
    132  O        -13.0060   -5.8480  -27.2250 O.2   519  ARG519     -0.2867
    133  CB       -10.1910   -7.1550  -27.2200 C.3   519  ARG519      0.0307
    134  CG        -9.2540   -5.9600  -27.3640 C.3   519  ARG519      0.0489
    135  CD        -8.3370   -6.1950  -28.5520 C.3   519  ARG519      0.2205
    136  NE        -7.6110   -5.0040  -28.9660 N.pl3 519  ARG519     -0.0865
    137  CZ        -6.5930   -5.0300  -29.8150 C.cat 519  ARG519      0.5346
    138  NH1       -6.1770   -6.1950  -30.3220 N.pl3 519  ARG519      0.1354
    139  NH2       -5.9860   -3.9020  -30.1460 N.pl3 519  ARG519      0.1354
    140  N          1.4790   -3.9920  -23.2480 N.3   581  ARG581     -0.1245
    141  CA         1.2090   -5.4300  -23.3410 C.3   581  ARG581      0.1563
    142  C          2.3080   -6.1660  -22.5780 C.2   581  ARG581      0.2260
    143  O          3.3510   -6.5260  -23.1320 O.2   581  ARG581     -0.2867
    144  CB         1.0940   -5.8740  -24.8060 C.3   581  ARG581      0.0307
    145  CG        -0.0900   -5.2160  -25.5360 C.3   581  ARG581      0.0489
    146  CD        -0.2600   -5.6990  -26.9600 C.3   581  ARG581      0.2205
    147  NE        -1.6050   -5.4110  -27.4760 N.pl3 581  ARG581     -0.0865
    148  CZ        -1.9360   -5.4430  -28.7640 C.cat 581  ARG581      0.5346
    149  NH1       -1.0250   -5.7520  -29.6800 N.pl3 581  ARG581      0.1354
    150  NH2       -3.1700   -5.1630  -29.1350 N.pl3 581  ARG581      0.1354
    151  N         -0.6800  -11.2540  -27.5470 N.3   615  TYR615     -0.1241
    152  CA        -1.6920  -12.2170  -27.9860 C.3   615  TYR615      0.1605
    153  C         -1.3020  -13.5800  -27.4460 C.2   615  TYR615      0.2264
    154  O         -0.1100  -13.8690  -27.2770 O.2   615  TYR615     -0.2867
    155  CB        -1.7980  -12.2820  -29.5070 C.3   615  TYR615      0.0534
    156  CG        -2.6410  -11.1890  -30.1250 C.ar  615  TYR615     -0.0201
    157  CD1       -2.5190   -9.8710  -29.7060 C.ar  615  TYR615     -0.0009
    158  CD2       -3.5360  -11.4720  -31.1450 C.ar  615  TYR615     -0.0009
    159  CE1       -3.2690   -8.8600  -30.2800 C.ar  615  TYR615      0.0417
    160  CE2       -4.2940  -10.4650  -31.7310 C.ar  615  TYR615      0.0417
    161  CZ        -4.1520   -9.1640  -31.2970 C.ar  615  TYR615      0.1957
    162  OH        -4.9050   -8.1700  -31.8860 O.3   615  TYR615     -0.2866
    163  N          3.6060   -6.4710  -28.5780 N.3   635  SER635     -0.1202
    164  CA         3.3380   -6.3950  -30.0160 C.3   635  SER635      0.2020
    165  C          2.5590   -5.1390  -30.4250 C.2   635  SER635      0.2618
    166  O          2.1090   -5.0180  -31.5740 O.2   635  SER635     -0.2717
    167  CB         2.6240   -7.6550  -30.5100 C.3   635  SER635      0.2103
    168  OG         1.3870   -7.8180  -29.8540 O.3   635  SER635     -0.2182
    169  N          2.3990   -4.2040  -29.4940 N.am  636  TRP636     -0.1975
    170  CA         1.8540   -2.8910  -29.8400 C.3   636  TRP636      0.1640
    171  C          2.9980   -1.8990  -29.9840 C.2   636  TRP636      0.2290
    172  O          3.0250   -1.0780  -30.9180 O.2   636  TRP636     -0.2864
    173  CB         0.8700   -2.4100  -28.7600 C.3   636  TRP636      0.0576
    174  CG         0.1450   -1.1150  -29.1160 C.ar  636  TRP636      0.0006
    175  CD1        0.5120    0.1620  -28.7650 C.ar  636  TRP636      0.0946
    176  CD2       -1.0610   -0.9870  -29.8890 C.ar  636  TRP636      0.0152
    177  NE1       -0.4010    1.0690  -29.2710 N.ar  636  TRP636     -0.2442
    178  CE2       -1.3710    0.3910  -29.9580 C.ar  636  TRP636      0.0810
    179  CE3       -1.9110   -1.9030  -30.5230 C.ar  636  TRP636      0.0012
    180  CZ2       -2.5000    0.8660  -30.6400 C.ar  636  TRP636      0.0191
    181  CZ3       -3.0270   -1.4290  -31.1940 C.ar  636  TRP636      0.0001
    182  CH2       -3.3100   -0.0560  -31.2490 C.ar  636  TRP636      0.0015
@<TRIPOS>BOND
     1    72    71    2
     2    71    70    1
     3    70    69    1
     4    70    73    1
     5    73    74    1
     6    77    78    1
     7    74    75    1
     8    75    76    1
     9    80    79    2
    10    78    79    1
    11    79    81   am
    12    63    64    2
    13    63    62    1
    14    43    44    1
    15    43    40    1
    16    41    40    1
    17    41    42    2
    18    40    39    1
    19    81    82    1
    20    62    65    1
    21    62    61    1
    22    84    83    2
    23    83    82    1
    24    45    46    1
    25    82    85    1
    26    65    66    1
    27   100    99    1
    28    39    33   am
    29    51    49    1
    30    34    33    2
    31    22    21    1
    32    22    23    2
    33    33    32    1
    34    99    97   ar
    35    99    98   ar
    36    49    46    1
    37    49    50    1
    38    46    47    1
    39    97    95   ar
    40    21    20    1
    41    21    24    1
    42    66    67   ar
    43    66    68   ar
    44    85    86    1
    45    48    47    2
    46    98    96   ar
    47    47    53   am
    48    95    94   ar
    49    87    86    2
    50    24    25    1
    51    52    50    1
    52    86    88   am
    53    32    35    1
    54    32    31    1
    55    96    94   ar
    56    25    26    1
    57    94    93    1
    58    35    36    1
    59    89    90    1
    60    90    93    1
    61    90    91    1
    62    53    54    1
    63    26    27    1
    64    56    55    2
    65    27    28    2
    66    55    54    1
    67    91    92    2
    68    54    57    1
    69    36    37   ar
    70    36    38   ar
    71    28    30    1
    72    28    29    1
    73    57    58    1
    74   104   103    2
    75    58    60   ar
    76    58    59   ar
    77   103   102    1
    78   112   111    1
    79   101   102    1
    80     4     3    2
    81     1     2    1
    82   109   111   ar
    83   109   107   ar
    84   111   110   ar
    85    17    16    1
    86    17    19    1
    87   102   105    1
    88   107   106   ar
    89     5     2    1
    90     5     6    1
    91   110   108   ar
    92    16    18    1
    93    16    13    1
    94     3     2    1
    95     3    12   am
    96   106   108   ar
    97   106   105    1
    98     6     7    1
    99    15    14    2
   100     7     8    1
   101    10     9    1
   102    12    13    1
   103    13    14    1
   104     8     9    2
   105   118   117    1
   106     9    11    1
   107   119   117    1
   108   127   126   ar
   109   114   117    1
   110   114   113    1
   111   114   115    1
   112   162   161    1
   113   125   126    1
   114   125   124    1
   115   160   161   ar
   116   160   158   ar
   117   126   128   ar
   118   166   165    2
   119   115   116    2
   120   161   159   ar
   121   182   181   ar
   122   182   180   ar
   123   181   179   ar
   124   158   156   ar
   125   172   171    2
   126   180   178   ar
   127   121   124    1
   128   121   120    1
   129   121   122    1
   130   179   176   ar
   131   167   164    1
   132   167   168    1
   133   165   164    1
   134   165   169   am
   135   138   137    1
   136   159   157   ar
   137   139   137    1
   138   156   157   ar
   139   156   155    1
   140   164   163    1
   141   171   170    1
   142   178   176   ar
   143   178   177   ar
   144   176   174   ar
   145   170   169    1
   146   170   173    1
   147   137   136    2
   148   149   148    1
   149   155   152    1
   150   122   123    2
   151   177   175   ar
   152   150   148    1
   153   174   175   ar
   154   174   173    1
   155   136   135    1
   156   148   147    2
   157   135   134    1
   158   152   151    1
   159   152   153    1
   160   147   146    1
   161   153   154    2
   162   134   133    1
   163   132   131    2
   164   133   130    1
   165   146   145    1
   166   131   130    1
   167   129   130    1
   168   145   144    1
   169   144   141    1
   170   141   140    1
   171   141   142    1
   172   143   142    2
