@<TRIPOS>MOLECULE
tmp/4fpjA00.pdb
 190 180 0 0 0
SMALL
GASTEIGER

@<TRIPOS>ATOM
      1  N          3.1480  -14.1940  -35.3960 N.3   207  ARG207     -0.1231
      2  CA         2.2080  -13.5400  -34.4950 C.3   207  ARG207      0.1694
      3  C          0.9110  -14.3330  -34.4800 C.2   207  ARG207      0.2591
      4  O          0.6850  -15.1790  -35.3380 O.2   207  ARG207     -0.2718
      5  CB         1.9480  -12.0830  -34.9190 C.3   207  ARG207      0.0321
      6  CG         2.9940  -11.0380  -34.4220 C.3   207  ARG207      0.0489
      7  CD         2.3370   -9.6500  -34.1760 C.3   207  ARG207      0.2205
      8  NE         1.2260   -9.7330  -33.2300 N.pl3 207  ARG207     -0.0865
      9  CZ         0.3800   -8.7360  -32.9640 C.cat 207  ARG207      0.5346
     10  NH1        0.5150   -7.5500  -33.5590 N.pl3 207  ARG207      0.1354
     11  NH2       -0.5970   -8.9210  -32.0850 N.pl3 207  ARG207      0.1354
     12  N          0.0530  -14.0310  -33.5150 N.am  208  ILE208     -0.1980
     13  CA        -1.2970  -14.5970  -33.4700 C.3   208  ILE208      0.1595
     14  C         -1.3110  -16.1240  -33.3270 C.2   208  ILE208      0.2287
     15  O         -1.7520  -16.8340  -34.2270 O.2   208  ILE208     -0.2864
     16  CB        -2.1740  -14.1620  -34.6870 C.3   208  ILE208      0.0276
     17  CG1       -1.7940  -12.7590  -35.2070 C.3   208  ILE208      0.0022
     18  CG2       -3.6260  -14.1630  -34.2980 C.3   208  ILE208      0.0022
     19  CD1       -2.1960  -11.6050  -34.2900 C.3   208  ILE208      0.0001
     20  N          4.6770  -14.5070  -40.5280 N.3   226  ARG226     -0.1245
     21  CA         4.7990  -13.1330  -41.0310 C.3   226  ARG226      0.1563
     22  C          6.1720  -12.8350  -41.6210 C.2   226  ARG226      0.2260
     23  O          7.1930  -12.8940  -40.9400 O.2   226  ARG226     -0.2867
     24  CB         4.4310  -12.1290  -39.9310 C.3   226  ARG226      0.0307
     25  CG         2.9770  -12.2860  -39.4230 C.3   226  ARG226      0.0489
     26  CD         2.4890  -11.0460  -38.6890 C.3   226  ARG226      0.2205
     27  NE         1.0550  -11.0930  -38.3850 N.pl3 226  ARG226     -0.0865
     28  CZ         0.3870  -10.1000  -37.8090 C.cat 226  ARG226      0.5346
     29  NH1        1.0160   -8.9860  -37.4670 N.pl3 226  ARG226      0.1354
     30  NH2       -0.9000  -10.2240  -37.5730 N.pl3 226  ARG226      0.1354
     31  N          1.0260   -6.0710  -39.2820 N.3   232  ASP232     -0.1225
     32  CA        -0.2430   -6.6320  -39.7910 C.3   232  ASP232      0.1805
     33  C         -0.2650   -6.3950  -41.2960 C.2   232  ASP232      0.2598
     34  O          0.4460   -5.5200  -41.7940 O.2   232  ASP232     -0.2718
     35  CB        -1.4860   -5.9260  -39.2170 C.3   232  ASP232      0.1424
     36  CG        -1.7370   -6.2260  -37.7430 C.2   232  ASP232      0.3668
     37  OD1       -2.5990   -5.5350  -37.1580 O.co2 232  ASP232     -0.2456
     38  OD2       -1.1010   -7.1330  -37.1740 O.co2 232  ASP232     -0.2456
     39  N         -1.0760   -7.1610  -42.0200 N.am  233  SER233     -0.1952
     40  CA        -1.4210   -6.7960  -43.4000 C.3   233  SER233      0.1924
     41  C         -1.6330   -5.2670  -43.5160 C.2   233  SER233      0.2314
     42  O         -2.2280   -4.6740  -42.6220 O.2   233  SER233     -0.2863
     43  CB        -2.6980   -7.5120  -43.8200 C.3   233  SER233      0.2116
     44  OG        -2.5540   -8.9190  -43.7430 O.3   233  SER233     -0.2180
     45  N         -4.4660  -13.3860  -42.4460 N.3   288  ILE288     -0.1231
     46  CA        -4.1850  -12.8870  -41.1020 C.3   288  ILE288      0.1692
     47  C         -5.2730  -13.3390  -40.1390 C.2   288  ILE288      0.2592
     48  O         -6.4300  -13.4880  -40.5440 O.2   288  ILE288     -0.2718
     49  CB        -3.9680  -11.3340  -41.1010 C.3   288  ILE288      0.0266
     50  CG1       -3.6000  -10.8100  -39.7150 C.3   288  ILE288      0.0019
     51  CG2       -5.1740  -10.5830  -41.6840 C.3   288  ILE288      0.0020
     52  CD1       -3.2020   -9.3320  -39.7580 C.3   288  ILE288      0.0001
     53  N         -4.8880  -13.6010  -38.8880 N.am  289  ASP289     -0.1974
     54  CA        -5.8130  -14.0500  -37.8410 C.3   289  ASP289      0.1709
     55  C         -6.5170  -15.3800  -38.1590 C.2   289  ASP289      0.2293
     56  O         -7.5650  -15.4010  -38.8080 O.2   289  ASP289     -0.2864
     57  CB        -6.8770  -12.9890  -37.5520 C.3   289  ASP289      0.1436
     58  CG        -6.2980  -11.7040  -36.9630 C.2   289  ASP289      0.3671
     59  OD1       -5.1260  -11.7050  -36.5330 O.co2 289  ASP289     -0.2456
     60  OD2       -7.0310  -10.6910  -36.9250 O.co2 289  ASP289     -0.2456
     61  N         -8.6910  -14.5620  -41.9360 N.3   306  ASP306     -0.1239
     62  CA        -9.0020  -13.4410  -42.8300 C.3   306  ASP306      0.1674
     63  C         -8.1420  -13.5380  -44.0910 C.2   306  ASP306      0.2266
     64  O         -6.9950  -13.9920  -44.0330 O.2   306  ASP306     -0.2867
     65  CB        -8.7070  -12.0810  -42.1710 C.3   306  ASP306      0.1410
     66  CG        -9.5370  -11.8160  -40.9270 C.2   306  ASP306      0.3668
     67  OD1      -10.6460  -12.3740  -40.7880 O.co2 306  ASP306     -0.2456
     68  OD2       -9.0800  -11.0030  -40.0890 O.co2 306  ASP306     -0.2456
     69  N         -6.6620  -11.1550  -47.4200 N.3   308  MET308     -0.1245
     70  CA        -6.4370   -9.8100  -47.9380 C.3   308  MET308      0.1570
     71  C         -5.8360   -9.9020  -49.3390 C.2   308  MET308      0.2261
     72  O         -4.8080  -10.5640  -49.5310 O.2   308  MET308     -0.2867
     73  CB        -5.4420   -9.0750  -47.0400 C.3   308  MET308      0.0387
     74  CG        -5.7650   -9.1090  -45.5660 C.3   308  MET308      0.0595
     75  SD        -6.8430   -7.7530  -45.1260 S.3   308  MET308     -0.1393
     76  CE        -7.7050   -8.5000  -43.7460 C.3   308  MET308      0.0692
     77  N         -4.9830   -4.1580  -46.2420 N.3   313  GLY313     -0.1210
     78  CA        -5.1300   -4.4130  -44.8170 C.3   313  GLY313      0.1956
     79  C         -6.3990   -3.7350  -44.3190 C.2   313  GLY313      0.2612
     80  O         -7.1980   -3.2520  -45.1260 O.2   313  GLY313     -0.2717
     81  N         -6.5770   -3.6770  -43.0030 N.am  314  ASN314     -0.1960
     82  CA        -7.7740   -3.0800  -42.4160 C.3   314  ASN314      0.1819
     83  C         -7.8940   -1.5690  -42.6330 C.2   314  ASN314      0.2621
     84  O         -8.9970   -1.0220  -42.6290 O.2   314  ASN314     -0.2715
     85  CB        -7.8510   -3.4000  -40.9210 C.3   314  ASN314      0.1195
     86  CG        -6.7100   -2.7860  -40.1350 C.2   314  ASN314      0.2630
     87  OD1       -6.2310   -1.6990  -40.4580 O.2   314  ASN314     -0.2716
     88  ND2       -6.2670   -3.4820  -39.0940 N.am  314  ASN314     -0.0877
     89  N         -6.7590   -0.9020  -42.8180 N.am  315  ASN315     -0.1972
     90  CA        -6.7340    0.5480  -42.9820 C.3   315  ASN315      0.1688
     91  C         -7.2120    1.0090  -44.3570 C.2   315  ASN315      0.2292
     92  O         -7.8360    2.0620  -44.4850 O.2   315  ASN315     -0.2864
     93  CB        -5.3300    1.0920  -42.7070 C.3   315  ASN315      0.1181
     94  CG        -4.9470    1.0010  -41.2430 C.2   315  ASN315      0.2629
     95  OD1       -5.8080    0.9780  -40.3640 O.2   315  ASN315     -0.2716
     96  ND2       -3.6470    0.9470  -40.9740 N.am  315  ASN315     -0.0877
     97  N        -14.3900   -9.3550  -39.1480 N.3   451  TYR451     -0.1241
     98  CA       -13.0340   -9.7930  -38.8480 C.3   451  TYR451      0.1605
     99  C        -13.0140  -11.0110  -37.9330 C.2   451  TYR451      0.2264
    100  O        -13.6090  -10.9950  -36.8630 O.2   451  TYR451     -0.2867
    101  CB       -12.2600   -8.6480  -38.2060 C.3   451  TYR451      0.0534
    102  CG       -12.0490   -7.4880  -39.1410 C.ar  451  TYR451     -0.0201
    103  CD1      -11.0220   -7.5130  -40.0750 C.ar  451  TYR451     -0.0009
    104  CD2      -12.8730   -6.3720  -39.0920 C.ar  451  TYR451     -0.0009
    105  CE1      -10.8160   -6.4630  -40.9340 C.ar  451  TYR451      0.0417
    106  CE2      -12.6750   -5.3060  -39.9480 C.ar  451  TYR451      0.0417
    107  CZ       -11.6420   -5.3640  -40.8700 C.ar  451  TYR451      0.1957
    108  OH       -11.4150   -4.3220  -41.7400 O.3   451  TYR451     -0.2866
    109  N        -15.8780  -10.0800  -35.3960 N.3   471  TYR471     -0.1241
    110  CA       -16.3110   -8.7510  -34.9640 C.3   471  TYR471      0.1605
    111  C        -16.3920   -7.7490  -36.1180 C.2   471  TYR471      0.2264
    112  O        -15.7240   -7.8890  -37.1470 O.2   471  TYR471     -0.2867
    113  CB       -15.3960   -8.1920  -33.8600 C.3   471  TYR471      0.0534
    114  CG       -13.9600   -7.9510  -34.3060 C.ar  471  TYR471     -0.0201
    115  CD1      -13.5390   -6.6920  -34.7330 C.ar  471  TYR471     -0.0009
    116  CD2      -13.0280   -8.9790  -34.2790 C.ar  471  TYR471     -0.0009
    117  CE1      -12.2210   -6.4680  -35.1360 C.ar  471  TYR471      0.0417
    118  CE2      -11.7130   -8.7720  -34.6700 C.ar  471  TYR471      0.0417
    119  CZ       -11.3190   -7.5150  -35.1060 C.ar  471  TYR471      0.1957
    120  OH       -10.0080   -7.3120  -35.4990 O.3   471  TYR471     -0.2866
    121  N        -11.6340   -3.2660  -31.8530 N.3   501  THR501     -0.1218
    122  CA       -11.0230   -4.5320  -32.2150 C.3   501  THR501      0.1862
    123  C        -11.5220   -5.5300  -31.1790 C.2   501  THR501      0.2287
    124  O        -10.8040   -5.8940  -30.2540 O.2   501  THR501     -0.2866
    125  CB        -9.4900   -4.4060  -32.1870 C.3   501  THR501      0.1770
    126  OG1       -9.1060   -3.3240  -33.0450 O.3   501  THR501     -0.2211
    127  CG2       -8.8050   -5.6930  -32.6550 C.3   501  THR501      0.0375
    128  N        -11.8780   -8.5920  -30.3090 N.3   503  GLU503     -0.1245
    129  CA       -11.4870   -9.9920  -30.4110 C.3   503  GLU503      0.1567
    130  C        -12.1140  -10.7750  -29.2650 C.2   503  GLU503      0.2260
    131  O        -11.9650  -10.4090  -28.0860 O.2   503  GLU503     -0.2867
    132  CB        -9.9600  -10.1280  -30.4460 C.3   503  GLU503      0.0388
    133  CG        -9.3370   -9.4880  -31.7070 C.3   503  GLU503      0.1160
    134  CD        -7.8990   -9.0450  -31.5040 C.2   503  GLU503      0.3649
    135  OE1       -7.1510   -8.9260  -32.5130 O.co2 503  GLU503     -0.2457
    136  OE2       -7.5180   -8.8070  -30.3380 O.co2 503  GLU503     -0.2457
    137  N        -12.1310   -8.3390  -26.0100 N.3   519  ARG519     -0.1245
    138  CA       -11.3310   -7.1170  -25.9630 C.3   519  ARG519      0.1563
    139  C        -12.2020   -5.9010  -26.2450 C.2   519  ARG519      0.2260
    140  O        -13.0560   -5.9430  -27.1240 O.2   519  ARG519     -0.2867
    141  CB       -10.2480   -7.2210  -27.0430 C.3   519  ARG519      0.0307
    142  CG        -9.3710   -6.0090  -27.2200 C.3   519  ARG519      0.0489
    143  CD        -8.3730   -6.2870  -28.3180 C.3   519  ARG519      0.2205
    144  NE        -7.6610   -5.0870  -28.7360 N.pl3 519  ARG519     -0.0865
    145  CZ        -6.6740   -5.0910  -29.6170 C.cat 519  ARG519      0.5346
    146  NH1       -6.2780   -6.2380  -30.1570 N.pl3 519  ARG519      0.1354
    147  NH2       -6.0780   -3.9520  -29.9400 N.pl3 519  ARG519      0.1354
    148  N          1.4540   -4.1190  -23.0510 N.3   581  ARG581     -0.1245
    149  CA         1.1990   -5.5530  -23.1480 C.3   581  ARG581      0.1563
    150  C          2.2930   -6.2950  -22.3830 C.2   581  ARG581      0.2260
    151  O          3.3030   -6.7200  -22.9410 O.2   581  ARG581     -0.2867
    152  CB         1.0920   -5.9910  -24.6180 C.3   581  ARG581      0.0307
    153  CG        -0.1210   -5.3860  -25.3320 C.3   581  ARG581      0.0489
    154  CD        -0.3010   -5.8980  -26.7460 C.3   581  ARG581      0.2205
    155  NE        -1.6370   -5.5910  -27.2780 N.pl3 581  ARG581     -0.0865
    156  CZ        -1.9560   -5.6420  -28.5670 C.cat 581  ARG581      0.5346
    157  NH1       -1.0370   -5.9920  -29.4680 N.pl3 581  ARG581      0.1354
    158  NH2       -3.1810   -5.3370  -28.9550 N.pl3 581  ARG581      0.1354
    159  N         -0.6780  -11.3600  -27.4090 N.3   615  TYR615     -0.1241
    160  CA        -1.6950  -12.3200  -27.8340 C.3   615  TYR615      0.1605
    161  C         -1.3200  -13.6840  -27.2850 C.2   615  TYR615      0.2264
    162  O         -0.1360  -13.9780  -27.0910 O.2   615  TYR615     -0.2867
    163  CB        -1.8150  -12.3850  -29.3590 C.3   615  TYR615      0.0534
    164  CG        -2.6770  -11.2990  -29.9870 C.ar  615  TYR615     -0.0201
    165  CD1       -2.5730   -9.9750  -29.5750 C.ar  615  TYR615     -0.0009
    166  CD2       -3.5630  -11.5980  -31.0100 C.ar  615  TYR615     -0.0009
    167  CE1       -3.3360   -8.9740  -30.1630 C.ar  615  TYR615      0.0417
    168  CE2       -4.3340  -10.6100  -31.6110 C.ar  615  TYR615      0.0417
    169  CZ        -4.2120   -9.2940  -31.1810 C.ar  615  TYR615      0.1957
    170  OH        -4.9650   -8.2940  -31.7680 O.3   615  TYR615     -0.2866
    171  N          3.5920   -6.5190  -28.4210 N.3   635  SER635     -0.1202
    172  CA         3.3350   -6.4500  -29.8580 C.3   635  SER635      0.2020
    173  C          2.5730   -5.1860  -30.2790 C.2   635  SER635      0.2618
    174  O          2.1850   -5.0410  -31.4460 O.2   635  SER635     -0.2717
    175  CB         2.5980   -7.7000  -30.3290 C.3   635  SER635      0.2103
    176  OG         1.3550   -7.8180  -29.6700 O.3   635  SER635     -0.2182
    177  N          2.3310   -4.2820  -29.3360 N.am  636  TRP636     -0.1975
    178  CA         1.7840   -2.9590  -29.6760 C.3   636  TRP636      0.1640
    179  C          2.9270   -1.9660  -29.8340 C.2   636  TRP636      0.2290
    180  O          2.9100   -1.0990  -30.7160 O.2   636  TRP636     -0.2864
    181  CB         0.8280   -2.4610  -28.5800 C.3   636  TRP636      0.0576
    182  CG         0.0850   -1.1910  -28.9500 C.ar  636  TRP636      0.0006
    183  CD1        0.4250    0.1030  -28.6150 C.ar  636  TRP636      0.0946
    184  CD2       -1.1120   -1.1020  -29.7280 C.ar  636  TRP636      0.0152
    185  NE1       -0.5000    0.9830  -29.1430 N.ar  636  TRP636     -0.2442
    186  CE2       -1.4530    0.2710  -29.8240 C.ar  636  TRP636      0.0810
    187  CE3       -1.9390   -2.0450  -30.3560 C.ar  636  TRP636      0.0012
    188  CZ2       -2.5820    0.7110  -30.5170 C.ar  636  TRP636      0.0191
    189  CZ3       -3.0450   -1.6120  -31.0350 C.ar  636  TRP636      0.0001
    190  CH2       -3.3650   -0.2440  -31.1150 C.ar  636  TRP636      0.0015
@<TRIPOS>BOND
     1    72    71    2
     2    71    70    1
     3    70    69    1
     4    70    73    1
     5    73    74    1
     6    77    78    1
     7    74    75    1
     8    75    76    1
     9    80    79    2
    10    78    79    1
    11    92    91    2
    12    91    90    1
    13    79    81   am
    14    63    64    2
    15    63    62    1
    16    43    44    1
    17    43    40    1
    18    41    40    1
    19    41    42    2
    20    40    39    1
    21    81    82    1
    22    90    89    1
    23    90    93    1
    24    62    65    1
    25    62    61    1
    26    89    83   am
    27    93    94    1
    28    83    84    2
    29    83    82    1
    30    45    46    1
    31    82    85    1
    32    65    66    1
    33    39    33   am
    34    34    33    2
    35   108   107    1
    36    51    49    1
    37    22    21    1
    38    22    23    2
    39    33    32    1
    40    94    96   am
    41    94    95    2
    42    46    49    1
    43    46    47    1
    44    49    50    1
    45    21    20    1
    46    21    24    1
    47   105   107   ar
    48   105   103   ar
    49    66    67   ar
    50    66    68   ar
    51    85    86    1
    52   107   106   ar
    53    48    47    2
    54    87    86    2
    55    47    53   am
    56    86    88   am
    57   103   102   ar
    58   106   104   ar
    59    24    25    1
    60    32    31    1
    61    32    35    1
    62    52    50    1
    63    25    26    1
    64    35    36    1
    65    97    98    1
    66   102   104   ar
    67   102   101    1
    68    53    54    1
    69    98   101    1
    70    98    99    1
    71    56    55    2
    72    26    27    1
    73    27    28    2
    74    55    54    1
    75    99   100    2
    76    54    57    1
    77    28    30    1
    78    28    29    1
    79    36    38   ar
    80    36    37   ar
    81    57    58    1
    82   112   111    2
    83    58    60   ar
    84    58    59   ar
    85   111   110    1
    86   120   119    1
    87   109   110    1
    88     1     2    1
    89     4     3    2
    90    17    16    1
    91    17    19    1
    92   117   119   ar
    93   117   115   ar
    94   119   118   ar
    95   110   113    1
    96     5     2    1
    97     5     6    1
    98   115   114   ar
    99    16    18    1
   100    16    13    1
   101   118   116   ar
   102     2     3    1
   103     3    12   am
   104     6     7    1
   105   114   116   ar
   106   114   113    1
   107    15    14    2
   108     7     8    1
   109    10     9    1
   110    12    13    1
   111    13    14    1
   112     8     9    2
   113   126   125    1
   114     9    11    1
   115   127   125    1
   116   135   134   ar
   117   122   125    1
   118   122   121    1
   119   122   123    1
   120   170   169    1
   121   133   134    1
   122   133   132    1
   123   168   169   ar
   124   168   166   ar
   125   134   136   ar
   126   174   173    2
   127   169   167   ar
   128   123   124    2
   129   190   189   ar
   130   190   188   ar
   131   189   187   ar
   132   166   164   ar
   133   180   179    2
   134   188   186   ar
   135   132   129    1
   136   129   128    1
   137   129   130    1
   138   187   184   ar
   139   175   172    1
   140   175   176    1
   141   173   172    1
   142   173   177   am
   143   167   165   ar
   144   146   145    1
   145   164   165   ar
   146   164   163    1
   147   147   145    1
   148   172   171    1
   149   179   178    1
   150   186   184   ar
   151   186   185   ar
   152   184   182   ar
   153   178   177    1
   154   178   181    1
   155   145   144    2
   156   157   156    1
   157   163   160    1
   158   130   131    2
   159   185   183   ar
   160   158   156    1
   161   182   183   ar
   162   182   181    1
   163   144   143    1
   164   156   155    2
   165   143   142    1
   166   160   159    1
   167   160   161    1
   168   161   162    2
   169   155   154    1
   170   142   141    1
   171   140   139    2
   172   141   138    1
   173   154   153    1
   174   139   138    1
   175   137   138    1
   176   153   152    1
   177   152   149    1
   178   149   148    1
   179   149   150    1
   180   151   150    2
