@<TRIPOS>MOLECULE
tmp/4fpkA00.pdb
 190 179 0 0 0
SMALL
GASTEIGER

@<TRIPOS>ATOM
      1  N          3.1620  -14.2320  -35.4030 N.3   207  ARG207     -0.1231
      2  CA         2.2030  -13.5760  -34.5280 C.3   207  ARG207      0.1694
      3  C          0.8770  -14.3330  -34.5160 C.2   207  ARG207      0.2591
      4  O          0.6250  -15.1840  -35.3710 O.2   207  ARG207     -0.2718
      5  CB         1.9730  -12.1140  -34.9550 C.3   207  ARG207      0.0321
      6  CG         2.9890  -11.1080  -34.3920 C.3   207  ARG207      0.0489
      7  CD         2.3500   -9.7170  -34.1570 C.3   207  ARG207      0.2205
      8  NE         1.1930   -9.7700  -33.2610 N.pl3 207  ARG207     -0.0865
      9  CZ         0.4020   -8.7380  -32.9890 C.cat 207  ARG207      0.5346
     10  NH1        0.6370   -7.5460  -33.5360 N.pl3 207  ARG207      0.1354
     11  NH2       -0.6290   -8.8940  -32.1620 N.pl3 207  ARG207      0.1354
     12  N          0.0360  -14.0080  -33.5390 N.am  208  ILE208     -0.1980
     13  CA        -1.3250  -14.5290  -33.4680 C.3   208  ILE208      0.1595
     14  C         -1.3630  -16.0630  -33.3330 C.2   208  ILE208      0.2287
     15  O         -1.8590  -16.7590  -34.2250 O.2   208  ILE208     -0.2864
     16  CB        -2.1840  -14.0840  -34.6960 C.3   208  ILE208      0.0276
     17  CG1       -1.8390  -12.6580  -35.1770 C.3   208  ILE208      0.0022
     18  CG2       -3.6310  -14.1740  -34.3730 C.3   208  ILE208      0.0022
     19  CD1       -2.1030  -11.5240  -34.1760 C.3   208  ILE208      0.0001
     20  N          4.7150  -14.4660  -40.4130 N.3   226  ARG226     -0.1245
     21  CA         4.8810  -13.1110  -40.9460 C.3   226  ARG226      0.1563
     22  C          6.2620  -12.8590  -41.5490 C.2   226  ARG226      0.2260
     23  O          7.3000  -12.9910  -40.8890 O.2   226  ARG226     -0.2867
     24  CB         4.4800  -12.0510  -39.9080 C.3   226  ARG226      0.0307
     25  CG         3.0090  -12.1810  -39.4880 C.3   226  ARG226      0.0489
     26  CD         2.4850  -10.9370  -38.7870 C.3   226  ARG226      0.2205
     27  NE         1.0660  -11.0610  -38.4420 N.pl3 226  ARG226     -0.0865
     28  CZ         0.3470  -10.1060  -37.8450 C.cat 226  ARG226      0.5346
     29  NH1        0.9010   -8.9410  -37.5070 N.pl3 226  ARG226      0.1354
     30  NH2       -0.9330  -10.3120  -37.5800 N.pl3 226  ARG226      0.1354
     31  N          0.9920   -6.0850  -39.3010 N.3   232  ASP232     -0.1225
     32  CA        -0.3070   -6.5370  -39.8400 C.3   232  ASP232      0.1805
     33  C         -0.3250   -6.2690  -41.3460 C.2   232  ASP232      0.2598
     34  O          0.3630   -5.3660  -41.8190 O.2   232  ASP232     -0.2718
     35  CB        -1.4610   -5.7350  -39.2100 C.3   232  ASP232      0.1424
     36  CG        -1.8180   -6.1870  -37.7800 C.2   232  ASP232      0.3668
     37  OD1       -2.8230   -5.6850  -37.2340 O.co2 232  ASP232     -0.2456
     38  OD2       -1.1210   -7.0320  -37.1920 O.co2 232  ASP232     -0.2456
     39  N         -1.0950   -7.0330  -42.1090 N.am  233  SER233     -0.1952
     40  CA        -1.3010   -6.6760  -43.5220 C.3   233  SER233      0.1924
     41  C         -1.6060   -5.1690  -43.6790 C.2   233  SER233      0.2314
     42  O         -2.4140   -4.6340  -42.9320 O.2   233  SER233     -0.2863
     43  CB        -2.4290   -7.5120  -44.1320 C.3   233  SER233      0.2116
     44  OG        -2.0630   -8.8770  -44.2030 O.3   233  SER233     -0.2180
     45  N         -4.4110  -13.3830  -42.4010 N.3   288  ILE288     -0.1231
     46  CA        -4.1260  -12.8670  -41.0620 C.3   288  ILE288      0.1692
     47  C         -5.2200  -13.3480  -40.1180 C.2   288  ILE288      0.2592
     48  O         -6.3780  -13.4200  -40.5110 O.2   288  ILE288     -0.2718
     49  CB        -3.9840  -11.3040  -41.0430 C.3   288  ILE288      0.0266
     50  CG1       -3.7530  -10.7680  -39.6260 C.3   288  ILE288      0.0019
     51  CG2       -5.1810  -10.6200  -41.6850 C.3   288  ILE288      0.0020
     52  CD1       -3.4650   -9.2750  -39.6120 C.3   288  ILE288      0.0001
     53  N         -4.8440  -13.7190  -38.8970 N.am  289  ASP289     -0.1974
     54  CA        -5.8060  -14.1590  -37.8830 C.3   289  ASP289      0.1709
     55  C         -6.5010  -15.5030  -38.1790 C.2   289  ASP289      0.2293
     56  O         -7.5790  -15.5530  -38.7680 O.2   289  ASP289     -0.2864
     57  CB        -6.8480  -13.0630  -37.6000 C.3   289  ASP289      0.1436
     58  CG        -6.2350  -11.8490  -36.9770 C.2   289  ASP289      0.3671
     59  OD1       -5.0340  -11.9220  -36.6370 O.co2 289  ASP289     -0.2456
     60  OD2       -6.9380  -10.8350  -36.8220 O.co2 289  ASP289     -0.2456
     61  N         -8.6830  -14.5200  -41.9260 N.3   306  ASP306     -0.1239
     62  CA        -8.9620  -13.3750  -42.7920 C.3   306  ASP306      0.1674
     63  C         -8.0950  -13.4870  -44.0460 C.2   306  ASP306      0.2266
     64  O         -6.9900  -14.0180  -43.9920 O.2   306  ASP306     -0.2867
     65  CB        -8.6860  -12.0480  -42.0780 C.3   306  ASP306      0.1410
     66  CG        -9.5630  -11.8380  -40.8500 C.2   306  ASP306      0.3668
     67  OD1      -10.7630  -12.1870  -40.8740 O.co2 306  ASP306     -0.2456
     68  OD2       -9.0510  -11.3110  -39.8460 O.co2 306  ASP306     -0.2456
     69  N         -6.6680  -11.1100  -47.4910 N.3   308  MET308     -0.1245
     70  CA        -6.5200   -9.7800  -48.0700 C.3   308  MET308      0.1570
     71  C         -5.8430   -9.8690  -49.4250 C.2   308  MET308      0.2261
     72  O         -4.8080  -10.5190  -49.5570 O.2   308  MET308     -0.2867
     73  CB        -5.6980   -8.8820  -47.1410 C.3   308  MET308      0.0387
     74  CG        -5.9810   -9.1050  -45.6540 C.3   308  MET308      0.0595
     75  SD        -6.1300   -7.5950  -44.6890 S.3   308  MET308     -0.1393
     76  CE        -7.5190   -6.8390  -45.5220 C.3   308  MET308      0.0692
     77  N         -4.8350   -3.9430  -46.6410 N.3   313  GLY313     -0.1210
     78  CA        -4.9140   -4.2770  -45.2260 C.3   313  GLY313      0.1956
     79  C         -6.1260   -3.6610  -44.5390 C.2   313  GLY313      0.2611
     80  O         -7.1850   -3.5270  -45.1460 O.2   313  GLY313     -0.2717
     81  N         -5.9620   -3.2880  -43.2700 N.am  314  ASN314     -0.1974
     82  CA        -7.0280   -2.6800  -42.4700 C.3   314  ASN314      0.1688
     83  C         -7.2950   -1.2360  -42.9020 C.2   314  ASN314      0.2292
     84  O         -8.4540   -0.8300  -43.0450 O.2   314  ASN314     -0.2864
     85  CB        -6.6590   -2.7290  -40.9770 C.3   314  ASN314      0.1181
     86  CG        -7.8480   -2.4690  -40.0540 C.2   314  ASN314      0.2629
     87  OD1       -8.7170   -1.6500  -40.3530 O.2   314  ASN314     -0.2716
     88  ND2       -7.8780   -3.1640  -38.9130 N.am  314  ASN314     -0.0877
     89  N        -11.3980   -6.8770  -46.9230 N.3   419  ASN419     -0.1240
     90  CA       -11.1380   -8.1000  -46.1720 C.3   419  ASN419      0.1653
     91  C        -12.2260   -9.1500  -46.3660 C.2   419  ASN419      0.2266
     92  O        -13.4210   -8.8350  -46.3540 O.2   419  ASN419     -0.2867
     93  CB       -10.9720   -7.7970  -44.6850 C.3   419  ASN419      0.1155
     94  CG       -12.2180   -7.1970  -44.0780 C.2   419  ASN419      0.2627
     95  OD1      -12.6290   -6.0900  -44.4390 O.2   419  ASN419     -0.2716
     96  ND2      -12.8330   -7.9250  -43.1470 N.am  419  ASN419     -0.0877
     97  N        -14.5090   -9.3800  -39.0950 N.3   451  TYR451     -0.1241
     98  CA       -13.1260   -9.7150  -38.7850 C.3   451  TYR451      0.1605
     99  C        -13.0710  -10.9030  -37.8490 C.2   451  TYR451      0.2264
    100  O        -13.6740  -10.8820  -36.7800 O.2   451  TYR451     -0.2867
    101  CB       -12.4240   -8.5230  -38.1340 C.3   451  TYR451      0.0534
    102  CG       -12.0740   -7.4360  -39.1140 C.ar  451  TYR451     -0.0201
    103  CD1      -10.9500   -7.5460  -39.9210 C.ar  451  TYR451     -0.0009
    104  CD2      -12.8660   -6.3020  -39.2410 C.ar  451  TYR451     -0.0009
    105  CE1      -10.6220   -6.5560  -40.8300 C.ar  451  TYR451      0.0417
    106  CE2      -12.5470   -5.3110  -40.1450 C.ar  451  TYR451      0.0417
    107  CZ       -11.4250   -5.4420  -40.9390 C.ar  451  TYR451      0.1957
    108  OH       -11.0970   -4.4560  -41.8440 O.3   451  TYR451     -0.2866
    109  N        -15.8860  -10.0550  -35.3910 N.3   471  TYR471     -0.1241
    110  CA       -16.3240   -8.7340  -34.9740 C.3   471  TYR471      0.1605
    111  C        -16.4070   -7.7490  -36.1280 C.2   471  TYR471      0.2264
    112  O        -15.7660   -7.9160  -37.1640 O.2   471  TYR471     -0.2867
    113  CB       -15.4080   -8.1790  -33.8850 C.3   471  TYR471      0.0534
    114  CG       -13.9720   -7.9320  -34.3120 C.ar  471  TYR471     -0.0201
    115  CD1      -13.5490   -6.6630  -34.7220 C.ar  471  TYR471     -0.0009
    116  CD2      -13.0370   -8.9610  -34.2850 C.ar  471  TYR471     -0.0009
    117  CE1      -12.2210   -6.4270  -35.0970 C.ar  471  TYR471      0.0417
    118  CE2      -11.7180   -8.7450  -34.6520 C.ar  471  TYR471      0.0417
    119  CZ       -11.3110   -7.4790  -35.0600 C.ar  471  TYR471      0.1957
    120  OH        -9.9970   -7.2850  -35.4260 O.3   471  TYR471     -0.2866
    121  N        -11.6000   -3.1650  -31.8490 N.3   501  THR501     -0.1218
    122  CA       -11.0080   -4.4380  -32.2200 C.3   501  THR501      0.1862
    123  C        -11.4640   -5.4370  -31.1690 C.2   501  THR501      0.2287
    124  O        -10.7740   -5.6530  -30.1740 O.2   501  THR501     -0.2866
    125  CB        -9.4700   -4.3790  -32.2450 C.3   501  THR501      0.1770
    126  OG1       -9.0470   -3.3080  -33.0920 O.3   501  THR501     -0.2211
    127  CG2       -8.8930   -5.6910  -32.7720 C.3   501  THR501      0.0375
    128  N        -11.7920   -8.6750  -30.3500 N.3   503  GLU503     -0.1245
    129  CA       -11.4170  -10.0780  -30.4430 C.3   503  GLU503      0.1567
    130  C        -12.0240  -10.8340  -29.2640 C.2   503  GLU503      0.2260
    131  O        -11.7860  -10.4990  -28.1000 O.2   503  GLU503     -0.2867
    132  CB        -9.8990  -10.2360  -30.4920 C.3   503  GLU503      0.0388
    133  CG        -9.3030   -9.7560  -31.7980 C.3   503  GLU503      0.1160
    134  CD        -7.9300   -9.1480  -31.6160 C.2   503  GLU503      0.3649
    135  OE1       -7.2250   -8.9570  -32.6340 O.co2 503  GLU503     -0.2457
    136  OE2       -7.5710   -8.8580  -30.4550 O.co2 503  GLU503     -0.2457
    137  N        -12.1450   -8.3350  -26.0110 N.3   519  ARG519     -0.1245
    138  CA       -11.3460   -7.1230  -25.9160 C.3   519  ARG519      0.1563
    139  C        -12.1760   -5.8710  -26.2100 C.2   519  ARG519      0.2260
    140  O        -13.0210   -5.8830  -27.0960 O.2   519  ARG519     -0.2867
    141  CB       -10.2180   -7.2330  -26.9340 C.3   519  ARG519      0.0307
    142  CG        -9.4510   -5.9720  -27.2250 C.3   519  ARG519      0.0489
    143  CD        -8.3730   -6.2680  -28.2660 C.3   519  ARG519      0.2205
    144  NE        -7.6860   -5.0580  -28.7070 N.pl3 519  ARG519     -0.0865
    145  CZ        -6.7170   -5.0460  -29.6150 C.cat 519  ARG519      0.5346
    146  NH1       -6.3130   -6.1800  -30.1810 N.pl3 519  ARG519      0.1354
    147  NH2       -6.1460   -3.9000  -29.9540 N.pl3 519  ARG519      0.1354
    148  N          1.4050   -4.0490  -23.0030 N.3   581  ARG581     -0.1245
    149  CA         1.1990   -5.4820  -23.1440 C.3   581  ARG581      0.1563
    150  C          2.2760   -6.2360  -22.3900 C.2   581  ARG581      0.2260
    151  O          3.2810   -6.6620  -22.9600 O.2   581  ARG581     -0.2867
    152  CB         1.1460   -5.8690  -24.6230 C.3   581  ARG581      0.0307
    153  CG        -0.1880   -5.4720  -25.2600 C.3   581  ARG581      0.0489
    154  CD        -0.2500   -5.7410  -26.7350 C.3   581  ARG581      0.2205
    155  NE        -1.5850   -5.4860  -27.2830 N.pl3 581  ARG581     -0.0865
    156  CZ        -1.8950   -5.6260  -28.5750 C.cat 581  ARG581      0.5346
    157  NH1       -0.9630   -6.0090  -29.4530 N.pl3 581  ARG581      0.1354
    158  NH2       -3.1260   -5.3800  -29.0020 N.pl3 581  ARG581      0.1354
    159  N         -0.6850  -11.3390  -27.3650 N.3   615  TYR615     -0.1241
    160  CA        -1.6970  -12.3070  -27.7910 C.3   615  TYR615      0.1605
    161  C         -1.3500  -13.6870  -27.2460 C.2   615  TYR615      0.2264
    162  O         -0.1730  -13.9990  -27.0330 O.2   615  TYR615     -0.2867
    163  CB        -1.8100  -12.3750  -29.3170 C.3   615  TYR615      0.0534
    164  CG        -2.6660  -11.2930  -29.9390 C.ar  615  TYR615     -0.0201
    165  CD1       -2.5070   -9.9600  -29.5720 C.ar  615  TYR615     -0.0009
    166  CD2       -3.6170  -11.5950  -30.9100 C.ar  615  TYR615     -0.0009
    167  CE1       -3.2790   -8.9590  -30.1380 C.ar  615  TYR615      0.0417
    168  CE2       -4.3950  -10.5900  -31.4840 C.ar  615  TYR615      0.0417
    169  CZ        -4.2140   -9.2750  -31.0940 C.ar  615  TYR615      0.1957
    170  OH        -4.9630   -8.2610  -31.6500 O.3   615  TYR615     -0.2866
    171  N          3.5840   -6.4740  -28.4540 N.3   635  SER635     -0.1202
    172  CA         3.3190   -6.4570  -29.8850 C.3   635  SER635      0.2020
    173  C          2.5580   -5.1950  -30.2890 C.2   635  SER635      0.2618
    174  O          2.1620   -5.0400  -31.4420 O.2   635  SER635     -0.2717
    175  CB         2.5700   -7.7220  -30.3230 C.3   635  SER635      0.2103
    176  OG         1.2790   -7.8140  -29.7390 O.3   635  SER635     -0.2182
    177  N          2.3350   -4.3100  -29.3220 N.am  636  TRP636     -0.1975
    178  CA         1.7600   -3.0080  -29.6130 C.3   636  TRP636      0.1640
    179  C          2.8770   -1.9730  -29.7360 C.2   636  TRP636      0.2290
    180  O          2.8440   -1.1300  -30.6280 O.2   636  TRP636     -0.2864
    181  CB         0.7540   -2.5770  -28.5390 C.3   636  TRP636      0.0576
    182  CG         0.0490   -1.2960  -28.8970 C.ar  636  TRP636      0.0006
    183  CD1        0.4430   -0.0320  -28.5770 C.ar  636  TRP636      0.0946
    184  CD2       -1.1590   -1.1580  -29.6640 C.ar  636  TRP636      0.0152
    185  NE1       -0.4430    0.8870  -29.0890 N.ar  636  TRP636     -0.2442
    186  CE2       -1.4360    0.2240  -29.7620 C.ar  636  TRP636      0.0810
    187  CE3       -2.0310   -2.0680  -30.2810 C.ar  636  TRP636      0.0012
    188  CZ2       -2.5480    0.7210  -30.4500 C.ar  636  TRP636      0.0191
    189  CZ3       -3.1360   -1.5790  -30.9560 C.ar  636  TRP636      0.0001
    190  CH2       -3.3850   -0.1940  -31.0370 C.ar  636  TRP636      0.0015
@<TRIPOS>BOND
     1    72    71    2
     2    71    70    1
     3    70    69    1
     4    70    73    1
     5    73    74    1
     6    89    90    1
     7    77    78    1
     8    91    92    2
     9    91    90    1
    10    90    93    1
    11    74    75    1
    12    76    75    1
    13    78    79    1
    14    80    79    2
    15    93    94    1
    16    79    81   am
    17    95    94    2
    18    44    43    1
    19    43    40    1
    20    94    96   am
    21    63    64    2
    22    63    62    1
    23    41    40    1
    24    41    42    2
    25    40    39    1
    26    81    82    1
    27    84    83    2
    28    83    82    1
    29    62    65    1
    30    62    61    1
    31    82    85    1
    32    45    46    1
    33    39    33   am
    34    65    66    1
    35   108   107    1
    36    34    33    2
    37    51    49    1
    38    22    21    1
    39    22    23    2
    40    33    32    1
    41    46    49    1
    42    46    47    1
    43    49    50    1
    44    85    86    1
    45    21    20    1
    46    21    24    1
    47   107   105   ar
    48   107   106   ar
    49    67    66   ar
    50    66    68   ar
    51   105   103   ar
    52    48    47    2
    53    87    86    2
    54   106   104   ar
    55    47    53   am
    56    86    88   am
    57   103   102   ar
    58    24    25    1
    59    32    31    1
    60    32    35    1
    61    50    52    1
    62    25    26    1
    63   104   102   ar
    64    35    36    1
    65   102   101    1
    66    97    98    1
    67    53    54    1
    68    26    27    1
    69    98   101    1
    70    98    99    1
    71    56    55    2
    72    27    28    2
    73    55    54    1
    74    54    57    1
    75    99   100    2
    76    28    30    1
    77    28    29    1
    78    36    37   ar
    79    36    38   ar
    80    57    58    1
    81   112   111    2
    82    58    60   ar
    83    58    59   ar
    84   111   110    1
    85   120   119    1
    86     1     2    1
    87   109   110    1
    88     4     3    2
    89    17    16    1
    90    17    19    1
    91   117   119   ar
    92   117   115   ar
    93   119   118   ar
    94   110   113    1
    95     5     2    1
    96     5     6    1
    97   115   114   ar
    98    16    18    1
    99    16    13    1
   100   118   116   ar
   101     2     3    1
   102     3    12   am
   103     6     7    1
   104   114   116   ar
   105   114   113    1
   106    15    14    2
   107     7     8    1
   108    12    13    1
   109    10     9    1
   110    13    14    1
   111     8     9    2
   112   126   125    1
   113     9    11    1
   114   127   125    1
   115   135   134   ar
   116   125   122    1
   117   122   121    1
   118   122   123    1
   119   133   134    1
   120   133   132    1
   121   170   169    1
   122   134   136   ar
   123   168   169   ar
   124   168   166   ar
   125   174   173    2
   126   123   124    2
   127   169   167   ar
   128   190   189   ar
   129   190   188   ar
   130   189   187   ar
   131   166   164   ar
   132   180   179    2
   133   132   129    1
   134   188   186   ar
   135   129   128    1
   136   129   130    1
   137   175   172    1
   138   175   176    1
   139   173   172    1
   140   173   177   am
   141   187   184   ar
   142   146   145    1
   143   167   165   ar
   144   147   145    1
   145   164   165   ar
   146   164   163    1
   147   172   171    1
   148   186   184   ar
   149   186   185   ar
   150   179   178    1
   151   184   182   ar
   152   145   144    2
   153   178   177    1
   154   178   181    1
   155   157   156    1
   156   163   160    1
   157   130   131    2
   158   185   183   ar
   159   158   156    1
   160   182   183   ar
   161   182   181    1
   162   144   143    1
   163   156   155    2
   164   143   142    1
   165   160   159    1
   166   160   161    1
   167   155   154    1
   168   161   162    2
   169   142   141    1
   170   140   139    2
   171   141   138    1
   172   154   153    1
   173   139   138    1
   174   137   138    1
   175   153   152    1
   176   152   149    1
   177   149   148    1
   178   149   150    1
   179   151   150    2
