@<TRIPOS>MOLECULE
tmp/4fplA00.pdb
 190 180 0 0 0
SMALL
GASTEIGER

@<TRIPOS>ATOM
      1  N          3.1350  -14.0530  -35.5500 N.3   207  ARG207     -0.1231
      2  CA         2.2050  -13.4500  -34.6170 C.3   207  ARG207      0.1694
      3  C          0.9020  -14.2290  -34.6460 C.2   207  ARG207      0.2591
      4  O          0.6760  -15.0520  -35.5370 O.2   207  ARG207     -0.2718
      5  CB         1.9490  -11.9840  -34.9720 C.3   207  ARG207      0.0321
      6  CG         2.9860  -10.9810  -34.4370 C.3   207  ARG207      0.0489
      7  CD         2.3510   -9.5750  -34.2810 C.3   207  ARG207      0.2205
      8  NE         1.2470   -9.5950  -33.3200 N.pl3 207  ARG207     -0.0865
      9  CZ         0.4060   -8.5830  -33.1250 C.cat 207  ARG207      0.5346
     10  NH1        0.5460   -7.4450  -33.8160 N.pl3 207  ARG207      0.1354
     11  NH2       -0.5670   -8.7010  -32.2270 N.pl3 207  ARG207      0.1354
     12  N          0.0490  -13.9420  -33.6720 N.am  208  ILE208     -0.1980
     13  CA        -1.3130  -14.4660  -33.6350 C.3   208  ILE208      0.1595
     14  C         -1.3580  -15.9890  -33.4730 C.2   208  ILE208      0.2287
     15  O         -1.8550  -16.6930  -34.3580 O.2   208  ILE208     -0.2864
     16  CB        -2.1480  -14.0230  -34.8770 C.3   208  ILE208      0.0276
     17  CG1       -1.7920  -12.5930  -35.3380 C.3   208  ILE208      0.0022
     18  CG2       -3.6110  -14.0770  -34.5550 C.3   208  ILE208      0.0022
     19  CD1       -2.0680  -11.4890  -34.3020 C.3   208  ILE208      0.0001
     20  N          4.6800  -14.4000  -40.6480 N.3   226  ARG226     -0.1245
     21  CA         4.7840  -13.0420  -41.1730 C.3   226  ARG226      0.1563
     22  C          6.1630  -12.7430  -41.7500 C.2   226  ARG226      0.2260
     23  O          7.1790  -12.8270  -41.0590 O.2   226  ARG226     -0.2867
     24  CB         4.3750  -12.0150  -40.1080 C.3   226  ARG226      0.0307
     25  CG         2.9700  -12.2520  -39.5500 C.3   226  ARG226      0.0489
     26  CD         2.4850  -11.0380  -38.7730 C.3   226  ARG226      0.2205
     27  NE         1.0540  -11.1080  -38.4760 N.pl3 226  ARG226     -0.0865
     28  CZ         0.3560  -10.1100  -37.9350 C.cat 226  ARG226      0.5346
     29  NH1        0.9490   -8.9580  -37.6170 N.pl3 226  ARG226      0.1354
     30  NH2       -0.9340  -10.2640  -37.7090 N.pl3 226  ARG226      0.1354
     31  N          0.9730   -6.0400  -39.3840 N.3   232  ASP232     -0.1225
     32  CA        -0.3130   -6.5500  -39.8880 C.3   232  ASP232      0.1805
     33  C         -0.3280   -6.2900  -41.3930 C.2   232  ASP232      0.2598
     34  O          0.3740   -5.3950  -41.8770 O.2   232  ASP232     -0.2718
     35  CB        -1.4950   -5.7590  -39.3000 C.3   232  ASP232      0.1424
     36  CG        -1.8520   -6.1520  -37.8620 C.2   232  ASP232      0.3668
     37  OD1       -2.8030   -5.5340  -37.3270 O.co2 232  ASP232     -0.2456
     38  OD2       -1.2240   -7.0680  -37.2740 O.co2 232  ASP232     -0.2456
     39  N         -1.1350   -7.0390  -42.1370 N.am  233  SER233     -0.1952
     40  CA        -1.3910   -6.6680  -43.5400 C.3   233  SER233      0.1924
     41  C         -1.6370   -5.1380  -43.6840 C.2   233  SER233      0.2314
     42  O         -2.2770   -4.5370  -42.8180 O.2   233  SER233     -0.2863
     43  CB        -2.5850   -7.4560  -44.0840 C.3   233  SER233      0.2116
     44  OG        -2.3670   -8.8510  -43.9690 O.3   233  SER233     -0.2180
     45  N         -4.4090  -13.3320  -42.5310 N.3   288  ILE288     -0.1231
     46  CA        -4.1450  -12.7960  -41.2040 C.3   288  ILE288      0.1692
     47  C         -5.2330  -13.2560  -40.2580 C.2   288  ILE288      0.2592
     48  O         -6.3900  -13.3720  -40.6630 O.2   288  ILE288     -0.2718
     49  CB        -4.0160  -11.2350  -41.2190 C.3   288  ILE288      0.0266
     50  CG1       -3.7330  -10.6750  -39.8260 C.3   288  ILE288      0.0019
     51  CG2       -5.2500  -10.5770  -41.8220 C.3   288  ILE288      0.0020
     52  CD1       -3.3660   -9.1600  -39.8660 C.3   288  ILE288      0.0001
     53  N         -4.8560  -13.5310  -39.0090 N.am  289  ASP289     -0.1974
     54  CA        -5.7960  -13.9470  -37.9680 C.3   289  ASP289      0.1709
     55  C         -6.4780  -15.2750  -38.2910 C.2   289  ASP289      0.2293
     56  O         -7.5280  -15.2950  -38.9300 O.2   289  ASP289     -0.2864
     57  CB        -6.8800  -12.8870  -37.7290 C.3   289  ASP289      0.1436
     58  CG        -6.3400  -11.6120  -37.0860 C.2   289  ASP289      0.3671
     59  OD1       -5.1700  -11.6050  -36.6450 O.co2 289  ASP289     -0.2456
     60  OD2       -7.0990  -10.6140  -37.0210 O.co2 289  ASP289     -0.2456
     61  N         -8.6800  -14.4540  -42.1160 N.3   306  ASP306     -0.1239
     62  CA        -9.0070  -13.3540  -43.0290 C.3   306  ASP306      0.1674
     63  C         -8.1210  -13.4860  -44.2720 C.2   306  ASP306      0.2266
     64  O         -7.0100  -14.0160  -44.1900 O.2   306  ASP306     -0.2867
     65  CB        -8.7460  -11.9770  -42.3930 C.3   306  ASP306      0.1410
     66  CG        -9.4920  -11.7680  -41.0730 C.2   306  ASP306      0.3668
     67  OD1      -10.6360  -12.2550  -40.9140 O.co2 306  ASP306     -0.2456
     68  OD2       -8.9350  -11.0890  -40.1830 O.co2 306  ASP306     -0.2456
     69  N         -6.6500  -11.0920  -47.7050 N.3   308  MET308     -0.1245
     70  CA        -6.4860   -9.7710  -48.3060 C.3   308  MET308      0.1570
     71  C         -5.9080   -9.9060  -49.6980 C.2   308  MET308      0.2261
     72  O         -4.8750  -10.5680  -49.8750 O.2   308  MET308     -0.2867
     73  CB        -5.4440   -8.9560  -47.5410 C.3   308  MET308      0.0387
     74  CG        -5.4590   -9.0640  -46.0510 C.3   308  MET308      0.0595
     75  SD        -6.2300   -7.5760  -45.4520 S.3   308  MET308     -0.1393
     76  CE        -7.8660   -8.2130  -45.4540 C.3   308  MET308      0.0692
     77  N         -4.8650   -4.0660  -46.4850 N.3   313  GLY313     -0.1210
     78  CA        -5.0030   -4.3180  -45.0580 C.3   313  GLY313      0.1956
     79  C         -6.3760   -3.8230  -44.6290 C.2   313  GLY313      0.2612
     80  O         -7.1800   -3.4260  -45.4810 O.2   313  GLY313     -0.2717
     81  N         -6.6680   -3.8390  -43.3300 N.am  314  ASN314     -0.1960
     82  CA        -7.9330   -3.2660  -42.8760 C.3   314  ASN314      0.1819
     83  C         -7.9510   -1.7470  -43.0950 C.2   314  ASN314      0.2621
     84  O         -9.0120   -1.1420  -43.2600 O.2   314  ASN314     -0.2715
     85  CB        -8.3020   -3.7030  -41.4320 C.3   314  ASN314      0.1195
     86  CG        -7.6210   -2.8690  -40.3210 C.2   314  ASN314      0.2630
     87  OD1       -7.0720   -1.7880  -40.5510 O.2   314  ASN314     -0.2716
     88  ND2       -7.6940   -3.3820  -39.0900 N.am  314  ASN314     -0.0877
     89  N         -6.7540   -1.1570  -43.1060 N.am  315  ASN315     -0.1972
     90  CA        -6.5700    0.2830  -43.2930 C.3   315  ASN315      0.1688
     91  C         -7.1650    0.8100  -44.6000 C.2   315  ASN315      0.2292
     92  O         -7.8030    1.8680  -44.6280 O.2   315  ASN315     -0.2864
     93  CB        -5.0790    0.6370  -43.2180 C.3   315  ASN315      0.1181
     94  CG        -4.7990    2.0820  -43.5960 C.2   315  ASN315      0.2629
     95  OD1       -5.0240    2.9970  -42.8020 O.2   315  ASN315     -0.2716
     96  ND2       -4.3020    2.2950  -44.8120 N.am  315  ASN315     -0.0877
     97  N        -14.4340   -9.3490  -39.3160 N.3   451  TYR451     -0.1241
     98  CA       -13.0710   -9.7820  -39.0360 C.3   451  TYR451      0.1605
     99  C        -13.0520  -11.0070  -38.1110 C.2   451  TYR451      0.2264
    100  O        -13.6540  -10.9870  -37.0410 O.2   451  TYR451     -0.2867
    101  CB       -12.2760   -8.6240  -38.4250 C.3   451  TYR451      0.0534
    102  CG       -12.0040   -7.5220  -39.4130 C.ar  451  TYR451     -0.0201
    103  CD1      -10.9300   -7.6050  -40.2850 C.ar  451  TYR451     -0.0009
    104  CD2      -12.8290   -6.4060  -39.4840 C.ar  451  TYR451     -0.0009
    105  CE1      -10.6720   -6.6110  -41.2020 C.ar  451  TYR451      0.0417
    106  CE2      -12.5800   -5.3970  -40.3990 C.ar  451  TYR451      0.0417
    107  CZ       -11.5010   -5.5100  -41.2600 C.ar  451  TYR451      0.1957
    108  OH       -11.2380   -4.5150  -42.1770 O.3   451  TYR451     -0.2866
    109  N        -15.8750  -10.0150  -35.6960 N.3   471  TYR471     -0.1241
    110  CA       -16.3240   -8.6940  -35.2630 C.3   471  TYR471      0.1605
    111  C        -16.4130   -7.7080  -36.4230 C.2   471  TYR471      0.2264
    112  O        -15.7350   -7.8500  -37.4490 O.2   471  TYR471     -0.2867
    113  CB       -15.4290   -8.1310  -34.1510 C.3   471  TYR471      0.0534
    114  CG       -13.9970   -7.8720  -34.5690 C.ar  471  TYR471     -0.0201
    115  CD1      -13.5840   -6.6020  -34.9710 C.ar  471  TYR471     -0.0009
    116  CD2      -13.0550   -8.8920  -34.5490 C.ar  471  TYR471     -0.0009
    117  CE1      -12.2660   -6.3570  -35.3450 C.ar  471  TYR471      0.0417
    118  CE2      -11.7420   -8.6600  -34.9180 C.ar  471  TYR471      0.0417
    119  CZ       -11.3500   -7.3900  -35.3180 C.ar  471  TYR471      0.1957
    120  OH       -10.0320   -7.1600  -35.6890 O.3   471  TYR471     -0.2866
    121  N        -11.6310   -3.2340  -32.0750 N.3   501  THR501     -0.1218
    122  CA       -11.0270   -4.4940  -32.4510 C.3   501  THR501      0.1862
    123  C        -11.5190   -5.4810  -31.4000 C.2   501  THR501      0.2287
    124  O        -10.7950   -5.8300  -30.4730 O.2   501  THR501     -0.2866
    125  CB        -9.4900   -4.3680  -32.4460 C.3   501  THR501      0.1770
    126  OG1       -9.1200   -3.2490  -33.2630 O.3   501  THR501     -0.2211
    127  CG2       -8.8220   -5.6350  -32.9870 C.3   501  THR501      0.0375
    128  N        -11.8660   -8.5040  -30.4660 N.3   503  GLU503     -0.1245
    129  CA       -11.4780   -9.9110  -30.5720 C.3   503  GLU503      0.1567
    130  C        -12.1040  -10.6860  -29.4160 C.2   503  GLU503      0.2260
    131  O        -11.8940  -10.3430  -28.2450 O.2   503  GLU503     -0.2867
    132  CB        -9.9500  -10.0450  -30.5870 C.3   503  GLU503      0.0388
    133  CG        -9.2990   -9.4480  -31.8510 C.3   503  GLU503      0.1160
    134  CD        -7.8780   -8.9720  -31.6010 C.2   503  GLU503      0.3649
    135  OE1       -7.1060   -8.7980  -32.5820 O.co2 503  GLU503     -0.2457
    136  OE2       -7.5250   -8.7730  -30.4150 O.co2 503  GLU503     -0.2457
    137  N        -12.1470   -8.2700  -26.1830 N.3   519  ARG519     -0.1245
    138  CA       -11.3220   -7.0690  -26.1140 C.3   519  ARG519      0.1563
    139  C        -12.1820   -5.8380  -26.3870 C.2   519  ARG519      0.2260
    140  O        -13.0840   -5.8910  -27.2190 O.2   519  ARG519     -0.2867
    141  CB       -10.2200   -7.1880  -27.1750 C.3   519  ARG519      0.0307
    142  CG        -9.4170   -5.9260  -27.4660 C.3   519  ARG519      0.0489
    143  CD        -8.3410   -6.2300  -28.5060 C.3   519  ARG519      0.2205
    144  NE        -7.6330   -5.0260  -28.9380 N.pl3 519  ARG519     -0.0865
    145  CZ        -6.6290   -5.0270  -29.8090 C.cat 519  ARG519      0.5346
    146  NH1       -6.2010   -6.1730  -30.3510 N.pl3 519  ARG519      0.1354
    147  NH2       -6.0500   -3.8840  -30.1350 N.pl3 519  ARG519      0.1354
    148  N          1.4330   -4.0280  -23.1530 N.3   581  ARG581     -0.1245
    149  CA         1.1740   -5.4620  -23.2710 C.3   581  ARG581      0.1563
    150  C          2.2840   -6.1820  -22.5240 C.2   581  ARG581      0.2260
    151  O          3.3060   -6.5810  -23.0990 O.2   581  ARG581     -0.2867
    152  CB         1.0940   -5.8930  -24.7450 C.3   581  ARG581      0.0307
    153  CG        -0.0740   -5.2210  -25.5080 C.3   581  ARG581      0.0489
    154  CD        -0.2370   -5.7420  -26.9380 C.3   581  ARG581      0.2205
    155  NE        -1.5560   -5.4140  -27.5020 N.pl3 581  ARG581     -0.0865
    156  CZ        -1.8720   -5.5110  -28.7930 C.cat 581  ARG581      0.5346
    157  NH1       -0.9650   -5.9240  -29.6760 N.pl3 581  ARG581      0.1354
    158  NH2       -3.0960   -5.1910  -29.2080 N.pl3 581  ARG581      0.1354
    159  N         -0.7390  -11.2260  -27.5390 N.3   615  TYR615     -0.1241
    160  CA        -1.7220  -12.2140  -27.9960 C.3   615  TYR615      0.1605
    161  C         -1.3600  -13.5870  -27.4490 C.2   615  TYR615      0.2264
    162  O         -0.1840  -13.8950  -27.2720 O.2   615  TYR615     -0.2867
    163  CB        -1.7840  -12.2720  -29.5200 C.3   615  TYR615      0.0534
    164  CG        -2.6600  -11.2080  -30.1550 C.ar  615  TYR615     -0.0201
    165  CD1       -2.5210   -9.8690  -29.8060 C.ar  615  TYR615     -0.0009
    166  CD2       -3.5990  -11.5370  -31.1280 C.ar  615  TYR615     -0.0009
    167  CE1       -3.3000   -8.8850  -30.3910 C.ar  615  TYR615      0.0417
    168  CE2       -4.3890  -10.5520  -31.7320 C.ar  615  TYR615      0.0417
    169  CZ        -4.2290   -9.2260  -31.3550 C.ar  615  TYR615      0.1957
    170  OH        -4.9950   -8.2360  -31.9360 O.3   615  TYR615     -0.2866
    171  N          3.5850   -6.4330  -28.5410 N.3   635  SER635     -0.1202
    172  CA         3.3380   -6.3830  -29.9790 C.3   635  SER635      0.2020
    173  C          2.5670   -5.1210  -30.3870 C.2   635  SER635      0.2618
    174  O          2.1390   -4.9820  -31.5410 O.2   635  SER635     -0.2717
    175  CB         2.6040   -7.6450  -30.4370 C.3   635  SER635      0.2103
    176  OG         1.3270   -7.7440  -29.8190 O.3   635  SER635     -0.2182
    177  N          2.3870   -4.1960  -29.4460 N.am  636  TRP636     -0.1975
    178  CA         1.8260   -2.8840  -29.7970 C.3   636  TRP636      0.1640
    179  C          2.9620   -1.8740  -29.9460 C.2   636  TRP636      0.2290
    180  O          2.9750   -1.0700  -30.8820 O.2   636  TRP636     -0.2864
    181  CB         0.8400   -2.4010  -28.7280 C.3   636  TRP636      0.0576
    182  CG         0.0980   -1.1450  -29.1050 C.ar  636  TRP636      0.0006
    183  CD1        0.4430    0.1480  -28.7850 C.ar  636  TRP636      0.0946
    184  CD2       -1.1060   -1.0570  -29.8830 C.ar  636  TRP636      0.0152
    185  NE1       -0.4850    1.0270  -29.3110 N.ar  636  TRP636     -0.2442
    186  CE2       -1.4450    0.3130  -29.9850 C.ar  636  TRP636      0.0810
    187  CE3       -1.9390   -2.0060  -30.4950 C.ar  636  TRP636      0.0012
    188  CZ2       -2.5790    0.7560  -30.6770 C.ar  636  TRP636      0.0191
    189  CZ3       -3.0670   -1.5670  -31.1760 C.ar  636  TRP636      0.0001
    190  CH2       -3.3740   -0.1970  -31.2680 C.ar  636  TRP636      0.0015
@<TRIPOS>BOND
     1    72    71    2
     2    71    70    1
     3    70    69    1
     4    70    73    1
     5    73    74    1
     6    77    78    1
     7    74    75    1
     8    80    79    2
     9    76    75    1
    10    78    79    1
    11    96    94   am
    12    79    81   am
    13    92    91    2
    14    91    90    1
    15    63    64    2
    16    63    62    1
    17    43    44    1
    18    43    40    1
    19    41    40    1
    20    41    42    2
    21    94    93    1
    22    94    95    2
    23    40    39    1
    24    81    82    1
    25    90    93    1
    26    90    89    1
    27    84    83    2
    28    89    83   am
    29    83    82    1
    30    62    65    1
    31    62    61    1
    32    82    85    1
    33    45    46    1
    34    65    66    1
    35   108   107    1
    36    39    33   am
    37    34    33    2
    38    51    49    1
    39    22    21    1
    40    22    23    2
    41    85    86    1
    42    33    32    1
    43   107   105   ar
    44   107   106   ar
    45    49    46    1
    46    49    50    1
    47    46    47    1
    48   105   103   ar
    49    21    20    1
    50    21    24    1
    51    66    67   ar
    52    66    68   ar
    53    48    47    2
    54    87    86    2
    55   106   104   ar
    56    86    88   am
    57   103   102   ar
    58    47    53   am
    59    24    25    1
    60    32    31    1
    61    32    35    1
    62    52    50    1
    63    25    26    1
    64   104   102   ar
    65   102   101    1
    66    97    98    1
    67    35    36    1
    68    98   101    1
    69    98    99    1
    70    53    54    1
    71    56    55    2
    72    26    27    1
    73    27    28    2
    74    55    54    1
    75    99   100    2
    76    54    57    1
    77    28    30    1
    78    28    29    1
    79    36    37   ar
    80    36    38   ar
    81    57    58    1
    82   112   111    2
    83    58    60   ar
    84    58    59   ar
    85   111   110    1
    86   109   110    1
    87   120   119    1
    88     1     2    1
    89     4     3    2
    90   117   119   ar
    91   117   115   ar
    92    17    16    1
    93    17    19    1
    94   119   118   ar
    95   110   113    1
    96     5     2    1
    97     5     6    1
    98   115   114   ar
    99   118   116   ar
   100    16    18    1
   101    16    13    1
   102     3     2    1
   103     3    12   am
   104   114   116   ar
   105   114   113    1
   106     6     7    1
   107    15    14    2
   108     7     8    1
   109    10     9    1
   110    12    13    1
   111    13    14    1
   112     8     9    2
   113   126   125    1
   114     9    11    1
   115   127   125    1
   116   135   134   ar
   117   122   125    1
   118   122   121    1
   119   122   123    1
   120   170   169    1
   121   133   134    1
   122   133   132    1
   123   168   169   ar
   124   168   166   ar
   125   134   136   ar
   126   174   173    2
   127   123   124    2
   128   169   167   ar
   129   190   189   ar
   130   190   188   ar
   131   189   187   ar
   132   166   164   ar
   133   180   179    2
   134   188   186   ar
   135   132   129    1
   136   129   128    1
   137   129   130    1
   138   187   184   ar
   139   175   172    1
   140   175   176    1
   141   167   165   ar
   142   173   172    1
   143   173   177   am
   144   146   145    1
   145   164   165   ar
   146   164   163    1
   147   147   145    1
   148   186   184   ar
   149   186   185   ar
   150   172   171    1
   151   179   178    1
   152   184   182   ar
   153   145   144    2
   154   178   177    1
   155   178   181    1
   156   157   156    1
   157   163   160    1
   158   130   131    2
   159   185   183   ar
   160   158   156    1
   161   182   183   ar
   162   182   181    1
   163   144   143    1
   164   156   155    2
   165   143   142    1
   166   160   159    1
   167   160   161    1
   168   155   154    1
   169   142   141    1
   170   161   162    2
   171   140   139    2
   172   141   138    1
   173   154   153    1
   174   139   138    1
   175   137   138    1
   176   153   152    1
   177   152   149    1
   178   149   148    1
   179   149   150    1
   180   151   150    2
