@<TRIPOS>MOLECULE
tmp/4fpsA00.pdb
 175 164 0 0 0
SMALL
GASTEIGER

@<TRIPOS>ATOM
      1  N         10.2040    9.5430   12.0520 N.3    35  VAL35      -0.1231
      2  CA         9.5320   10.4600   12.9570 C.3    35  VAL35       0.1692
      3  C          8.2570   11.0610   12.3920 C.2    35  VAL35       0.2593
      4  O          7.9730   11.0090   11.1950 O.2    35  VAL35      -0.2718
      5  CB        10.4700   11.6350   13.3200 C.3    35  VAL35       0.0266
      6  CG1       11.8610   11.1560   13.6670 C.3    35  VAL35       0.0020
      7  CG2       10.5720   12.6440   12.1910 C.3    35  VAL35       0.0020
      8  N          7.5100   11.7180   13.2810 N.am   36  GLY36      -0.1942
      9  CA         6.3310   12.4690   12.8730 C.3    36  GLY36       0.2014
     10  C          5.9490   13.4600   13.9530 C.2    36  GLY36       0.2639
     11  O          6.3010   13.2840   15.1170 O.2    36  GLY36      -0.2714
     12  N          5.2290   14.5090   13.5890 N.am   37  THR37      -0.1950
     13  CA         4.7230   15.4640   14.5540 C.3    37  THR37       0.1897
     14  C          3.2680   15.1890   14.8770 C.2    37  THR37       0.2313
     15  O          2.8820   15.3890   16.0180 O.2    37  THR37      -0.2863
     16  CB         4.7830   16.9450   14.0890 C.3    37  THR37       0.1794
     17  OG1        4.3510   17.0670   12.7500 O.3    37  THR37      -0.2208
     18  CG2        6.2170   17.4240   14.1460 C.3    37  THR37       0.0378
     19  N          8.9500    7.3290   16.0230 N.3    58  LEU58      -0.1245
     20  CA         9.0130    8.3670   17.0350 C.3    58  LEU58       0.1561
     21  C          7.8680    9.3640   16.8590 C.2    58  LEU58       0.2260
     22  O          7.6190    9.8250   15.7230 O.2    58  LEU58      -0.2867
     23  CB        10.3590    9.0790   16.9430 C.3    58  LEU58       0.0270
     24  CG        10.8030   10.1950   17.8600 C.3    58  LEU58       0.0019
     25  CD1       12.3160   10.2500   17.9780 C.3    58  LEU58       0.0001
     26  CD2       10.2650   11.5380   17.3260 C.3    58  LEU58       0.0001
     27  N          6.0590   12.8530   19.4780 N.3    60  ASN60      -0.1240
     28  CA         6.6280   13.9510   20.2710 C.3    60  ASN60       0.1653
     29  C          5.5360   14.5250   21.1800 C.2    60  ASN60       0.2266
     30  O          4.4290   14.7850   20.7380 O.2    60  ASN60      -0.2867
     31  CB         7.2180   15.0920   19.4700 C.3    60  ASN60       0.1155
     32  CG         7.8080   16.2980   20.1610 C.2    60  ASN60       0.2627
     33  OD1        7.7660   17.4130   19.5890 O.2    60  ASN60      -0.2716
     34  ND2        8.3760   16.4240   21.3560 N.am   60  ASN60      -0.0877
     35  N          3.9960   18.4070   20.0750 N.3    63  HIS63      -0.1241
     36  CA         3.0050   18.5840   19.0290 C.3    63  HIS63       0.1621
     37  C          1.6990   17.8560   19.3270 C.2    63  HIS63       0.2264
     38  O          0.6220   18.4020   19.1240 O.2    63  HIS63      -0.2867
     39  CB         3.5630   18.1360   17.6630 C.3    63  HIS63       0.0745
     40  CG         4.6660   19.0110   17.1590 C.ar   63  HIS63       0.0817
     41  ND1        5.9850   18.8250   17.4860 N.ar   63  HIS63      -0.2268
     42  CD2        4.5950   20.1000   16.3500 C.ar   63  HIS63       0.1154
     43  CE1        6.7010   19.7820   16.8710 C.ar   63  HIS63       0.1986
     44  NE2        5.8910   20.5560   16.1790 N.ar   63  HIS63      -0.2212
     45  N          9.6200   11.8640   22.0860 N.3    92  ASP92      -0.1225
     46  CA        10.4670   12.9160   22.6480 C.3    92  ASP92       0.1805
     47  C          9.6250   13.6770   23.6770 C.2    92  ASP92       0.2598
     48  O          8.4060   13.5470   23.6900 O.2    92  ASP92      -0.2718
     49  CB        11.0220   13.8390   21.5900 C.3    92  ASP92       0.1424
     50  CG        12.2530   14.6240   22.0190 C.2    92  ASP92       0.3668
     51  OD1       12.6640   14.4490   23.1800 O.co2  92  ASP92      -0.2456
     52  OD2       12.7870   15.4080   21.2130 O.co2  92  ASP92      -0.2456
     53  N         10.2710   14.4320   24.5470 N.am   93  SER93      -0.1952
     54  CA         9.6640   15.0160   25.7370 C.3    93  SER93       0.1924
     55  C          9.1750   16.4610   25.6220 C.2    93  SER93       0.2314
     56  O          8.4840   16.9530   26.5390 O.2    93  SER93      -0.2863
     57  CB        10.7230   14.9620   26.8600 C.3    93  SER93       0.2116
     58  OG        11.8780   15.6890   26.4670 O.3    93  SER93      -0.2180
     59  N         11.6210   18.8070   25.1490 N.3    95  GLY95      -0.1210
     60  CA        12.8330   19.5510   25.4460 C.3    95  GLY95       0.1956
     61  C         13.5610   20.1770   24.2930 C.2    95  GLY95       0.2612
     62  O         14.3720   21.1290   24.4190 O.2    95  GLY95      -0.2717
     63  N         13.3770   19.6840   23.0820 N.am   96  TYR96      -0.1962
     64  CA        14.0180   20.3630   21.9570 C.3    96  TYR96       0.1771
     65  C         13.2220   21.6220   21.6270 C.2    96  TYR96       0.2619
     66  O         13.7600   22.6740   21.2990 O.2    96  TYR96      -0.2715
     67  CB        14.0600   19.4460   20.7400 C.3    96  TYR96       0.0574
     68  CG        14.6610   20.0050   19.4980 C.ar   96  TYR96      -0.0198
     69  CD1       13.9290   20.3780   18.3910 C.ar   96  TYR96      -0.0009
     70  CD2       16.0490   20.1790   19.4360 C.ar   96  TYR96      -0.0009
     71  CE1       14.5050   20.8950   17.2530 C.ar   96  TYR96       0.0417
     72  CE2       16.6450   20.6870   18.2960 C.ar   96  TYR96       0.0417
     73  CZ        15.8750   21.0370   17.2110 C.ar   96  TYR96       0.1957
     74  OH        16.5080   21.5600   16.1070 O.3    96  TYR96      -0.2866
     75  N         11.8970   21.5140   21.7400 N.am   97  GLN97      -0.1977
     76  CA        11.1620   22.7880   21.5460 C.3    97  GLN97       0.1601
     77  C         11.4460   23.8420   22.5970 C.2    97  GLN97       0.2287
     78  O         11.2270   25.0350   22.3860 O.2    97  GLN97      -0.2864
     79  CB         9.6670   22.5060   21.5210 C.3    97  GLN97       0.0394
     80  CG         9.3020   21.8650   20.1660 C.3    97  GLN97       0.0908
     81  CD         9.7170   20.4240   20.0390 C.2    97  GLN97       0.2608
     82  OE1        9.7010   19.6700   21.0380 O.2    97  GLN97      -0.2717
     83  NE2       10.1470   20.0050   18.8580 N.am   97  GLN97      -0.0878
     84  N         13.9330   17.6170   29.2890 N.3   137  ASP137     -0.1239
     85  CA        15.2180   18.2970   29.3290 C.3   137  ASP137      0.1674
     86  C         15.1450   19.6690   28.6870 C.2   137  ASP137      0.2266
     87  O         14.0950   20.1310   28.2510 O.2   137  ASP137     -0.2867
     88  CB        16.2710   17.4620   28.5930 C.3   137  ASP137      0.1410
     89  CG        16.0050   17.3100   27.1010 C.2   137  ASP137      0.3668
     90  OD1       14.8260   17.2320   26.7070 O.co2 137  ASP137     -0.2456
     91  OD2       17.0110   17.2610   26.3590 O.co2 137  ASP137     -0.2456
     92  N         17.3170   21.2970   25.5320 N.3   139  CYS139     -0.1235
     93  CA        18.4040   21.2590   24.5540 C.3   139  CYS139      0.1677
     94  C         19.1400   22.5880   24.5870 C.2   139  CYS139      0.2270
     95  O         18.6490   23.6390   24.1540 O.2   139  CYS139     -0.2867
     96  CB        17.8220   20.9950   23.1490 C.3   139  CYS139      0.0956
     97  SG        19.0960   20.8400   21.8900 S.3   139  CYS139     -0.0801
     98  N         18.6660   12.0580   29.1950 N.3   182  ILE182     -0.1245
     99  CA        19.3310   12.7810   28.0990 C.3   182  ILE182      0.1561
    100  C         20.5150   13.5760   28.6200 C.2   182  ILE182      0.2260
    101  O         20.3270   14.4500   29.4700 O.2   182  ILE182     -0.2867
    102  CB        18.3580   13.7190   27.3790 C.3   182  ILE182      0.0252
    103  CG1       17.0960   12.9950   26.9090 C.3   182  ILE182      0.0019
    104  CG2       19.0580   14.4510   26.2400 C.3   182  ILE182      0.0019
    105  CD1       15.9880   13.9120   26.3840 C.3   182  ILE182      0.0001
    106  N         23.2800   16.4600   28.3520 N.3   184  GLN184     -0.1245
    107  CA        23.5930   17.8000   27.9860 C.3   184  GLN184      0.1566
    108  C         25.0420   18.1250   28.3770 C.2   184  GLN184      0.2260
    109  O         25.8570   17.2490   28.6820 O.2   184  GLN184     -0.2867
    110  CB        22.5450   18.7300   28.6010 C.3   184  GLN184      0.0367
    111  CG        21.1350   18.3170   28.1790 C.3   184  GLN184      0.0905
    112  CD        20.8810   18.5690   26.7110 C.2   184  GLN184      0.2608
    113  OE1       21.6080   19.2520   25.9980 O.2   184  GLN184     -0.2717
    114  NE2       19.7800   17.9790   26.2270 N.am  184  GLN184     -0.0878
    115  N         21.9620   14.3540   24.0350 N.3   210  GLY210     -0.1210
    116  CA        21.2500   15.5250   23.5920 C.3   210  GLY210      0.1956
    117  C         22.1910   16.6980   23.3310 C.2   210  GLY210      0.2612
    118  O         23.4160   16.5780   23.4790 O.2   210  GLY210     -0.2717
    119  N         21.5850   17.8090   22.8930 N.am  211  GLY211     -0.1942
    120  CA        22.3930   19.0080   22.6870 C.3   211  GLY211      0.2014
    121  C         23.3350   19.0110   21.5200 C.2   211  GLY211      0.2639
    122  O         24.1630   19.9190   21.4030 O.2   211  GLY211     -0.2714
    123  N         23.2470   18.0980   20.5700 N.am  212  LEU212     -0.1963
    124  CA        24.0500   18.1190   19.3330 C.3   212  LEU212      0.1728
    125  C         23.1340   18.2550   18.1260 C.2   212  LEU212      0.2616
    126  O         21.8940   18.3070   18.2360 O.2   212  LEU212     -0.2715
    127  CB        24.9290   16.8770   19.2890 C.3   212  LEU212      0.0311
    128  CG        25.9840   16.6930   20.3810 C.3   212  LEU212      0.0022
    129  CD1       26.7690   15.3990   20.2790 C.3   212  LEU212      0.0001
    130  CD2       26.9470   17.8950   20.3500 C.3   212  LEU212      0.0001
    131  N         23.7500   18.3520   16.9580 N.am  213  ALA213     -0.1963
    132  CA        23.0220   18.6380   15.7180 C.3   213  ALA213      0.1728
    133  C         22.1550   19.8880   15.8840 C.2   213  ALA213      0.2616
    134  O         20.9750   19.9580   15.5940 O.2   213  ALA213     -0.2715
    135  CB        22.2160   17.4370   15.2580 C.3   213  ALA213      0.0334
    136  N         22.8380   20.9190   16.4120 N.am  214  VAL214     -0.1977
    137  CA        22.2300   22.2090   16.7080 C.3   214  VAL214      0.1596
    138  C         23.1040   23.3110   16.1050 C.2   214  VAL214      0.2287
    139  O         23.0870   24.4400   16.5900 O.2   214  VAL214     -0.2864
    140  CB        22.0940   22.4970   18.2110 C.3   214  VAL214      0.0276
    141  CG1       20.9290   21.7400   18.8470 C.3   214  VAL214      0.0022
    142  CG2       23.3640   22.1930   18.9770 C.3   214  VAL214      0.0022
    143  N         20.1530   12.1110   19.4260 N.3   241  MET241     -0.1230
    144  CA        18.8730   12.7370   19.0850 C.3   241  MET241      0.1702
    145  C         19.0400   13.6660   17.8860 C.2   241  MET241      0.2592
    146  O         19.9170   14.5250   17.8410 O.2   241  MET241     -0.2718
    147  CB        18.3140   13.5210   20.2580 C.3   241  MET241      0.0401
    148  CG        18.2300   12.6850   21.5220 C.3   241  MET241      0.0596
    149  SD        17.2290   13.3770   22.8520 S.3   241  MET241     -0.1393
    150  CE        15.5860   13.1010   22.1930 C.3   241  MET241      0.0692
    151  N         18.1540   13.4930   16.9130 N.am  242  GLY242     -0.1957
    152  CA        18.0820   14.3730   15.7550 C.3   242  GLY242      0.1869
    153  C         19.1250   14.1840   14.6880 C.2   242  GLY242      0.2309
    154  O         19.3300   15.0490   13.8320 O.2   242  GLY242     -0.2863
    155  N         17.2010    9.3120   15.3640 N.3   261  ASP261     -0.1225
    156  CA        15.9700    9.7980   14.7550 C.3   261  ASP261      0.1805
    157  C         16.3070   11.0510   13.9600 C.2   261  ASP261      0.2598
    158  O         17.1780   11.8200   14.3600 O.2   261  ASP261     -0.2718
    159  CB        14.8860   10.1170   15.7820 C.3   261  ASP261      0.1424
    160  CG        15.0400   11.5130   16.3660 C.2   261  ASP261      0.3668
    161  OD1       15.8520   11.6370   17.3250 O.co2 261  ASP261     -0.2456
    162  OD2       14.3870   12.4720   15.8880 O.co2 261  ASP261     -0.2456
    163  N         15.5850   11.2580   12.8430 N.am  262  CYS262     -0.1956
    164  CA        15.8290   12.4560   12.0600 C.3   262  CYS262      0.1843
    165  C         14.6670   12.7600   11.1260 C.2   262  CYS262      0.2625
    166  O         14.0830   11.8040   10.6040 O.2   262  CYS262     -0.2714
    167  CB        17.0930   12.2240   11.2390 C.3   262  CYS262      0.0997
    168  SG        17.7270   13.7430   10.5090 S.3   262  CYS262     -0.0797
    169  N         14.3700   14.0210   10.8600 N.am  263  VAL263     -0.1977
    170  CA        13.2900   14.3660    9.9310 C.3   263  VAL263      0.1596
    171  C         13.8000   14.2960    8.4950 C.2   263  VAL263      0.2287
    172  O         12.9860   14.3770    7.5710 O.2   263  VAL263     -0.2864
    173  CB        12.7230   15.7830   10.0970 C.3   263  VAL263      0.0276
    174  CG1       12.1610   16.0520   11.4620 C.3   263  VAL263      0.0022
    175  CG2       13.8510   16.7690    9.8000 C.3   263  VAL263      0.0022
@<TRIPOS>BOND
     1   172   171    2
     2   171   170    1
     3   175   173    1
     4   170   173    1
     5   170   169    1
     6   173   174    1
     7   168   167    1
     8   166   165    2
     9   169   165   am
    10   165   164    1
    11     4     3    2
    12   167   164    1
    13     1     2    1
    14   164   163    1
    15     7     5    1
    16     3     2    1
    17     3     8   am
    18    17    16    1
    19   163   157   am
    20     9     8    1
    21     9    10    1
    22     2     5    1
    23     5     6    1
    24    12    10   am
    25    12    13    1
    26   154   153    2
    27    10    11    2
    28   157   158    2
    29   157   156    1
    30    16    18    1
    31    16    13    1
    32    13    14    1
    33   153   152    1
    34   156   155    1
    35   156   159    1
    36    14    15    2
    37   135   132    1
    38   134   133    2
    39   132   133    1
    40   132   131    1
    41    22    21    2
    42   152   151    1
    43   159   160    1
    44   133   136   am
    45   162   160   ar
    46    19    20    1
    47   138   139    2
    48   138   137    1
    49    74    73    1
    50    44    42   ar
    51    44    43   ar
    52    42    40   ar
    53   160   161   ar
    54   136   137    1
    55   137   140    1
    56    21    20    1
    57    43    41   ar
    58   151   145   am
    59    23    20    1
    60    23    24    1
    61   131   125   am
    62    40    41   ar
    63    40    39    1
    64    73    71   ar
    65    73    72   ar
    66    71    69   ar
    67    26    24    1
    68    39    36    1
    69   146   145    2
    70    24    25    1
    71   145   144    1
    72   125   126    2
    73   125   124    1
    74   140   141    1
    75   140   142    1
    76    72    70   ar
    77    69    68   ar
    78    83    81   am
    79    36    37    1
    80    36    35    1
    81   144   143    1
    82   144   147    1
    83    38    37    2
    84   127   124    1
    85   127   128    1
    86   124   123    1
    87    70    68   ar
    88    31    32    1
    89    31    28    1
    90    27    28    1
    91    68    67    1
    92    33    32    2
    93    81    80    1
    94    81    82    2
    95    32    34   am
    96    80    79    1
    97   147   148    1
    98    28    29    1
    99   129   128    1
   100   130   128    1
   101   123   121   am
   102    30    29    2
   103    67    64    1
   104    52    50   ar
   105    66    65    2
   106   122   121    2
   107   121   120    1
   108    79    76    1
   109   148   149    1
   110    76    75    1
   111    76    77    1
   112    49    50    1
   113    49    46    1
   114    65    75   am
   115    65    64    1
   116    97    96    1
   117    64    63    1
   118    50    51   ar
   119    45    46    1
   120   150   149    1
   121    78    77    2
   122    46    47    1
   123   120   119    1
   124   119   117   am
   125    63    61   am
   126    96    93    1
   127   117   118    2
   128   117   116    1
   129   116   115    1
   130    47    48    2
   131    47    53   am
   132    95    94    2
   133    61    62    2
   134    61    60    1
   135    53    54    1
   136    93    94    1
   137    93    92    1
   138    59    60    1
   139    55    54    1
   140    55    56    2
   141    54    57    1
   142   113   112    2
   143   114   112   am
   144   104   102    1
   145    91    89   ar
   146   105   103    1
   147    58    57    1
   148    90    89   ar
   149   112   111    1
   150   103   102    1
   151    89    88    1
   152   102    99    1
   153   107   106    1
   154   107   108    1
   155   107   110    1
   156    99   100    1
   157    99    98    1
   158   111   110    1
   159    87    86    2
   160   108   109    2
   161    88    85    1
   162   100   101    2
   163    86    85    1
   164    84    85    1
