@<TRIPOS>MOLECULE
tmp/4fptA01.pdb
 129 126 0 0 0
SMALL
GASTEIGER

@<TRIPOS>ATOM
      1  N          8.6630    7.8030   11.2810 N.3    89  GLN89      -0.1245
      2  CA         8.9300    6.6550   10.4320 C.3    89  GLN89       0.1566
      3  C          8.6250    5.3660   11.1990 C.2    89  GLN89       0.2260
      4  O          8.6260    5.4080   12.4380 O.2    89  GLN89      -0.2867
      5  CB        10.3730    6.6430    9.9240 C.3    89  GLN89       0.0367
      6  CG        11.4560    6.7510   11.0030 C.3    89  GLN89       0.0905
      7  CD        12.1560    5.4430   11.2970 C.2    89  GLN89       0.2608
      8  OE1       11.5900    4.3660   11.2460 O.2    89  GLN89      -0.2717
      9  NE2       13.4340    5.5800   11.7120 N.am   89  GLN89      -0.0878
     10  N          9.9460    1.0610   10.9510 N.3    91  HIS91      -0.1241
     11  CA        10.8350    0.0710   10.3560 C.3    91  HIS91       0.1621
     12  C         10.7450   -1.2070   11.1740 C.2    91  HIS91       0.2264
     13  O         10.1140   -1.2280   12.2460 O.2    91  HIS91      -0.2867
     14  CB        12.2890    0.5930   10.2680 C.3    91  HIS91       0.0745
     15  CG        12.8290    0.8450   11.6390 C.ar   91  HIS91       0.0817
     16  ND1       12.6690    2.0720   12.2620 N.ar   91  HIS91      -0.2268
     17  CD2       13.4530    0.0300   12.5250 C.ar   91  HIS91       0.1154
     18  CE1       13.2310    1.9550   13.5030 C.ar   91  HIS91       0.1986
     19  NE2       13.6860    0.7330   13.6830 N.ar   91  HIS91      -0.2212
     20  N         13.0620   -4.9380   12.4970 N.3    93  HIS93      -0.1241
     21  CA        14.2480   -5.7400   12.6510 C.3    93  HIS93       0.1621
     22  C         13.8160   -7.2040   12.5450 C.2    93  HIS93       0.2264
     23  O         12.7320   -7.5400   13.0530 O.2    93  HIS93      -0.2867
     24  CB        14.8750   -5.5180   14.0490 C.3    93  HIS93       0.0745
     25  CG        15.1940   -4.0830   14.2860 C.ar   93  HIS93       0.0817
     26  ND1       16.4470   -3.5220   14.0950 N.ar   93  HIS93      -0.2268
     27  CD2       14.3910   -3.0530   14.6700 C.ar   93  HIS93       0.1154
     28  CE1       16.3770   -2.2090   14.3870 C.ar   93  HIS93       0.1986
     29  NE2       15.1470   -1.8710   14.7420 N.ar   93  HIS93      -0.2212
     30  N          9.1500   -1.1050   14.8970 N.3   116  HIS116     -0.1241
     31  CA         9.4030    0.1300   15.6460 C.3   116  HIS116      0.1621
     32  C          8.7150    1.3000   14.9570 C.2   116  HIS116      0.2264
     33  O          9.0810    1.6340   13.8160 O.2   116  HIS116     -0.2867
     34  CB        10.8840    0.4270   15.7450 C.3   116  HIS116      0.0745
     35  CG        11.6080   -0.5520   16.6250 C.ar  116  HIS116      0.0817
     36  ND1       12.9790   -0.7400   16.5890 N.ar  116  HIS116     -0.2268
     37  CD2       11.0780   -1.3750   17.5670 C.ar  116  HIS116      0.1154
     38  CE1       13.2470   -1.6790   17.5040 C.ar  116  HIS116      0.1986
     39  NE2       12.1250   -2.0660   18.1110 N.ar  116  HIS116     -0.2212
     40  N          8.4790    5.1280   15.2960 N.3   118  VAL118     -0.1245
     41  CA         9.3420    6.1340   15.9100 C.3   118  VAL118      0.1561
     42  C          8.6570    7.4850   15.9320 C.2   118  VAL118      0.2260
     43  O          8.1960    7.9610   14.8850 O.2   118  VAL118     -0.2867
     44  CB        10.6800    6.2190   15.1150 C.3   118  VAL118      0.0252
     45  CG1       11.6120    7.2580   15.7380 C.3   118  VAL118      0.0019
     46  CG2       11.3140    4.8450   15.0150 C.3   118  VAL118      0.0019
     47  N         12.9360   16.7100   14.8310 N.3   127  PHE127     -0.1241
     48  CA        13.4990   15.4320   15.2380 C.3   127  PHE127      0.1605
     49  C         14.9670   15.6140   15.6840 C.2   127  PHE127      0.2264
     50  O         15.3960   15.0140   16.6420 O.2   127  PHE127     -0.2867
     51  CB        13.3750   14.4650   14.0710 C.3   127  PHE127      0.0534
     52  CG        14.0580   13.1320   14.3170 C.ar  127  PHE127     -0.0203
     53  CD1       13.4080   12.0830   14.9340 C.ar  127  PHE127     -0.0042
     54  CD2       15.3600   12.9280   13.9090 C.ar  127  PHE127     -0.0042
     55  CE1       14.0150   10.8550   15.1290 C.ar  127  PHE127     -0.0003
     56  CE2       15.9920   11.7390   14.1530 C.ar  127  PHE127     -0.0003
     57  CZ        15.3510   10.7060   14.7560 C.ar  127  PHE127     -0.0000
     58  N         16.4000   14.4580   19.4670 N.3   131  VAL131     -0.1245
     59  CA        17.3390   13.3910   19.8210 C.3   131  VAL131      0.1561
     60  C         18.6010   13.9630   20.4960 C.2   131  VAL131      0.2260
     61  O         19.7470   13.5370   20.6740 O.2   131  VAL131     -0.2867
     62  CB        17.8430   12.6020   18.6030 C.3   131  VAL131      0.0252
     63  CG1       16.6610   11.9620   17.8950 C.3   131  VAL131      0.0019
     64  CG2       18.6500   13.4320   17.6260 C.3   131  VAL131      0.0019
     65  N          9.3060    5.3250   21.1470 N.3   139  VAL139     -0.1245
     66  CA         9.2490    4.2570   20.1510 C.3   139  VAL139      0.1561
     67  C          8.2640    3.2140   20.6410 C.2   139  VAL139      0.2260
     68  O          8.3900    2.7010   21.7600 O.2   139  VAL139     -0.2867
     69  CB        10.6280    3.6660   19.7960 C.3   139  VAL139      0.0252
     70  CG1       10.4750    2.6190   18.6910 C.3   139  VAL139      0.0019
     71  CG2       11.5960    4.7430   19.3660 C.3   139  VAL139      0.0019
     72  N         18.1050    4.6620   21.2870 N.3   194  LEU194     -0.1231
     73  CA        18.0790    4.0680   19.9680 C.3   194  LEU194      0.1693
     74  C         18.8350    2.7500   19.9980 C.2   194  LEU194      0.2593
     75  O         19.8660    2.6400   20.6780 O.2   194  LEU194     -0.2718
     76  CB        18.7650    5.0020   18.9560 C.3   194  LEU194      0.0284
     77  CG        18.2440    6.4420   18.8740 C.3   194  LEU194      0.0019
     78  CD1       19.0910    7.2520   17.8780 C.3   194  LEU194      0.0001
     79  CD2       16.7860    6.4560   18.5090 C.3   194  LEU194      0.0001
     80  N         18.3810    1.7720   19.2100 N.am  195  THR195     -0.1939
     81  CA        19.1040    0.5110   19.1160 C.3   195  THR195      0.2028
     82  C         20.0430    0.4290   17.9650 C.2   195  THR195      0.2643
     83  O         20.7360   -0.6020   17.7900 O.2   195  THR195     -0.2714
     84  CB        18.1360   -0.6800   19.0320 C.3   195  THR195      0.1808
     85  OG1       17.5510   -0.6680   17.7230 O.3   195  THR195     -0.2208
     86  CG2       17.0510   -0.6920   20.1000 C.3   195  THR195      0.0379
     87  N         20.1500    1.4930   17.1600 N.am  196  THR196     -0.1937
     88  CA        21.1740    1.6190   16.1400 C.3   196  THR196      0.2013
     89  C         22.0580    2.8110   16.4860 C.2   196  THR196      0.2484
     90  O         21.6000    3.7790   17.0980 O.2   196  THR196     -0.2729
     91  CB        20.5910    1.8670   14.7220 C.3   196  THR196      0.1807
     92  OG1       19.9320    3.1180   14.6690 O.3   196  THR196     -0.2208
     93  CG2       19.6090    0.7710   14.3680 C.3   196  THR196      0.0379
     94  N         23.3240    2.7730   16.0410 N.am  197  PRO197     -0.2715
     95  CA        24.1220    3.9870   16.0700 C.3   197  PRO197      0.1521
     96  C         23.3250    5.1640   15.5360 C.2   197  PRO197      0.2440
     97  O         22.6490    5.0170   14.4970 O.2   197  PRO197     -0.2731
     98  CB        25.3430    3.6010   15.1920 C.3   197  PRO197      0.0310
     99  CG        25.4850    2.1370   15.4730 C.3   197  PRO197      0.0237
    100  CD        24.0480    1.6230   15.4590 C.3   197  PRO197      0.0939
    101  N         23.3620    6.3340   16.1900 N.am  198  PRO198     -0.2727
    102  CA        24.2820    6.7400   17.2810 C.3   198  PRO198      0.1402
    103  C         23.8800    6.3030   18.6850 C.2   198  PRO198      0.2269
    104  O         24.5350    6.7670   19.6390 O.2   198  PRO198     -0.2865
    105  CB        24.3230    8.2720   17.1390 C.3   198  PRO198      0.0296
    106  CG        22.9750    8.6190   16.5700 C.3   198  PRO198      0.0237
    107  CD        22.6090    7.4950   15.6510 C.3   198  PRO198      0.0939
    108  N         21.6280    6.9750   20.8230 N.3   200  LEU200     -0.1245
    109  CA        21.3220    8.0850   21.7140 C.3   200  LEU200      0.1561
    110  C         20.2820    7.7060   22.7560 C.2   200  LEU200      0.2260
    111  O         19.2910    7.0380   22.4620 O.2   200  LEU200     -0.2867
    112  CB        20.8290    9.3210   20.9250 C.3   200  LEU200      0.0270
    113  CG        21.9070    9.8520   19.9400 C.3   200  LEU200      0.0019
    114  CD1       21.2540   10.8880   19.0290 C.3   200  LEU200      0.0001
    115  CD2       23.1320   10.4120   20.6300 C.3   200  LEU200      0.0001
    116  N         10.6290    3.8440   25.6930 N.3   205  TRP205     -0.1241
    117  CA        10.1810    2.6530   24.9960 C.3   205  TRP205      0.1605
    118  C          8.7980    2.2350   25.5070 C.2   205  TRP205      0.2264
    119  O          8.5780    2.1870   26.7270 O.2   205  TRP205     -0.2867
    120  CB        11.1680    1.4750   25.2070 C.3   205  TRP205      0.0550
    121  CG        12.3060    1.6180   24.2330 C.ar  205  TRP205      0.0003
    122  CD1       13.5310    2.1880   24.4370 C.ar  205  TRP205      0.0946
    123  CD2       12.2610    1.1760   22.8740 C.ar  205  TRP205      0.0152
    124  NE1       14.2590    2.1540   23.2640 N.ar  205  TRP205     -0.2442
    125  CE2       13.4970    1.5380   22.3010 C.ar  205  TRP205      0.0810
    126  CE3       11.3050    0.5400   22.0980 C.ar  205  TRP205      0.0012
    127  CZ2       13.7910    1.2620   20.9460 C.ar  205  TRP205      0.0191
    128  CZ3       11.5950    0.2610   20.7600 C.ar  205  TRP205      0.0001
    129  CH2       12.8390    0.6250   20.2180 C.ar  205  TRP205      0.0015
@<TRIPOS>BOND
     1     5     2    1
     2     5     6    1
     3    14    11    1
     4    14    15    1
     5    11    10    1
     6    11    12    1
     7     2     3    1
     8     2     1    1
     9     6     7    1
    10    12    13    2
    11     3     4    2
    12     8     7    2
    13     7     9   am
    14    15    16   ar
    15    15    17   ar
    16    16    18   ar
    17    20    21    1
    18    17    19   ar
    19    22    21    1
    20    22    23    2
    21    21    24    1
    22    18    19   ar
    23    33    32    2
    24    54    56   ar
    25    54    52   ar
    26    24    25    1
    27    51    52    1
    28    51    48    1
    29    26    25   ar
    30    26    28   ar
    31    56    57   ar
    32    25    27   ar
    33    52    53   ar
    34    93    91    1
    35    28    29   ar
    36    97    96    2
    37    92    91    1
    38    27    29   ar
    39    91    88    1
    40    57    55   ar
    41    47    48    1
    42    43    42    2
    43    30    31    1
    44    53    55   ar
    45    32    31    1
    46    46    44    1
    47    44    45    1
    48    44    41    1
    49    98    99    1
    50    98    95    1
    51    48    49    1
    52    40    41    1
    53   100    99    1
    54   100    94    1
    55    96    95    1
    56    96   101   am
    57    31    34    1
    58   107   101    1
    59   107   106    1
    60    49    50    2
    61    34    35    1
    62    41    42    1
    63    94    95    1
    64    94    89   am
    65    88    89    1
    66    88    87    1
    67   101   102    1
    68    89    90    2
    69   106   105    1
    70    36    35   ar
    71    36    38   ar
    72    35    37   ar
    73   105   102    1
    74    87    82   am
    75   102   103    1
    76    38    39   ar
    77    37    39   ar
    78    64    62    1
    79    85    84    1
    80    83    82    2
    81    78    77    1
    82    63    62    1
    83    82    81    1
    84    79    77    1
    85    62    59    1
    86   103   104    2
    87    70    69    1
    88    77    76    1
    89    76    73    1
    90   114   113    1
    91    84    81    1
    92    84    86    1
    93    81    80    1
    94    80    74   am
    95    71    69    1
    96    58    59    1
    97    69    66    1
    98    59    60    1
    99   113   115    1
   100   113   112    1
   101    73    74    1
   102    73    72    1
   103    74    75    2
   104    66    67    1
   105    66    65    1
   106   129   128   ar
   107   129   127   ar
   108    60    61    2
   109    67    68    2
   110   128   126   ar
   111   108   109    1
   112   112   109    1
   113   127   125   ar
   114   109   110    1
   115   126   123   ar
   116   125   123   ar
   117   125   124   ar
   118   111   110    2
   119   123   121   ar
   120   124   122   ar
   121   121   122   ar
   122   121   120    1
   123   117   120    1
   124   117   118    1
   125   117   116    1
   126   118   119    2
