@<TRIPOS>MOLECULE
tmp/4fq5A00.pdb
 92 86 0 0 0
SMALL
GASTEIGER

@<TRIPOS>ATOM
      1  N        -16.5230   19.5240   10.7720 N.3    10  PRO10      -0.2116
      2  CA       -15.9890   18.3410   10.0990 C.3    10  PRO10       0.1372
      3  C        -16.7270   17.1030   10.5900 C.2    10  PRO10       0.2244
      4  O        -17.0790   17.0270   11.7690 O.2    10  PRO10      -0.2868
      5  CB       -14.5260   18.3060   10.5590 C.3    10  PRO10       0.0268
      6  CG       -14.1920   19.7320   10.8260 C.3    10  PRO10       0.0207
      7  CD       -15.4530   20.3320   11.3940 C.3    10  PRO10       0.0892
      8  N        -15.2930   15.5070   13.5930 N.3    13  ASN13      -0.1240
      9  CA       -15.1170   16.3920   14.7360 C.3    13  ASN13       0.1653
     10  C        -16.1680   16.1000   15.8060 C.2    13  ASN13       0.2266
     11  O        -17.3580   16.0020   15.5030 O.2    13  ASN13      -0.2867
     12  CB       -15.1550   17.8630   14.3020 C.3    13  ASN13       0.1155
     13  CG       -14.7750   18.8190   15.4210 C.2    13  ASN13       0.2627
     14  OD1      -15.5430   19.0410   16.3500 O.2    13  ASN13      -0.2716
     15  ND2      -13.5830   19.3970   15.3290 N.am   13  ASN13      -0.0877
     16  N        -14.6410   14.9640    6.5750 N.3    44  MET44      -0.1245
     17  CA       -13.1840   14.9070    6.6920 C.3    44  MET44       0.1570
     18  C        -12.8200   13.9230    7.7970 C.2    44  MET44       0.2261
     19  O        -13.4160   13.9500    8.8740 O.2    44  MET44      -0.2867
     20  CB       -12.5750   16.2760    7.0050 C.3    44  MET44       0.0387
     21  CG       -11.1000   16.1830    7.3770 C.3    44  MET44       0.0595
     22  SD       -10.2690   17.7530    7.6040 S.3    44  MET44      -0.1393
     23  CE       -10.8940   18.2420    9.2140 C.3    44  MET44       0.0692
     24  N         -6.6230   15.2410    8.5540 N.3    47  VAL47      -0.1245
     25  CA        -6.3400   16.6610    8.3910 C.3    47  VAL47       0.1561
     26  C         -5.1440   16.8310    7.4530 C.2    47  VAL47       0.2260
     27  O         -4.0000   16.9850    7.8970 O.2    47  VAL47      -0.2867
     28  CB        -6.1030   17.3600    9.7530 C.3    47  VAL47       0.0252
     29  CG1       -6.0590   18.8730    9.5830 C.3    47  VAL47       0.0019
     30  CG2       -7.1950   16.9730   10.7510 C.3    47  VAL47       0.0019
     31  N        -13.8550   24.6260   11.5350 N.3    78  CYS78      -0.1221
     32  CA       -12.4580   24.2610   11.2980 C.3    78  CYS78       0.1808
     33  C        -11.5290   25.4110   10.8820 C.2    78  CYS78       0.2601
     34  O        -11.5430   25.9000    9.7720 O.2    78  CYS78      -0.2717
     35  CB       -12.3850   23.1200   10.2960 C.3    78  CYS78       0.0970
     36  SG       -10.7620   22.4300    9.9830 S.3    78  CYS78      -0.0800
     37  N        -10.6960   25.7910   11.8220 N.am   79  LEU79      -0.1965
     38  CA        -9.7230   26.8780   11.6880 C.3    79  LEU79       0.1728
     39  C         -8.7600   26.6690   10.5200 C.2    79  LEU79       0.2616
     40  O         -8.5680   27.5650    9.7080 O.2    79  LEU79      -0.2715
     41  CB        -8.9370   27.0080   13.0030 C.3    79  LEU79       0.0311
     42  CG        -7.7020   27.8630   13.3560 C.3    79  LEU79       0.0022
     43  CD1       -6.5640   27.8630   12.3380 C.3    79  LEU79       0.0001
     44  CD2       -8.0520   29.2760   13.7850 C.3    79  LEU79       0.0001
     45  N         -8.1550   25.4870   10.4510 N.am   80  VAL80      -0.1977
     46  CA        -7.1100   25.2260    9.4660 C.3    80  VAL80       0.1596
     47  C         -7.6510   25.1340    8.0260 C.2    80  VAL80       0.2287
     48  O         -6.9480   25.4580    7.0700 O.2    80  VAL80      -0.2864
     49  CB        -6.2360   24.0090    9.8590 C.3    80  VAL80       0.0276
     50  CG1       -6.9560   22.6870    9.6050 C.3    80  VAL80       0.0022
     51  CG2       -4.8970   24.0620    9.1410 C.3    80  VAL80       0.0022
     52  N         -1.7390   19.8020   14.3430 N.3   135  TYR135     -0.1241
     53  CA        -1.5340   19.5330   12.9220 C.3   135  TYR135      0.1605
     54  C         -0.1300   19.0490   12.5890 C.2   135  TYR135      0.2264
     55  O          0.8160   19.2470   13.3570 O.2   135  TYR135     -0.2867
     56  CB        -1.7780   20.7870   12.0720 C.3   135  TYR135      0.0534
     57  CG        -2.9620   21.6450   12.4480 C.ar  135  TYR135     -0.0201
     58  CD1       -4.2540   21.1190   12.5180 C.ar  135  TYR135     -0.0009
     59  CD2       -2.7900   23.0020   12.6890 C.ar  135  TYR135     -0.0009
     60  CE1       -5.3340   21.9270   12.8440 C.ar  135  TYR135      0.0417
     61  CE2       -3.8550   23.8100   13.0280 C.ar  135  TYR135      0.0417
     62  CZ        -5.1240   23.2710   13.0950 C.ar  135  TYR135      0.1957
     63  OH        -6.1690   24.0990   13.4290 O.3   135  TYR135     -0.2866
     64  N         -7.9610   12.6070   12.6030 N.3   165  ASN165     -0.1240
     65  CA        -8.7670   13.5600   13.3610 C.3   165  ASN165      0.1653
     66  C         -9.4120   12.9530   14.6060 C.2   165  ASN165      0.2266
     67  O         -9.5830   13.6360   15.6110 O.2   165  ASN165     -0.2867
     68  CB        -9.8050   14.2610   12.4760 C.3   165  ASN165      0.1155
     69  CG       -10.1400   15.6630   12.9720 C.2   165  ASN165      0.2627
     70  OD1       -9.2950   16.3390   13.5670 O.2   165  ASN165     -0.2716
     71  ND2      -11.3760   16.1080   12.7290 N.am  165  ASN165     -0.0877
     72  N         -6.7060   24.3790   16.8500 N.3   196  ALA196     -0.1231
     73  CA        -7.6630   23.4390   16.2950 C.3   196  ALA196      0.1694
     74  C         -8.8800   23.3030   17.1850 C.2   196  ALA196      0.2592
     75  O         -8.8290   23.5190   18.4000 O.2   196  ALA196     -0.2718
     76  CB        -7.0230   22.0810   16.0910 C.3   196  ALA196      0.0304
     77  N         -9.9660   22.8940   16.5580 N.am  197  VAL197     -0.1966
     78  CA       -11.2420   22.7820   17.2050 C.3   197  VAL197      0.1727
     79  C        -11.5160   21.3230   17.6090 C.2   197  VAL197      0.2616
     80  O        -12.3770   21.0560   18.4450 O.2   197  VAL197     -0.2715
     81  CB       -12.2920   23.4380   16.2800 C.3   197  VAL197      0.0290
     82  CG1      -13.4810   22.5440   15.9930 C.3   197  VAL197      0.0023
     83  CG2      -12.6840   24.8090   16.8130 C.3   197  VAL197      0.0023
     84  N        -10.7520   20.3840   17.0490 N.am  198  GLN198     -0.1977
     85  CA       -10.8610   18.9760   17.4510 C.3   198  GLN198      0.1601
     86  C        -10.0970   18.6360   18.7380 C.2   198  GLN198      0.2287
     87  O        -10.5110   17.7530   19.4860 O.2   198  GLN198     -0.2864
     88  CB       -10.4230   18.0330   16.3220 C.3   198  GLN198      0.0394
     89  CG       -10.5550   16.5440   16.6280 C.3   198  GLN198      0.0908
     90  CD       -11.9880   16.0370   16.6230 C.2   198  GLN198      0.2608
     91  OE1      -12.8920   16.6460   17.2140 O.2   198  GLN198     -0.2717
     92  NE2      -12.1990   14.8940   15.9740 N.am  198  GLN198     -0.0878
@<TRIPOS>BOND
     1    16    17    1
     2    17    20    1
     3    17    18    1
     4    20    21    1
     5    48    47    2
     6    21    22    1
     7    26    27    2
     8    26    25    1
     9    22    23    1
    10    18    19    2
    11    47    46    1
    12    25    24    1
    13    25    28    1
    14    51    49    1
    15    46    49    1
    16    46    45    1
    17    29    28    1
    18    50    49    1
    19    40    39    2
    20    28    30    1
    21    34    33    2
    22    36    35    1
    23     2     5    1
    24     2     3    1
    25     2     1    1
    26    35    32    1
    27    45    39   am
    28    39    38    1
    29     5     6    1
    30     3     4    2
    31     1     7    1
    32     6     7    1
    33    33    32    1
    34    33    37   am
    35    32    31    1
    36    38    37    1
    37    38    41    1
    38    56    57    1
    39    56    53    1
    40    43    42    1
    41    57    58   ar
    42    57    59   ar
    43    68    69    1
    44    68    65    1
    45    58    60   ar
    46    54    53    1
    47    54    55    2
    48    64    65    1
    49    59    61   ar
    50    71    69   am
    51    60    62   ar
    52    53    52    1
    53    69    70    2
    54    41    42    1
    55    61    62   ar
    56    62    63    1
    57    42    44    1
    58    65    66    1
    59     8     9    1
    60    12     9    1
    61    12    13    1
    62    66    67    2
    63     9    10    1
    64    15    13   am
    65    13    14    2
    66    11    10    2
    67    92    90   am
    68    82    81    1
    69    76    73    1
    70    81    83    1
    71    81    78    1
    72    73    72    1
    73    73    74    1
    74    88    89    1
    75    88    85    1
    76    77    74   am
    77    77    78    1
    78    90    89    1
    79    90    91    2
    80    84    85    1
    81    84    79   am
    82    74    75    2
    83    78    79    1
    84    85    86    1
    85    79    80    2
    86    86    87    2
