@<TRIPOS>MOLECULE
tmp/4fq8A00.pdb
 124 116 0 0 0
SMALL
GASTEIGER

@<TRIPOS>ATOM
      1  N         11.4900   11.3060   33.4730 N.3     8  VAL8       -0.1245
      2  CA        12.6070   10.7060   34.1410 C.3     8  VAL8        0.1561
      3  C         13.8560   11.3890   33.6030 C.2     8  VAL8        0.2260
      4  O         14.0140   11.4920   32.3850 O.2     8  VAL8       -0.2867
      5  CB        12.6870    9.1520   33.9180 C.3     8  VAL8        0.0252
      6  CG1       12.6050    8.7720   32.3850 C.3     8  VAL8        0.0019
      7  CG2       13.9400    8.5240   34.6260 C.3     8  VAL8        0.0019
      8  N         16.8660    4.2550   26.8470 N.3    15  HIS15      -0.1226
      9  CA        16.5030    2.8380   27.0930 C.3    15  HIS15       0.1752
     10  C         15.4980    2.6540   28.2820 C.2    15  HIS15       0.2597
     11  O         15.1750    1.5240   28.6750 O.2    15  HIS15      -0.2718
     12  CB        17.7700    2.1170   27.4790 C.3    15  HIS15       0.0759
     13  CG        18.4220    2.7040   28.6910 C.ar   15  HIS15       0.0818
     14  ND1       18.3100    2.1370   29.9460 N.ar   15  HIS15      -0.2268
     15  CD2       19.0920    3.8710   28.8630 C.ar   15  HIS15       0.1154
     16  CE1       18.9330    2.9000   30.8290 C.ar   15  HIS15       0.1986
     17  NE2       19.4210    3.9570   30.1960 N.ar   15  HIS15      -0.2212
     18  N         15.1050    3.7480   28.9240 N.am   16  SER16      -0.1938
     19  CA        14.2660    3.6200   30.1210 C.3    16  SER16       0.2055
     20  C         12.8740    3.1200   29.7670 C.2    16  SER16       0.2643
     21  O         12.3080    3.5170   28.7410 O.2    16  SER16      -0.2714
     22  CB        14.1540    4.9550   30.8700 C.3    16  SER16       0.2130
     23  OG        13.1330    4.8740   31.8570 O.3    16  SER16      -0.2179
     24  N         12.3260    2.2490   30.6250 N.am   17  LYS17      -0.1963
     25  CA        10.9660    1.7330   30.4370 C.3    17  LYS17       0.1728
     26  C          9.9360    2.4150   31.3440 C.2    17  LYS17       0.2616
     27  O          8.7490    2.0490   31.3030 O.2    17  LYS17      -0.2715
     28  CB        10.8990    0.2080   30.6420 C.3    17  LYS17       0.0311
     29  CG        12.0190   -0.5750   29.9500 C.3    17  LYS17       0.0038
     30  CD        11.4550   -1.8280   29.2840 C.3    17  LYS17       0.0206
     31  CE        11.4490   -1.7360   27.7580 C.3    17  LYS17       0.1093
     32  NZ        10.9970   -0.4100   27.2490 N.3    17  LYS17      -0.1314
     33  N         10.3670    3.4320   32.1160 N.am   18  SER18      -0.1950
     34  CA         9.4320    4.2080   32.9530 C.3    18  SER18       0.1924
     35  C          8.2670    4.8790   32.1810 C.2    18  SER18       0.2314
     36  O          7.1260    4.7670   32.6100 O.2    18  SER18      -0.2863
     37  CB        10.1440    5.2620   33.8070 C.3    18  SER18       0.2116
     38  OG        11.1870    4.6820   34.5340 O.3    18  SER18      -0.2180
     39  N         10.9690   11.0750   37.8470 N.3    63  ASN63      -0.1225
     40  CA        11.9760   10.1650   38.3610 C.3    63  ASN63       0.1785
     41  C         13.3950   10.6200   38.0110 C.2    63  ASN63       0.2597
     42  O         13.6030   11.4310   37.0770 O.2    63  ASN63      -0.2718
     43  CB        11.7400    8.7110   37.8910 C.3    63  ASN63       0.1169
     44  CG        10.6320    8.0160   38.6930 C.2    63  ASN63       0.2627
     45  OD1       10.7290    7.8390   39.9340 O.2    63  ASN63      -0.2716
     46  ND2        9.5470    7.6860   38.0060 N.am   63  ASN63      -0.0877
     47  N         14.3540   10.0240   38.6960 N.am   64  VAL64      -0.1966
     48  CA        15.7410   10.3980   38.5970 C.3    64  VAL64       0.1727
     49  C         16.5240    9.0900   38.5620 C.2    64  VAL64       0.2617
     50  O         16.3980    8.2500   39.4870 O.2    64  VAL64      -0.2715
     51  CB        16.1830   11.2020   39.8400 C.3    64  VAL64       0.0290
     52  CG1       17.6760   11.6610   39.6900 C.3    64  VAL64       0.0023
     53  CG2       15.2400   12.3660   40.0850 C.3    64  VAL64       0.0023
     54  N         17.2860    8.9030   37.4960 N.am   65  THR65      -0.1937
     55  CA        18.2040    7.7980   37.4010 C.3    65  THR65       0.2028
     56  C         19.7190    8.1990   37.4870 C.2    65  THR65       0.2642
     57  O         20.0530    9.3560   37.8050 O.2    65  THR65      -0.2714
     58  CB        17.8860    6.9260   36.1770 C.3    65  THR65       0.1808
     59  OG1       18.4270    5.6210   36.3790 O.3    65  THR65      -0.2208
     60  CG2       18.4850    7.5190   34.9080 C.3    65  THR65       0.0379
     61  N         20.6040    7.2160   37.2610 N.am   66  LEU66      -0.1977
     62  CA        22.0550    7.4330   37.0310 C.3    66  LEU66       0.1596
     63  C         22.3560    8.5500   36.0420 C.2    66  LEU66       0.2287
     64  O         21.7260    8.6170   35.0220 O.2    66  LEU66      -0.2864
     65  CB        22.6370    6.1630   36.4270 C.3    66  LEU66       0.0297
     66  CG        23.1640    5.0010   37.2530 C.3    66  LEU66       0.0022
     67  CD1       22.3210    4.7470   38.5310 C.3    66  LEU66       0.0001
     68  CD2       23.1610    3.7870   36.3250 C.3    66  LEU66       0.0001
     69  N         21.0990   10.5660   41.1750 N.3    69  LYS69      -0.1245
     70  CA        20.3500   10.3430   42.4240 C.3    69  LYS69       0.1561
     71  C         20.9160   11.0590   43.6830 C.2    69  LYS69       0.2260
     72  O         20.1530   11.5830   44.4870 O.2    69  LYS69      -0.2867
     73  CB        20.1830    8.8450   42.6620 C.3    69  LYS69       0.0271
     74  CG        19.2890    8.1690   41.5890 C.3    69  LYS69       0.0035
     75  CD        19.3260    6.6510   41.7340 C.3    69  LYS69       0.0206
     76  CE        18.3270    6.0160   40.7840 C.3    69  LYS69       0.1093
     77  NZ        18.3850    4.5230   40.8090 N.3    69  LYS69      -0.1314
     78  N         15.2690    9.2780   44.0810 N.3    90  ASN90      -0.1240
     79  CA        14.8980    8.8360   42.7370 C.3    90  ASN90       0.1653
     80  C         13.5270    9.3300   42.2540 C.2    90  ASN90       0.2266
     81  O         13.1330    9.0840   41.0840 O.2    90  ASN90      -0.2867
     82  CB        15.0010    7.3400   42.6050 C.3    90  ASN90       0.1155
     83  CG        13.8000    6.6460   43.1430 C.2    90  ASN90       0.2627
     84  OD1       13.2060    7.1030   44.0900 O.2    90  ASN90      -0.2716
     85  ND2       13.3990    5.5530   42.5080 N.am   90  ASN90      -0.0877
     86  N         13.4770    3.3530   45.5280 N.3   105  ASP105     -0.1239
     87  CA        14.3850    2.2890   45.1960 C.3   105  ASP105      0.1674
     88  C         14.5270    1.2660   46.3950 C.2   105  ASP105      0.2266
     89  O         14.5420    0.0340   46.2110 O.2   105  ASP105     -0.2867
     90  CB        15.7700    2.9010   44.8710 C.3   105  ASP105      0.1410
     91  CG        15.9000    3.3640   43.4510 C.2   105  ASP105      0.3668
     92  OD1       15.1470    2.8350   42.5920 O.co2 105  ASP105     -0.2456
     93  OD2       16.8160    4.2280   43.1810 O.co2 105  ASP105     -0.2456
     94  N         21.8350    4.1970   43.7620 N.3   129  SER129     -0.1217
     95  CA        21.2560    2.8520   43.8880 C.3   129  SER129      0.1889
     96  C         21.9550    1.9950   44.9630 C.2   129  SER129      0.2288
     97  O         21.3000    1.2970   45.7400 O.2   129  SER129     -0.2866
     98  CB        21.2710    2.1170   42.5310 C.3   129  SER129      0.2089
     99  OG        20.3930    2.7530   41.5940 O.3   129  SER129     -0.2183
    100  N         12.3810   -5.0700   40.4810 N.3   233  MET233     -0.1230
    101  CA        12.6230   -3.8750   41.2430 C.3   233  MET233      0.1702
    102  C         12.1450   -2.6250   40.5130 C.2   233  MET233      0.2592
    103  O         11.5480   -1.7510   41.1130 O.2   233  MET233     -0.2718
    104  CB        14.1120   -3.7460   41.5840 C.3   233  MET233      0.0401
    105  CG        14.4640   -2.4620   42.3220 C.3   233  MET233      0.0596
    106  SD        16.2720   -2.3460   42.5430 S.3   233  MET233     -0.1393
    107  CE        16.3840   -0.6630   43.0760 C.3   233  MET233      0.0692
    108  N         12.4510   -2.5490   39.2240 N.am  234  LEU234     -0.1980
    109  CA        12.0850   -1.3940   38.4130 C.3   234  LEU234      0.1596
    110  C         10.5650   -1.2100   38.5040 C.2   234  LEU234      0.2287
    111  O         10.0650   -0.1160   38.6730 O.2   234  LEU234     -0.2864
    112  CB        12.4850   -1.6440   36.9690 C.3   234  LEU234      0.0297
    113  CG        12.3790   -0.4530   35.9860 C.3   234  LEU234      0.0022
    114  CD1       13.6970    0.3250   35.9140 C.3   234  LEU234      0.0001
    115  CD2       11.9420   -0.9190   34.5700 C.3   234  LEU234      0.0001
    116  N          9.4380   -0.1010   42.1320 N.3   237  GLN237     -0.1245
    117  CA         9.8110    1.2910   42.5260 C.3   237  GLN237      0.1566
    118  C          9.0210    2.2960   41.6810 C.2   237  GLN237      0.2260
    119  O          8.7180    3.4020   42.1270 O.2   237  GLN237     -0.2867
    120  CB        11.3140    1.5630   42.3920 C.3   237  GLN237      0.0367
    121  CG        11.8120    1.3800   40.9520 C.3   237  GLN237      0.0905
    122  CD        11.6090    2.6020   40.0630 C.2   237  GLN237      0.2608
    123  OE1       11.4270    2.4610   38.8350 O.2   237  GLN237     -0.2717
    124  NE2       11.6090    3.7990   40.6610 N.am  237  GLN237     -0.0878
@<TRIPOS>BOND
     1     8     9    1
     2     9    12    1
     3     9    10    1
     4    32    31    1
     5    12    13    1
     6    31    30    1
     7    10    11    2
     8    10    18   am
     9    13    15   ar
    10    13    14   ar
    11    21    20    2
    12    15    17   ar
    13    18    19    1
    14    30    29    1
    15    20    19    1
    16    20    24   am
    17    14    16   ar
    18    29    28    1
    19    19    22    1
    20    17    16   ar
    21    25    24    1
    22    25    28    1
    23    25    26    1
    24    22    23    1
    25    27    26    2
    26    26    33   am
    27    33    34    1
    28    35    36    2
    29    35    34    1
    30     6     5    1
    31     4     3    2
    32    34    37    1
    33     1     2    1
    34     3     2    1
    35    37    38    1
    36     5     2    1
    37     5     7    1
    38   115   113    1
    39    60    58    1
    40    64    63    2
    41   114   113    1
    42   113   112    1
    43    63    62    1
    44    58    59    1
    45    58    55    1
    46    68    66    1
    47    65    62    1
    48    65    66    1
    49   112   109    1
    50    62    61    1
    51    42    41    2
    52    66    67    1
    53    61    56   am
    54    55    56    1
    55    55    54    1
    56    56    57    2
    57    54    49   am
    58    39    40    1
    59    43    40    1
    60    43    44    1
    61    46    44   am
    62    41    40    1
    63    41    47   am
    64   109   110    1
    65   109   108    1
    66   110   111    2
    67    49    48    1
    68    49    50    2
    69    48    47    1
    70    48    51    1
    71    44    45    2
    72   123   122    2
    73   108   102   am
    74    52    51    1
    75    51    53    1
    76   122   124   am
    77   122   121    1
    78   100   101    1
    79   102   103    2
    80   102   101    1
    81    76    77    1
    82    76    75    1
    83   121   120    1
    84    81    80    2
    85    69    70    1
    86   101   104    1
    87   104   105    1
    88    74    75    1
    89    74    73    1
    90    99    98    1
    91   118   119    2
    92   118   117    1
    93   116   117    1
    94    80    79    1
    95   105   106    1
    96   120   117    1
    97    70    73    1
    98    70    71    1
    99    85    83   am
   100    98    95    1
   101   106   107    1
   102    92    91   ar
   103    82    79    1
   104    82    83    1
   105    79    78    1
   106    83    84    2
   107    93    91   ar
   108    91    90    1
   109    71    72    2
   110    94    95    1
   111    95    96    1
   112    90    87    1
   113    96    97    2
   114    87    86    1
   115    87    88    1
   116    89    88    2
