@<TRIPOS>MOLECULE
tmp/4fqeA04.pdb
 126 128 0 0 0
SMALL
GASTEIGER

@<TRIPOS>ATOM
      1  N          6.2850   13.9760   -9.1580 N.3    27  PHE27      -0.1241
      2  CA         5.4120   14.1550   -7.9850 C.3    27  PHE27       0.1605
      3  C          4.7760   12.8230   -7.6230 C.2    27  PHE27       0.2264
      4  O          4.3820   12.0710   -8.5270 O.2    27  PHE27      -0.2867
      5  CB         4.3210   15.1670   -8.2700 C.3    27  PHE27       0.0534
      6  CG         3.4500   15.4770   -7.0640 C.ar   27  PHE27      -0.0203
      7  CD1        2.1250   15.0840   -7.0180 C.ar   27  PHE27      -0.0042
      8  CD2        3.9780   16.1710   -5.9790 C.ar   27  PHE27      -0.0042
      9  CE1        1.3420   15.3700   -5.8950 C.ar   27  PHE27      -0.0003
     10  CE2        3.1960   16.4770   -4.8710 C.ar   27  PHE27      -0.0003
     11  CZ         1.8930   16.0700   -4.8240 C.ar   27  PHE27      -0.0000
     12  N          3.1840   12.8470    0.4740 N.3    46  ALA46      -0.1231
     13  CA         3.4590   13.5650   -0.7770 C.3    46  ALA46       0.1694
     14  C          4.9690   13.7380   -0.9290 C.2    46  ALA46       0.2593
     15  O          5.6690   13.9330    0.0480 O.2    46  ALA46      -0.2718
     16  CB         2.7600   14.9260   -0.7730 C.3    46  ALA46       0.0304
     17  N          5.4780   13.5980   -2.1530 N.am   47  SER47      -0.1938
     18  CA         6.9060   13.7220   -2.4290 C.3    47  SER47       0.2055
     19  C          7.1710   14.1480   -3.8600 C.2    47  SER47       0.2643
     20  O          6.3100   14.0660   -4.7300 O.2    47  SER47      -0.2714
     21  CB         7.6630   12.4030   -2.1730 C.3    47  SER47       0.2130
     22  OG         7.0660   11.3220   -2.8910 O.3    47  SER47      -0.2179
     23  N          8.4090   14.6010   -4.0850 N.am   48  TYR48      -0.1973
     24  CA         8.9320   14.8440   -5.4350 C.3    48  TYR48       0.1639
     25  C         10.2320   14.0290   -5.5730 C.2    48  TYR48       0.2290
     26  O         11.0980   14.1120   -4.7100 O.2    48  TYR48      -0.2864
     27  CB         9.2350   16.3400   -5.6480 C.3    48  TYR48       0.0560
     28  CG         8.2830   17.0930   -6.5660 C.ar   48  TYR48      -0.0198
     29  CD1        7.3670   18.0370   -6.0500 C.ar   48  TYR48      -0.0009
     30  CD2        8.2760   16.8660   -7.9450 C.ar   48  TYR48      -0.0009
     31  CE1        6.4810   18.7280   -6.8750 C.ar   48  TYR48       0.0417
     32  CE2        7.3690   17.5330   -8.7780 C.ar   48  TYR48       0.0417
     33  CZ         6.4870   18.4780   -8.2390 C.ar   48  TYR48       0.1957
     34  OH         5.6090   19.1600   -9.0550 O.3    48  TYR48      -0.2866
     35  N         13.5080   14.2030   -7.6160 N.3    50  TYR50      -0.1241
     36  CA        14.2860   15.0950   -8.4940 C.3    50  TYR50       0.1605
     37  C         15.5020   14.3250   -9.0060 C.2    50  TYR50       0.2264
     38  O         16.3900   13.9850   -8.2220 O.2    50  TYR50      -0.2867
     39  CB        14.7260   16.3310   -7.7010 C.3    50  TYR50       0.0534
     40  CG        13.5540   17.2200   -7.2170 C.ar   50  TYR50      -0.0201
     41  CD1       12.7740   17.9490   -8.1300 C.ar   50  TYR50      -0.0009
     42  CD2       13.2380   17.3400   -5.8540 C.ar   50  TYR50      -0.0009
     43  CE1       11.7260   18.7530   -7.7060 C.ar   50  TYR50       0.0417
     44  CE2       12.1710   18.1550   -5.4170 C.ar   50  TYR50       0.0417
     45  CZ        11.4330   18.8610   -6.3440 C.ar   50  TYR50       0.1957
     46  OH        10.3920   19.6700   -5.9410 O.3    50  TYR50      -0.2866
     47  N         12.6470   14.6550   -1.4790 N.3    60  PRO60      -0.2102
     48  CA        12.1260   15.1780   -0.2250 C.3    60  PRO60       0.1504
     49  C         10.6830   14.7420   -0.1070 C.2    60  PRO60       0.2576
     50  O         10.0110   14.5960   -1.1210 O.2    60  PRO60      -0.2718
     51  CB        12.2300   16.6900   -0.3890 C.3    60  PRO60       0.0282
     52  CG        12.2710   16.9280   -1.8530 C.3    60  PRO60       0.0208
     53  CD        12.9330   15.7270   -2.4450 C.3    60  PRO60       0.0893
     54  N         10.2150   14.4980    1.1010 N.am   61  GLY61      -0.1943
     55  CA         8.8720   13.9830    1.2530 C.3    61  GLY61       0.2014
     56  C          8.2880   14.4920    2.5270 C.2    61  GLY61       0.2638
     57  O          9.0040   14.8640    3.4320 O.2    61  GLY61      -0.2714
     58  N          6.9690   14.4660    2.5590 N.am   62  PHE62      -0.1973
     59  CA         6.1370   14.9620    3.6460 C.3    62  PHE62       0.1639
     60  C          5.1560   13.8460    3.9650 C.2    62  PHE62       0.2290
     61  O          4.5060   13.3550    3.0650 O.2    62  PHE62      -0.2864
     62  CB         5.3540   16.1750    3.1450 C.3    62  PHE62       0.0560
     63  CG         4.3750   16.7120    4.1360 C.ar   62  PHE62      -0.0200
     64  CD1        4.7730   17.5980    5.1130 C.ar   62  PHE62      -0.0042
     65  CD2        3.0460   16.3180    4.0980 C.ar   62  PHE62      -0.0042
     66  CE1        3.8540   18.0860    6.0270 C.ar   62  PHE62      -0.0003
     67  CE2        2.1250   16.8010    5.0180 C.ar   62  PHE62      -0.0003
     68  CZ         2.5520   17.6770    5.9900 C.ar   62  PHE62      -0.0000
     69  N          4.2170   13.3310   12.4890 N.3    73  TYR73      -0.1241
     70  CA         4.6510   14.0520   11.3130 C.3    73  TYR73       0.1605
     71  C          6.0680   13.5280   11.0260 C.2    73  TYR73       0.2264
     72  O          6.9260   13.5730   11.8780 O.2    73  TYR73      -0.2867
     73  CB         4.6650   15.5470   11.6120 C.3    73  TYR73       0.0534
     74  CG         5.4420   16.3770   10.6420 C.ar   73  TYR73      -0.0201
     75  CD1        5.2680   16.2270    9.2740 C.ar   73  TYR73      -0.0009
     76  CD2        6.3520   17.3140   11.0790 C.ar   73  TYR73      -0.0009
     77  CE1        5.9990   16.9850    8.3700 C.ar   73  TYR73       0.0417
     78  CE2        7.0610   18.1030   10.1760 C.ar   73  TYR73       0.0417
     79  CZ         6.8770   17.9210    8.8210 C.ar   73  TYR73       0.1957
     80  OH         7.5940   18.6830    7.9130 O.3    73  TYR73      -0.2866
     81  N          8.5680   14.0670    7.9780 N.3    75  PRO75      -0.2102
     82  CA         9.1100   14.4830    6.6970 C.3    75  PRO75       0.1504
     83  C         10.3520   13.6380    6.4200 C.2    75  PRO75       0.2576
     84  O         10.8600   13.0170    7.3360 O.2    75  PRO75      -0.2718
     85  CB         9.5320   15.9330    6.9450 C.3    75  PRO75       0.0282
     86  CG         9.9320   15.9420    8.3620 C.3    75  PRO75       0.0208
     87  CD         9.0320   14.9380    9.0680 C.3    75  PRO75       0.0893
     88  N         10.8150   13.5830    5.1830 N.am   76  TYR76      -0.1963
     89  CA        12.0290   12.8130    4.9060 C.3    76  TYR76       0.1771
     90  C         12.8000   13.2940    3.7100 C.2    76  TYR76       0.2619
     91  O         12.2720   14.0300    2.8990 O.2    76  TYR76      -0.2715
     92  CB        11.6880   11.3350    4.7230 C.3    76  TYR76       0.0574
     93  CG        10.8520   10.9940    3.5030 C.ar   76  TYR76      -0.0198
     94  CD1        9.4590   10.8340    3.5970 C.ar   76  TYR76      -0.0009
     95  CD2       11.4440   10.8180    2.2560 C.ar   76  TYR76      -0.0009
     96  CE1        8.6990   10.4820    2.4830 C.ar   76  TYR76       0.0417
     97  CE2       10.6840   10.4940    1.1430 C.ar   76  TYR76       0.0417
     98  CZ         9.3120   10.3180    1.2620 C.ar   76  TYR76       0.1957
     99  OH         8.5660   10.0150    0.1520 O.3    76  TYR76      -0.2866
    100  N         14.0510   12.8650    3.6280 N.am   77  LEU77      -0.1977
    101  CA        14.8920   13.0460    2.4430 C.3    77  LEU77       0.1596
    102  C         15.5230   11.6850    2.0910 C.2    77  LEU77       0.2287
    103  O         16.2000   11.0860    2.9120 O.2    77  LEU77      -0.2864
    104  CB        15.9900   14.0670    2.7150 C.3    77  LEU77       0.0297
    105  CG        16.8320   14.5440    1.5140 C.3    77  LEU77       0.0022
    106  CD1       15.9530   15.1800    0.4410 C.3    77  LEU77       0.0001
    107  CD2       17.9150   15.5510    1.9470 C.3    77  LEU77       0.0001
    108  N         16.7320    9.7360    5.4670 N.3    93  TYR93      -0.1241
    109  CA        16.6400   10.3490    6.8020 C.3    93  TYR93       0.1605
    110  C         15.1980   10.8100    7.0280 C.2    93  TYR93       0.2264
    111  O         14.6530   11.5660    6.2320 O.2    93  TYR93      -0.2867
    112  CB        17.6140   11.5270    6.9460 C.3    93  TYR93       0.0534
    113  CG        17.4570   12.3060    8.2420 C.ar   93  TYR93      -0.0201
    114  CD1       17.6880   11.7060    9.4800 C.ar   93  TYR93      -0.0009
    115  CD2       17.0760   13.6310    8.2230 C.ar   93  TYR93      -0.0009
    116  CE1       17.5300   12.4180   10.6500 C.ar   93  TYR93       0.0417
    117  CE2       16.9080   14.3520    9.3920 C.ar   93  TYR93       0.0417
    118  CZ        17.1550   13.7360   10.5980 C.ar   93  TYR93       0.1957
    119  OH        16.9660   14.4850   11.7280 O.3    93  TYR93      -0.2866
    120  N         13.0340   12.1300   10.2520 N.3    95  PRO95      -0.2116
    121  CA        12.7320   12.4100   11.6320 C.3    95  PRO95       0.1372
    122  C         11.2470   12.1350   11.8870 C.2    95  PRO95       0.2244
    123  O         10.4610   12.0460   10.9370 O.2    95  PRO95      -0.2868
    124  CB        13.0910   13.8920   11.7950 C.3    95  PRO95       0.0268
    125  CG        13.0740   14.4590   10.4390 C.3    95  PRO95       0.0207
    126  CD        13.4120   13.3480    9.5010 C.3    95  PRO95       0.0892
@<TRIPOS>BOND
     1     1     2    1
     2    34    33    1
     3    37    36    1
     4    37    38    2
     5    32    33   ar
     6    32    30   ar
     7     4     3    2
     8    36    39    1
     9    36    35    1
    10     5     2    1
    11     5     6    1
    12    33    31   ar
    13    41    43   ar
    14    41    40   ar
    15     2     3    1
    16    30    28   ar
    17    43    45   ar
    18    39    40    1
    19    40    42   ar
    20     6     7   ar
    21     6     8   ar
    22     7     9   ar
    23    31    29   ar
    24    28    29   ar
    25    28    27    1
    26    45    46    1
    27    45    44   ar
    28     8    10   ar
    29     9    11   ar
    30    42    44   ar
    31    27    24    1
    32    25    24    1
    33    25    26    2
    34    24    23    1
    35    10    11   ar
    36    20    19    2
    37    23    19   am
    38    19    18    1
    39    22    21    1
    40    53    52    1
    41    53    47    1
    42    18    21    1
    43    18    17    1
    44    17    14   am
    45    52    51    1
    46    47    48    1
    47    50    49    2
    48    14    13    1
    49    14    15    2
    50    13    16    1
    51    13    12    1
    52    51    48    1
    53    48    49    1
    54    49    54   am
    55    99    98    1
    56   106   105    1
    57    54    55    1
    58    97    98   ar
    59    97    95   ar
    60    55    56    1
    61    98    96   ar
    62   105   107    1
    63   105   104    1
    64   102   101    1
    65   102   103    2
    66    95    93   ar
    67   101   104    1
    68   101   100    1
    69    96    94   ar
    70    56    58   am
    71    56    57    2
    72    58    59    1
    73    91    90    2
    74    61    60    2
    75    62    59    1
    76    62    63    1
    77    93    94   ar
    78    93    92    1
    79   100    90   am
    80    59    60    1
    81    90    89    1
    82    65    63   ar
    83    65    67   ar
    84    63    64   ar
    85    92    89    1
    86    89    88    1
    87    67    68   ar
    88    64    66   ar
    89    88    83   am
    90   108   109    1
    91    68    66   ar
    92   111   110    2
    93    83    82    1
    94    83    84    2
    95    82    85    1
    96    82    81    1
    97   109   112    1
    98   109   110    1
    99    85    86    1
   100   112   113    1
   101    80    79    1
   102    81    87    1
   103   115   113   ar
   104   115   117   ar
   105   113   114   ar
   106    86    87    1
   107    77    79   ar
   108    77    75   ar
   109    79    78   ar
   110    75    74   ar
   111   117   118   ar
   112   114   116   ar
   113   126   120    1
   114   126   125    1
   115    78    76   ar
   116   120   121    1
   117   125   124    1
   118   118   116   ar
   119   118   119    1
   120    74    76   ar
   121    74    73    1
   122   123   122    2
   123    71    70    1
   124    71    72    2
   125    70    73    1
   126    70    69    1
   127   121   124    1
   128   121   122    1
