@<TRIPOS>MOLECULE
tmp/4fqeA05.pdb
 90 83 0 0 0
SMALL
GASTEIGER

@<TRIPOS>ATOM
      1  N         21.0910   -2.7650  -10.0250 N.3    87  LEU87      -0.1245
      2  CA        21.4770   -2.6040   -8.6280 C.3    87  LEU87       0.1561
      3  C         21.3210   -1.1710   -8.1850 C.2    87  LEU87       0.2260
      4  O         21.9070   -0.2860   -8.8020 O.2    87  LEU87      -0.2867
      5  CB        22.9370   -3.0120   -8.4360 C.3    87  LEU87       0.0270
      6  CG        23.5150   -2.9200   -7.0190 C.3    87  LEU87       0.0019
      7  CD1       22.7220   -3.8510   -6.1140 C.3    87  LEU87       0.0001
      8  CD2       24.9880   -3.3280   -7.0100 C.3    87  LEU87       0.0001
      9  N         19.4900   -1.7270   -0.2640 N.3   108  ILE108     -0.1245
     10  CA        20.2040   -2.2390   -1.4270 C.3   108  ILE108      0.1561
     11  C         19.2630   -3.1890   -2.1240 C.2   108  ILE108      0.2260
     12  O         18.6900   -4.0910   -1.4790 O.2   108  ILE108     -0.2867
     13  CB        21.4710   -3.0230   -1.0670 C.3   108  ILE108      0.0252
     14  CG1       22.3410   -2.2160   -0.1240 C.3   108  ILE108      0.0019
     15  CG2       22.2160   -3.4390   -2.3470 C.3   108  ILE108      0.0019
     16  CD1       23.6440   -2.9080    0.2320 C.3   108  ILE108      0.0001
     17  N         18.4660   -5.4700   -5.7620 N.3   110  TYR110     -0.1241
     18  CA        19.0800   -6.1110   -6.9120 C.3   110  TYR110      0.1605
     19  C         18.0450   -6.8880   -7.6910 C.2   110  TYR110      0.2264
     20  O         17.3460   -7.7410   -7.1340 O.2   110  TYR110     -0.2867
     21  CB        20.1970   -7.0410   -6.4540 C.3   110  TYR110      0.0534
     22  CG        20.8340   -7.7990   -7.6100 C.ar  110  TYR110     -0.0201
     23  CD1       20.7620   -9.1820   -7.6960 C.ar  110  TYR110     -0.0009
     24  CD2       21.4660   -7.1120   -8.6350 C.ar  110  TYR110     -0.0009
     25  CE1       21.3360   -9.8730   -8.7650 C.ar  110  TYR110      0.0417
     26  CE2       22.0390   -7.7830   -9.7020 C.ar  110  TYR110      0.0417
     27  CZ        21.9670   -9.1550   -9.7610 C.ar  110  TYR110      0.1957
     28  OH        22.5250   -9.8080  -10.8240 O.3   110  TYR110     -0.2866
     29  N         15.5710   -8.8250   -5.1110 N.3   118  ILE118     -0.1245
     30  CA        15.9310   -9.0890   -3.7070 C.3   118  ILE118      0.1561
     31  C         16.4140   -7.7590   -3.1080 C.2   118  ILE118      0.2260
     32  O         17.2550   -7.0610   -3.7090 O.2   118  ILE118     -0.2867
     33  CB        16.9720  -10.2300   -3.5730 C.3   118  ILE118      0.0252
     34  CG1       17.2410  -10.6230   -2.0990 C.3   118  ILE118      0.0019
     35  CG2       18.3020   -9.8610   -4.2430 C.3   118  ILE118      0.0019
     36  CD1       16.2660  -11.6120   -1.4620 C.3   118  ILE118      0.0001
     37  N         17.7710   -5.7310    0.5690 N.3   120  TYR120     -0.1241
     38  CA        18.1950   -5.7010    1.9730 C.3   120  TYR120      0.1605
     39  C         17.9840   -4.2670    2.4720 C.2   120  TYR120      0.2264
     40  O         18.2960   -3.3200    1.7710 O.2   120  TYR120     -0.2867
     41  CB        19.6550   -6.1010    2.1580 C.3   120  TYR120      0.0534
     42  CG        20.2160   -5.7970    3.5470 C.ar  120  TYR120     -0.0201
     43  CD1       21.1850   -4.8360    3.7250 C.ar  120  TYR120     -0.0009
     44  CD2       19.7250   -6.4410    4.6890 C.ar  120  TYR120     -0.0009
     45  CE1       21.6820   -4.5220    4.9820 C.ar  120  TYR120      0.0417
     46  CE2       20.2290   -6.1460    5.9490 C.ar  120  TYR120      0.0417
     47  CZ        21.2240   -5.1840    6.0810 C.ar  120  TYR120      0.1957
     48  OH        21.7570   -4.8800    7.3050 O.3   120  TYR120     -0.2866
     49  N         16.9930   -5.3130   10.5650 N.3   134  HIS134     -0.1241
     50  CA        17.4780   -5.9090    9.3260 C.3   134  HIS134      0.1621
     51  C         16.3160   -6.5490    8.6190 C.2   134  HIS134      0.2264
     52  O         15.5580   -7.3400    9.2230 O.2   134  HIS134     -0.2867
     53  CB        18.5060   -6.9630    9.6300 C.3   134  HIS134      0.0745
     54  CG        19.7470   -6.4570   10.3400 C.ar  134  HIS134      0.0817
     55  ND1       20.7870   -5.9190    9.6790 N.ar  134  HIS134     -0.2268
     56  CD2       20.1130   -6.4980   11.6820 C.ar  134  HIS134      0.1154
     57  CE1       21.7570   -5.5740   10.5610 C.ar  134  HIS134      0.1986
     58  NE2       21.3450   -5.9380   11.7870 N.ar  134  HIS134     -0.2212
     59  N         14.9170   -8.4060    4.8430 N.3   136  VAL136     -0.1245
     60  CA        15.0810   -8.9350    3.4920 C.3   136  VAL136      0.1561
     61  C         13.7300   -9.1410    2.8030 C.2   136  VAL136      0.2260
     62  O         12.8280   -9.7900    3.3340 O.2   136  VAL136     -0.2867
     63  CB        15.8300  -10.2710    3.5290 C.3   136  VAL136      0.0252
     64  CG1       16.0670  -10.7760    2.1210 C.3   136  VAL136      0.0019
     65  CG2       17.1380  -10.1340    4.2980 C.3   136  VAL136      0.0019
     66  N         14.5160   -9.0490   11.1970 N.3   154  ASN154     -0.1240
     67  CA        14.8060   -9.1620   12.6130 C.3   154  ASN154      0.1653
     68  C         14.7800   -7.7940   13.2380 C.2   154  ASN154      0.2266
     69  O         15.4310   -6.8540   12.7790 O.2   154  ASN154     -0.2867
     70  CB        16.1480   -9.8280   12.8860 C.3   154  ASN154      0.1155
     71  CG        16.1250  -11.3270   12.6520 C.2   154  ASN154      0.2627
     72  OD1       17.0000  -11.8430   11.9720 O.2   154  ASN154     -0.2716
     73  ND2       15.1500  -12.0380   13.2360 N.am  154  ASN154     -0.0877
     74  N         15.4760   -5.7370   16.6200 N.3   156  SER156     -0.1217
     75  CA        16.2830   -5.7500   17.8510 C.3   156  SER156      0.1889
     76  C         16.2980   -4.3990   18.6050 C.2   156  SER156      0.2288
     77  O         16.8330   -3.3730   18.1220 O.2   156  SER156     -0.2866
     78  CB        17.7020   -6.2000   17.5160 C.3   156  SER156      0.2089
     79  OG        17.7280   -7.6180   17.3290 O.3   156  SER156     -0.2183
     80  N         16.1050   -9.8320   18.4710 N.3   157  ARG157     -0.1245
     81  CA        15.2830  -10.4990   19.4740 C.3   157  ARG157      0.1563
     82  C         14.1310  -11.2760   18.8390 C.2   157  ARG157      0.2260
     83  O         13.9500  -12.4410   19.1570 O.2   157  ARG157     -0.2867
     84  CB        14.7320   -9.4880   20.4820 C.3   157  ARG157      0.0307
     85  CG        15.6700   -9.1580   21.6340 C.3   157  ARG157      0.0489
     86  CD        15.7830  -10.2920   22.6490 C.3   157  ARG157      0.2205
     87  NE        14.4830  -10.8930   22.9640 N.pl3 157  ARG157     -0.0865
     88  CZ        13.5140  -10.3060   23.6730 C.cat 157  ARG157      0.5346
     89  NH1       13.6660   -9.0800   24.1650 N.pl3 157  ARG157      0.1354
     90  NH2       12.3700  -10.9500   23.8900 N.pl3 157  ARG157      0.1354
@<TRIPOS>BOND
     1    28    27    1
     2     1     2    1
     3    27    26   ar
     4    27    25   ar
     5    26    24   ar
     6     4     3    2
     7    25    23   ar
     8    24    22   ar
     9     2     5    1
    10     2     3    1
    11     5     6    1
    12    23    22   ar
    13    19    20    2
    14    19    18    1
    15    22    21    1
    16     6     8    1
    17     6     7    1
    18    18    21    1
    19    18    17    1
    20    29    30    1
    21    35    33    1
    22    32    31    2
    23    30    33    1
    24    30    31    1
    25    33    34    1
    26    15    13    1
    27    11    12    2
    28    11    10    1
    29    34    36    1
    30    10    13    1
    31    10     9    1
    32    13    14    1
    33    14    16    1
    34    37    38    1
    35    40    39    2
    36    38    41    1
    37    38    39    1
    38    64    63    1
    39    41    42    1
    40    61    62    2
    41    61    60    1
    42    60    63    1
    43    60    59    1
    44    63    65    1
    45    42    43   ar
    46    42    44   ar
    47    43    45   ar
    48    44    46   ar
    49    45    47   ar
    50    46    47   ar
    51    47    48    1
    52    51    52    2
    53    51    50    1
    54    50    53    1
    55    50    49    1
    56    53    54    1
    57    55    54   ar
    58    55    57   ar
    59    54    56   ar
    60    57    58   ar
    61    66    67    1
    62    56    58   ar
    63    72    71    2
    64    67    70    1
    65    67    68    1
    66    71    70    1
    67    71    73   am
    68    69    68    2
    69    74    75    1
    70    79    78    1
    71    78    75    1
    72    75    76    1
    73    77    76    2
    74    80    81    1
    75    82    83    2
    76    82    81    1
    77    81    84    1
    78    84    85    1
    79    85    86    1
    80    86    87    1
    81    87    88    2
    82    88    90    1
    83    88    89    1
