@<TRIPOS>MOLECULE
tmp/4fqjA01.pdb
 70 66 0 0 0
SMALL
GASTEIGER

@<TRIPOS>ATOM
      1  N         -8.7940    9.6000    9.6790 N.3     7  SER7       -0.1202
      2  CA       -10.1740   10.0020    9.8050 C.3     7  SER7        0.2020
      3  C        -10.7370   10.3580    8.4310 C.2     7  SER7        0.2618
      4  O        -10.0060   10.4010    7.4560 O.2     7  SER7       -0.2717
      5  CB       -10.2640   11.2030   10.7230 C.3     7  SER7        0.2103
      6  OG       -11.6220   11.4950   10.9850 O.3     7  SER7       -0.2182
      7  N        -12.0370   10.6100    8.3720 N.am    8  TYR8       -0.1975
      8  CA       -12.6900   10.9920    7.1330 C.3     8  TYR8        0.1639
      9  C        -12.1800   12.3360    6.6270 C.2     8  TYR8        0.2290
     10  O        -11.6450   13.1380    7.4040 O.2     8  TYR8       -0.2864
     11  CB       -14.2160   11.0120    7.2910 C.3     8  TYR8        0.0560
     12  CG       -14.7480   11.6460    8.5550 C.ar    8  TYR8       -0.0198
     13  CD1      -14.5200   12.9910    8.8380 C.ar    8  TYR8       -0.0009
     14  CD2      -15.5210   10.9080    9.4570 C.ar    8  TYR8       -0.0009
     15  CE1      -15.0300   13.5810    9.9810 C.ar    8  TYR8        0.0417
     16  CE2      -16.0370   11.4980   10.6160 C.ar    8  TYR8        0.0417
     17  CZ       -15.7830   12.8320   10.8690 C.ar    8  TYR8        0.1957
     18  OH       -16.2840   13.4340   12.0080 O.3     8  TYR8       -0.2866
     19  N        -12.8070   16.1570    5.0210 N.3    10  ALA10      -0.1245
     20  CA       -13.7150   17.1850    5.5320 C.3    10  ALA10       0.1562
     21  C        -13.7250   18.4080    4.6510 C.2    10  ALA10       0.2260
     22  O        -12.9640   18.4980    3.7000 O.2    10  ALA10      -0.2867
     23  CB       -13.3010   17.5790    6.9600 C.3    10  ALA10       0.0290
     24  N        -11.5050   24.5990    6.2240 N.3    13  LYS13      -0.1245
     25  CA       -12.0670   25.7000    7.0180 C.3    13  LYS13       0.1561
     26  C        -12.3160   27.0250    6.2760 C.2    13  LYS13       0.2260
     27  O        -13.4700   27.4750    6.1630 O.2    13  LYS13      -0.2867
     28  CB       -11.2480   25.9270    8.2940 C.3    13  LYS13       0.0271
     29  CG       -11.6350   27.1540    9.0980 C.3    13  LYS13       0.0035
     30  CD       -11.1800   27.0100   10.5480 C.3    13  LYS13       0.0206
     31  CE       -11.2350   28.3270   11.3200 C.3    13  LYS13       0.1093
     32  NZ       -10.1760   29.2760   10.8620 N.3    13  LYS13      -0.1314
     33  N        -18.0530   17.6500    8.0860 N.3   258  GLY258     -0.1210
     34  CA       -17.6740   18.7610    8.9200 C.3   258  GLY258      0.1956
     35  C        -16.5420   19.5550    8.3090 C.2   258  GLY258      0.2612
     36  O        -16.3410   19.5640    7.0880 O.2   258  GLY258     -0.2717
     37  N        -15.7810   20.1940    9.1840 N.am  259  GLU259     -0.1965
     38  CA       -14.7780   21.1610    8.8020 C.3   259  GLU259      0.1733
     39  C        -13.4570   20.8670    9.5090 C.2   259  GLU259      0.2616
     40  O        -13.4400   20.5130   10.6940 O.2   259  GLU259     -0.2715
     41  CB       -15.3010   22.5550    9.1610 C.3   259  GLU259      0.0429
     42  CG       -14.3050   23.6810    9.0110 C.3   259  GLU259      0.1163
     43  CD       -14.9370   25.0630    9.2200 C.2   259  GLU259      0.3649
     44  OE1      -14.4660   25.7980   10.1200 O.co2 259  GLU259     -0.2457
     45  OE2      -15.8920   25.4170    8.4780 O.co2 259  GLU259     -0.2457
     46  N        -12.3550   21.0120    8.7800 N.am  260  ALA260     -0.1977
     47  CA       -11.0210   20.7440    9.3130 C.3   260  ALA260      0.1597
     48  C        -10.0590   21.8470    8.8940 C.2   260  ALA260      0.2287
     49  O        -10.2500   22.4550    7.8640 O.2   260  ALA260     -0.2864
     50  CB       -10.5290   19.4340    8.7990 C.3   260  ALA260      0.0319
     51  N         -9.1560   14.6160    7.2780 N.3   269  GLY269     -0.1210
     52  CA        -9.3870   15.9090    7.8960 C.3   269  GLY269      0.1956
     53  C         -8.5940   16.0680    9.1720 C.2   269  GLY269      0.2612
     54  O         -8.6190   15.1990   10.0490 O.2   269  GLY269     -0.2717
     55  N         -7.8820   17.1770    9.2860 N.am  270  LEU270     -0.1965
     56  CA        -6.9600   17.3410   10.4020 C.3   270  LEU270      0.1728
     57  C         -6.9720   18.7560   10.9820 C.2   270  LEU270      0.2616
     58  O         -6.5240   19.6890   10.3250 O.2   270  LEU270     -0.2715
     59  CB        -5.5540   16.9540    9.9330 C.3   270  LEU270      0.0311
     60  CG        -4.3440   16.9970   10.8650 C.3   270  LEU270      0.0022
     61  CD1       -4.6930   16.4360   12.2350 C.3   270  LEU270      0.0001
     62  CD2       -3.2040   16.2180   10.2170 C.3   270  LEU270      0.0001
     63  N         -7.5050   18.9090   12.1990 N.am  271  ASN271     -0.1972
     64  CA        -7.4300   20.1850   12.9280 C.3   271  ASN271      0.1688
     65  C         -6.0650   20.4420   13.5330 C.2   271  ASN271      0.2292
     66  O         -5.3800   19.5200   13.9850 O.2   271  ASN271     -0.2864
     67  CB        -8.4340   20.2700   14.0710 C.3   271  ASN271      0.1181
     68  CG        -9.7910   20.7550   13.6310 C.2   271  ASN271      0.2629
     69  OD1       -9.9190   21.5120   12.6620 O.2   271  ASN271     -0.2716
     70  ND2      -10.8280   20.3150   14.3540 N.am  271  ASN271     -0.0877
@<TRIPOS>BOND
     1    22    21    2
     2    21    20    1
     3    19    20    1
     4    20    23    1
     5    27    26    2
     6    24    25    1
     7    26    25    1
     8     9     8    1
     9     9    10    2
    10    25    28    1
    11    36    35    2
    12     8    11    1
    13     8     7    1
    14    51    52    1
    15    11    12    1
    16     4     3    2
    17    49    48    2
    18    52    53    1
    19    33    34    1
    20    28    29    1
    21    35    34    1
    22    35    37   am
    23     7     3   am
    24     3     2    1
    25    45    43   ar
    26    12    13   ar
    27    12    14   ar
    28    46    47    1
    29    46    39   am
    30    50    47    1
    31    38    41    1
    32    38    37    1
    33    38    39    1
    34    13    15   ar
    35    48    47    1
    36    42    41    1
    37    42    43    1
    38    29    30    1
    39    53    55   am
    40    53    54    2
    41    43    44   ar
    42    55    56    1
    43    14    16   ar
    44    39    40    2
    45     1     2    1
    46     2     5    1
    47    59    56    1
    48    59    60    1
    49    15    17   ar
    50    62    60    1
    51    58    57    2
    52    56    57    1
    53    30    31    1
    54    16    17   ar
    55     5     6    1
    56    32    31    1
    57    60    61    1
    58    17    18    1
    59    57    63   am
    60    63    64    1
    61    69    68    2
    62    64    65    1
    63    64    67    1
    64    65    66    2
    65    68    67    1
    66    68    70   am
