@<TRIPOS>MOLECULE
tmp/4fqmH00.pdb
 86 82 0 0 0
SMALL
GASTEIGER

@<TRIPOS>ATOM
      1  N          8.7490  307.4580  189.8950 N.3    18  ILE18      -0.1231
      2  CA         8.7610  307.9020  188.5080 C.3    18  ILE18       0.1692
      3  C          8.5670  309.4220  188.4890 C.2    18  ILE18       0.2592
      4  O          8.6170  310.0700  187.4340 O.2    18  ILE18      -0.2718
      5  CB         7.6580  307.2040  187.6810 C.3    18  ILE18       0.0266
      6  CG1        7.4490  305.7670  188.1670 C.3    18  ILE18       0.0019
      7  CG2        7.9950  307.2340  186.1870 C.3    18  ILE18       0.0020
      8  CD1        8.6020  304.8480  187.8470 C.3    18  ILE18       0.0001
      9  N          8.3650  309.9810  189.6800 N.am   19  ALA19      -0.1966
     10  CA         8.0720  311.4000  189.8450 C.3    19  ALA19       0.1728
     11  C          9.2670  312.2920  189.4960 C.2    19  ALA19       0.2617
     12  O          9.1120  313.3220  188.8410 O.2    19  ALA19      -0.2715
     13  CB         7.5860  311.6720  191.2690 C.3    19  ALA19       0.0334
     14  N         10.4570  311.8870  189.9270 N.am   20  GLY20      -0.1940
     15  CA        11.6600  312.6670  189.6920 C.3    20  GLY20       0.2014
     16  C         12.9070  311.8050  189.6200 C.2    20  GLY20       0.2638
     17  O         12.8280  310.5820  189.6950 O.2    20  GLY20      -0.2714
     18  N         14.0600  312.4410  189.4420 N.am   21  TRP21      -0.1973
     19  CA        15.3310  311.7180  189.3780 C.3    21  TRP21       0.1640
     20  C         15.9460  311.3670  190.7400 C.2    21  TRP21       0.2290
     21  O         16.6410  310.3580  190.8610 O.2    21  TRP21      -0.2864
     22  CB        16.3400  312.4670  188.5020 C.3    21  TRP21       0.0576
     23  CG        16.0010  312.4230  187.0430 C.ar   21  TRP21       0.0006
     24  CD1       15.0760  311.6220  186.4410 C.ar   21  TRP21       0.0946
     25  CD2       16.5800  313.2200  186.0040 C.ar   21  TRP21       0.0152
     26  NE1       15.0450  311.8690  185.0890 N.ar   21  TRP21      -0.2442
     27  CE2       15.9580  312.8470  184.7960 C.ar   21  TRP21       0.0810
     28  CE3       17.5640  314.2110  185.9780 C.ar   21  TRP21       0.0012
     29  CZ2       16.2870  313.4290  183.5780 C.ar   21  TRP21       0.0191
     30  CZ3       17.8910  314.7850  184.7690 C.ar   21  TRP21       0.0001
     31  CH2       17.2560  314.3920  183.5860 C.ar   21  TRP21       0.0015
     32  N         11.3600  317.4980  193.4300 N.3    38  LEU38      -0.1245
     33  CA        11.2430  318.1210  192.1140 C.3    38  LEU38       0.1561
     34  C         12.2720  319.2210  191.8250 C.2    38  LEU38       0.2260
     35  O         12.6800  319.3920  190.6760 O.2    38  LEU38      -0.2867
     36  CB         9.8210  318.6500  191.8830 C.3    38  LEU38       0.0270
     37  CG         8.7370  317.5980  191.6530 C.3    38  LEU38       0.0019
     38  CD1        7.3980  318.2580  191.3580 C.3    38  LEU38       0.0001
     39  CD2        9.1370  316.6590  190.5280 C.3    38  LEU38       0.0001
     40  N         15.5440  317.6350  190.5540 N.3    41  THR41      -0.1203
     41  CA        15.3270  317.1800  189.1870 C.3    41  THR41       0.1994
     42  C         15.2740  318.3560  188.2040 C.2    41  THR41       0.2617
     43  O         15.9200  318.3270  187.1510 O.2    41  THR41      -0.2717
     44  CB        14.0340  316.3590  189.0730 C.3    41  THR41       0.1784
     45  OG1       13.9040  315.5100  190.2180 O.3    41  THR41      -0.2211
     46  CG2       14.0500  315.5120  187.8080 C.3    41  THR41       0.0376
     47  N         14.5120  319.3890  188.5530 N.am   42  GLN42      -0.1979
     48  CA        14.4080  320.5750  187.7120 C.3    42  GLN42       0.1601
     49  C         15.7790  321.2130  187.4950 C.2    42  GLN42       0.2287
     50  O         16.1260  321.5770  186.3670 O.2    42  GLN42      -0.2864
     51  CB        13.4290  321.5860  188.3140 C.3    42  GLN42       0.0394
     52  CG        13.3000  322.8810  187.5240 C.3    42  GLN42       0.0908
     53  CD        12.6210  322.6980  186.1720 C.2    42  GLN42       0.2608
     54  OE1       12.0880  321.6290  185.8630 O.2    42  GLN42      -0.2717
     55  NE2       12.6340  323.7530  185.3610 N.am   42  GLN42      -0.0878
     56  N         17.7450  319.1320  185.0500 N.3    45  ILE45      -0.1245
     57  CA        17.2050  319.3970  183.7200 C.3    45  ILE45       0.1561
     58  C         17.7250  320.7180  183.1490 C.2    45  ILE45       0.2260
     59  O         18.0270  320.8030  181.9550 O.2    45  ILE45      -0.2867
     60  CB        15.6590  319.3870  183.7260 C.3    45  ILE45       0.0252
     61  CG1       15.1340  317.9880  184.0400 C.3    45  ILE45       0.0019
     62  CG2       15.0920  319.8570  182.3910 C.3    45  ILE45       0.0019
     63  CD1       13.6560  317.9450  184.3230 C.3    45  ILE45       0.0001
     64  N         21.4040  320.4880  182.1400 N.3    48  ILE48      -0.1231
     65  CA        21.4350  319.8090  180.8510 C.3    48  ILE48       0.1692
     66  C         20.9950  320.6720  179.6570 C.2    48  ILE48       0.2592
     67  O         21.6900  320.7250  178.6400 O.2    48  ILE48      -0.2718
     68  CB        20.6080  318.5270  180.9020 C.3    48  ILE48       0.0266
     69  CG1       21.1100  317.6480  182.0440 C.3    48  ILE48       0.0019
     70  CG2       20.6910  317.7910  179.5760 C.3    48  ILE48       0.0020
     71  CD1       20.1360  316.5790  182.4500 C.3    48  ILE48       0.0001
     72  N         19.8550  321.3460  179.7780 N.am   49  THR49      -0.1953
     73  CA        19.3470  322.1600  178.6700 C.3    49  THR49       0.1897
     74  C         20.3170  323.2930  178.2970 C.2    49  THR49       0.2313
     75  O         20.6350  323.5010  177.1140 O.2    49  THR49      -0.2863
     76  CB        17.9250  322.7220  178.9550 C.3    49  THR49       0.1794
     77  OG1       17.9260  323.4570  180.1840 O.3    49  THR49      -0.2208
     78  CG2       16.8960  321.5920  179.0430 C.3    49  THR49       0.0378
     79  N         23.2040  321.9880  176.4780 N.3    52  LEU52      -0.1245
     80  CA        22.8510  321.7490  175.0890 C.3    52  LEU52       0.1561
     81  C         22.9140  323.0130  174.2490 C.2    52  LEU52       0.2260
     82  O         23.4050  322.9750  173.1230 O.2    52  LEU52      -0.2867
     83  CB        21.4540  321.1470  174.9810 C.3    52  LEU52       0.0270
     84  CG        20.9950  320.8800  173.5460 C.3    52  LEU52       0.0019
     85  CD1       20.2440  319.5940  173.5060 C.3    52  LEU52       0.0001
     86  CD2       20.1140  322.0030  173.0050 C.3    52  LEU52       0.0001
@<TRIPOS>BOND
     1    86    84    1
     2    82    81    2
     3    85    84    1
     4    84    83    1
     5    81    80    1
     6    83    80    1
     7    80    79    1
     8    75    74    2
     9    74    73    1
    10    67    66    2
    11    73    76    1
    12    73    72    1
    13    76    78    1
    14    76    77    1
    15    70    68    1
    16    66    72   am
    17    66    65    1
    18    65    68    1
    19    65    64    1
    20    68    69    1
    21    59    58    2
    22    69    71    1
    23    62    60    1
    24    58    57    1
    25    29    31   ar
    26    29    27   ar
    27    31    30   ar
    28    57    60    1
    29    57    56    1
    30    60    61    1
    31    61    63    1
    32    30    28   ar
    33    27    26   ar
    34    27    25   ar
    35    26    24   ar
    36    55    53   am
    37    54    53    2
    38    28    25   ar
    39    25    23   ar
    40    53    52    1
    41     7     5    1
    42    50    49    2
    43    24    23   ar
    44    23    22    1
    45    43    42    2
    46     4     3    2
    47    49    48    1
    48    52    51    1
    49     5     6    1
    50     5     2    1
    51    48    51    1
    52    48    47    1
    53    46    44    1
    54     8     6    1
    55    42    47   am
    56    42    41    1
    57     3     2    1
    58     3     9   am
    59    22    19    1
    60     2     1    1
    61    12    11    2
    62    44    41    1
    63    44    45    1
    64    41    40    1
    65    19    18    1
    66    19    20    1
    67    18    16   am
    68    11    10    1
    69    11    14   am
    70    16    15    1
    71    16    17    2
    72     9    10    1
    73    15    14    1
    74    10    13    1
    75    39    37    1
    76    35    34    2
    77    20    21    2
    78    38    37    1
    79    37    36    1
    80    34    33    1
    81    36    33    1
    82    33    32    1
