@<TRIPOS>MOLECULE
tmp/4fqsB00.pdb
 165 159 0 0 0
SMALL
GASTEIGER

@<TRIPOS>ATOM
      1  N          4.6780    0.4840    8.9290 N.3    20  ASP20      -0.1225
      2  CA         3.6350   -0.3830    9.4550 C.3    20  ASP20       0.1805
      3  C          3.5790   -1.7390    8.7610 C.2    20  ASP20       0.2598
      4  O          4.1670   -1.9360    7.7000 O.2    20  ASP20      -0.2718
      5  CB         2.2690    0.3070    9.3780 C.3    20  ASP20       0.1424
      6  CG         1.6300    0.1970    7.9980 C.2    20  ASP20       0.3668
      7  OD1        2.1670    0.7830    7.0270 O.co2  20  ASP20      -0.2456
      8  OD2        0.5830   -0.4750    7.8880 O.co2  20  ASP20      -0.2456
      9  N          2.8580   -2.6640    9.3810 N.am   21  ARG21      -0.1966
     10  CA         2.7170   -4.0190    8.8730 C.3    21  ARG21       0.1729
     11  C          2.3820   -4.0770    7.3780 C.2    21  ARG21       0.2616
     12  O          2.9760   -4.8690    6.6360 O.2    21  ARG21      -0.2715
     13  CB         1.6490   -4.7600    9.6750 C.3    21  ARG21       0.0348
     14  CG         1.1780   -6.0680    9.0290 C.3    21  ARG21       0.0492
     15  CD        -0.0130   -6.6690    9.7740 C.3    21  ARG21       0.2205
     16  NE        -1.1970   -5.8120    9.6930 N.pl3  21  ARG21      -0.0865
     17  CZ        -2.0310   -5.7700    8.6550 C.cat  21  ARG21       0.5346
     18  NH1       -1.8210   -6.5370    7.5870 N.pl3  21  ARG21       0.1354
     19  NH2       -3.0750   -4.9500    8.6820 N.pl3  21  ARG21       0.1354
     20  N          1.4430   -3.2380    6.9410 N.am   22  THR22      -0.1951
     21  CA         0.9490   -3.2930    5.5580 C.3    22  THR22       0.1897
     22  C          1.9730   -2.7670    4.5530 C.2    22  THR22       0.2313
     23  O          1.8240   -2.9510    3.3460 O.2    22  THR22      -0.2863
     24  CB        -0.3770   -2.4980    5.3590 C.3    22  THR22       0.1794
     25  OG1       -0.1170   -1.0840    5.3870 O.3    22  THR22      -0.2208
     26  CG2       -1.4330   -2.8650    6.4400 C.3    22  THR22       0.0378
     27  N        -22.4060   -4.8260    9.2790 N.3    58  GLU58      -0.1245
     28  CA       -21.2220   -5.3750    9.9400 C.3    58  GLU58       0.1567
     29  C        -21.5480   -5.6300   11.4090 C.2    58  GLU58       0.2260
     30  O        -21.2250   -6.6920   11.9530 O.2    58  GLU58      -0.2867
     31  CB       -19.9950   -4.4550    9.8220 C.3    58  GLU58       0.0388
     32  CG       -18.7350   -5.0560   10.4860 C.3    58  GLU58       0.1160
     33  CD       -17.6190   -4.0440   10.6740 C.2    58  GLU58       0.3649
     34  OE1      -17.9240   -2.8740   11.0140 O.co2  58  GLU58      -0.2457
     35  OE2      -16.4420   -4.4190   10.4830 O.co2  58  GLU58      -0.2457
     36  N        -14.9450   -6.5830    4.3160 N.3    80  TRP80      -0.1241
     37  CA       -14.0280   -7.5710    4.8880 C.3    80  TRP80       0.1605
     38  C        -13.3810   -8.4840    3.8480 C.2    80  TRP80       0.2264
     39  O        -12.6790   -9.4290    4.1970 O.2    80  TRP80      -0.2867
     40  CB       -14.7260   -8.4040    5.9700 C.3    80  TRP80       0.0550
     41  CG       -14.6930   -7.7230    7.2840 C.ar   80  TRP80       0.0003
     42  CD1      -15.6860   -6.9720    7.8500 C.ar   80  TRP80       0.0946
     43  CD2      -13.5980   -7.7080    8.2050 C.ar   80  TRP80       0.0152
     44  NE1      -15.2700   -6.4880    9.0770 N.ar   80  TRP80      -0.2442
     45  CE2      -13.9970   -6.9360    9.3180 C.ar   80  TRP80       0.0810
     46  CE3      -12.3190   -8.2740    8.2000 C.ar   80  TRP80       0.0012
     47  CZ2      -13.1590   -6.7100   10.4000 C.ar   80  TRP80       0.0191
     48  CZ3      -11.4930   -8.0590    9.2870 C.ar   80  TRP80       0.0001
     49  CH2      -11.9140   -7.2790   10.3670 C.ar   80  TRP80       0.0015
     50  N        -14.2250  -10.8210   15.9820 N.3    94  TYR94      -0.1241
     51  CA       -15.1520  -10.1230   16.8720 C.3    94  TYR94       0.1605
     52  C        -16.4030  -10.9000   17.2590 C.2    94  TYR94       0.2264
     53  O        -16.6220  -11.1920   18.4310 O.2    94  TYR94      -0.2867
     54  CB       -15.5640   -8.7910   16.2570 C.3    94  TYR94       0.0534
     55  CG       -14.4070   -7.9100   15.8480 C.ar   94  TYR94      -0.0201
     56  CD1      -13.7380   -7.1280   16.7850 C.ar   94  TYR94      -0.0009
     57  CD2      -14.0060   -7.8370   14.5190 C.ar   94  TYR94      -0.0009
     58  CE1      -12.6860   -6.3050   16.4120 C.ar   94  TYR94       0.0417
     59  CE2      -12.9590   -7.0210   14.1350 C.ar   94  TYR94       0.0417
     60  CZ       -12.3000   -6.2660   15.0850 C.ar   94  TYR94       0.1957
     61  OH       -11.2610   -5.4540   14.6950 O.3    94  TYR94      -0.2866
     62  N         -7.1720  -10.9810   11.1370 N.3   143  LEU143     -0.1231
     63  CA        -6.5900   -9.7880   11.7470 C.3   143  LEU143      0.1678
     64  C         -6.9700   -9.8160   13.2220 C.2   143  LEU143      0.2434
     65  O         -8.1190  -10.1220   13.5490 O.2   143  LEU143     -0.2733
     66  CB        -7.1930   -8.5210   11.1410 C.3   143  LEU143      0.0284
     67  CG        -6.7610   -7.9990    9.7750 C.3   143  LEU143      0.0019
     68  CD1       -7.6320   -6.7950    9.3900 C.3   143  LEU143      0.0001
     69  CD2       -5.2810   -7.6250    9.7910 C.3   143  LEU143      0.0001
     70  N         -6.0300   -9.4740   14.1160 N.am  144  PRO144     -0.2729
     71  CA        -6.4120   -9.3830   15.5330 C.3   144  PRO144      0.1401
     72  C         -7.3980   -8.2300   15.7280 C.2   144  PRO144      0.2269
     73  O         -7.3800   -7.2750   14.9460 O.2   144  PRO144     -0.2865
     74  CB        -5.0900   -9.0660   16.2420 C.3   144  PRO144      0.0296
     75  CG        -4.0060   -9.4290   15.2510 C.3   144  PRO144      0.0237
     76  CD        -4.6050   -9.1890   13.8960 C.3   144  PRO144      0.0939
     77  N         -9.2020   -4.9070   16.3260 N.3   146  CYS146     -0.1221
     78  CA        -8.8000   -3.5110   16.4600 C.3   146  CYS146      0.1808
     79  C         -9.6100   -2.8700   17.5700 C.2   146  CYS146      0.2601
     80  O         -9.0510   -2.3460   18.5360 O.2   146  CYS146     -0.2717
     81  CB        -9.0310   -2.7600   15.1540 C.3   146  CYS146      0.0970
     82  SG        -7.9720   -3.3850   13.8190 S.3   146  CYS146     -0.0800
     83  N        -10.9320   -2.9010   17.4200 N.am  147  HIS147     -0.1975
     84  CA       -11.8090   -2.5240   18.5260 C.3   147  HIS147      0.1656
     85  C        -11.8540   -3.7170   19.4790 C.2   147  HIS147      0.2291
     86  O        -12.5720   -4.6750   19.2470 O.2   147  HIS147     -0.2864
     87  CB       -13.2070   -2.0650   18.0480 C.3   147  HIS147      0.0771
     88  CG       -13.8620   -2.9550   17.0290 C.ar  147  HIS147      0.0820
     89  ND1      -14.9290   -3.7760   17.3380 N.ar  147  HIS147     -0.2267
     90  CD2      -13.6670   -3.0840   15.6920 C.ar  147  HIS147      0.1154
     91  CE1      -15.3320   -4.4060   16.2470 C.ar  147  HIS147      0.1986
     92  NE2      -14.5860   -4.0000   15.2320 N.ar  147  HIS147     -0.2212
     93  N         -9.6330    0.8630   21.4680 N.3   165  GLN165     -0.1231
     94  CA        -9.2720    0.4240   20.1180 C.3   165  GLN165      0.1698
     95  C         -7.7470    0.4970   19.9460 C.2   165  GLN165      0.2592
     96  O         -7.1730    1.5850   19.8910 O.2   165  GLN165     -0.2718
     97  CB        -9.9850    1.3010   19.0890 C.3   165  GLN165      0.0381
     98  CG        -9.7000    0.8580   17.6490 C.3   165  GLN165      0.0905
     99  CD       -10.6650    1.4220   16.6160 C.2   165  GLN165      0.2608
    100  OE1      -11.7920    1.8140   16.9300 O.2   165  GLN165     -0.2717
    101  NE2      -10.2200    1.4430   15.3570 N.am  165  GLN165     -0.0878
    102  N         -7.0910   -0.6560   19.8590 N.am  166  ARG166     -0.1966
    103  CA        -5.6190   -0.7000   19.8650 C.3   166  ARG166      0.1729
    104  C         -4.9820   -0.1040   18.6050 C.2   166  ARG166      0.2616
    105  O         -3.8260    0.3300   18.6220 O.2   166  ARG166     -0.2715
    106  CB        -5.1370   -2.1440   20.0070 C.3   166  ARG166      0.0348
    107  CG        -5.5170   -2.9840   18.8130 C.3   166  ARG166      0.0492
    108  CD        -4.6390   -4.2200   18.6130 C.3   166  ARG166      0.2205
    109  NE        -5.0760   -4.9010   17.4000 N.pl3 166  ARG166     -0.0865
    110  CZ        -4.5120   -4.7510   16.2040 C.cat 166  ARG166      0.5346
    111  NH1       -3.4310   -3.9920   16.0620 N.pl3 166  ARG166      0.1354
    112  NH2       -5.0230   -5.3820   15.1520 N.pl3 166  ARG166      0.1354
    113  N         -5.7220   -0.1370   17.5040 N.am  167  SER167     -0.1950
    114  CA        -5.1890    0.2750   16.2170 C.3   167  SER167      0.1924
    115  C         -6.3050    0.9520   15.4470 C.2   167  SER167      0.2314
    116  O         -7.4110    0.4090   15.3400 O.2   167  SER167     -0.2863
    117  CB        -4.6430   -0.9370   15.4620 C.3   167  SER167      0.2116
    118  OG        -3.9850   -0.5390   14.2750 O.3   167  SER167     -0.2180
    119  N         -7.1950    3.0510   11.9820 N.3   169  ASP169     -0.1239
    120  CA        -7.0830    3.6120   10.6340 C.3   169  ASP169      0.1674
    121  C         -8.0090    4.8220   10.6240 C.2   169  ASP169      0.2266
    122  O         -9.2340    4.6910   10.4820 O.2   169  ASP169     -0.2867
    123  CB        -7.5410    2.5390    9.6450 C.3   169  ASP169      0.1410
    124  CG        -7.5630    3.0070    8.2010 C.2   169  ASP169      0.3668
    125  OD1       -7.5660    4.2230    7.9380 O.co2 169  ASP169     -0.2456
    126  OD2       -7.6200    2.1280    7.3270 O.co2 169  ASP169     -0.2456
    127  N        -11.2310    3.4340    8.7920 N.3   173  GLY173     -0.1225
    128  CA       -11.7960    2.5690    9.8100 C.3   173  GLY173      0.1811
    129  C        -12.5900    3.2840   10.8900 C.2   173  GLY173      0.2280
    130  O        -13.6740    2.8440   11.2740 O.2   173  GLY173     -0.2866
    131  N        -16.0500    2.6430   13.0490 N.3   177  ASN177     -0.1240
    132  CA       -16.0130    2.2200   14.4490 C.3   177  ASN177      0.1653
    133  C        -16.8850    3.1030   15.3440 C.2   177  ASN177      0.2266
    134  O        -17.5630    2.6100   16.2280 O.2   177  ASN177     -0.2867
    135  CB       -14.5750    2.1890   14.9850 C.3   177  ASN177      0.1155
    136  CG       -13.6910    1.1900   14.2440 C.2   177  ASN177      0.2627
    137  OD1      -12.6280    1.5420   13.7320 O.2   177  ASN177     -0.2716
    138  ND2      -14.1260   -0.0660   14.1950 N.am  177  ASN177     -0.0877
    139  N         -3.5470    6.3180   13.5630 N.3   207  HIS207     -0.1241
    140  CA        -2.7540    6.6320   12.3780 C.3   207  HIS207      0.1621
    141  C         -3.5560    7.0730   11.1680 C.2   207  HIS207      0.2264
    142  O         -4.6790    6.6470   10.9620 O.2   207  HIS207     -0.2867
    143  CB        -1.8790    5.4350   11.9750 C.3   207  HIS207      0.0745
    144  CG        -2.6260    4.1390   11.8920 C.ar  207  HIS207      0.0817
    145  ND1       -2.8130    3.3150   12.9830 N.ar  207  HIS207     -0.2268
    146  CD2       -3.2510    3.5370   10.8530 C.ar  207  HIS207      0.1154
    147  CE1       -3.5000    2.2490   12.6120 C.ar  207  HIS207      0.1986
    148  NE2       -3.7770    2.3580   11.3230 N.ar  207  HIS207     -0.2212
    149  N         -3.0350    6.7390    7.1420 N.3   209  TYR209     -0.1241
    150  CA        -2.2160    6.1140    6.1050 C.3   209  TYR209      0.1605
    151  C         -1.6880    7.1600    5.1190 C.2   209  TYR209      0.2264
    152  O         -2.3770    8.1300    4.7960 O.2   209  TYR209     -0.2867
    153  CB        -2.9930    4.9970    5.3950 C.3   209  TYR209      0.0534
    154  CG        -2.9930    3.7010    6.1910 C.ar  209  TYR209     -0.0201
    155  CD1       -1.8330    2.9380    6.2960 C.ar  209  TYR209     -0.0009
    156  CD2       -4.1440    3.2480    6.8430 C.ar  209  TYR209     -0.0009
    157  CE1       -1.8100    1.7650    7.0220 C.ar  209  TYR209      0.0417
    158  CE2       -4.1270    2.0650    7.5790 C.ar  209  TYR209      0.0417
    159  CZ        -2.9570    1.3360    7.6610 C.ar  209  TYR209      0.1957
    160  OH        -2.9040    0.1660    8.3750 O.3   209  TYR209     -0.2866
    161  N         -5.5710   -0.2860    3.2860 N.3   262  ALA262     -0.1245
    162  CA        -4.2810   -0.9520    3.4840 C.3   262  ALA262      0.1562
    163  C         -4.4910   -2.3930    3.9610 C.2   262  ALA262      0.2260
    164  O         -5.1800   -2.6300    4.9430 O.2   262  ALA262     -0.2867
    165  CB        -3.4210   -0.1770    4.4740 C.3   262  ALA262      0.0290
@<TRIPOS>BOND
     1   161   162    1
     2    23    22    2
     3   162   163    1
     4   162   165    1
     5    38    39    2
     6    38    37    1
     7   163   164    2
     8    36    37    1
     9    22    21    1
    10   152   151    2
    11    37    40    1
    12   151   150    1
    13    24    25    1
    14    24    21    1
    15    24    26    1
    16   153   150    1
    17   153   154    1
    18    21    20    1
    19    40    41    1
    20   150   149    1
    21   154   155   ar
    22   154   156   ar
    23   155   157   ar
    24    12    11    2
    25   156   158   ar
    26    20    11   am
    27   157   159   ar
    28     7     6   ar
    29    41    42   ar
    30    41    43   ar
    31   126   124   ar
    32    11    10    1
    33   158   159   ar
    34    18    17    1
    35   159   160    1
    36     4     3    2
    37    42    44   ar
    38     8     6   ar
    39   125   124   ar
    40     6     5    1
    41    46    43   ar
    42    46    48   ar
    43   124   123    1
    44    43    45   ar
    45    17    19    1
    46    17    16    2
    47     3     9   am
    48     3     2    1
    49   127   128    1
    50    10     9    1
    51    10    13    1
    52     1     2    1
    53    14    13    1
    54    14    15    1
    55    44    45   ar
    56    27    28    1
    57    48    49   ar
    58    45    47   ar
    59     5     2    1
    60    68    67    1
    61   123   120    1
    62    16    15    1
    63    67    69    1
    64    67    66    1
    65   128   129    1
    66    31    28    1
    67    31    32    1
    68    28    29    1
    69    49    47   ar
    70   122   121    2
    71    35    33   ar
    72    32    33    1
    73   121   120    1
    74   120   119    1
    75    33    34   ar
    76   146   148   ar
    77   146   144   ar
    78   129   130    2
    79   142   141    2
    80    62    63    1
    81    66    63    1
    82   141   140    1
    83   148   147   ar
    84    29    30    2
    85    63    64    1
    86   144   143    1
    87   144   145   ar
    88   143   140    1
    89   140   139    1
    90   147   145   ar
    91   131   132    1
    92    64    65    2
    93    64    70   am
    94   137   136    2
    95    82    81    1
    96    76    70    1
    97    76    75    1
    98    70    71    1
    99    59    57   ar
   100    59    60   ar
   101   138   136   am
   102   136   135    1
   103   118   117    1
   104   132   135    1
   105   132   133    1
   106    57    55   ar
   107    61    60    1
   108    73    72    2
   109    60    58   ar
   110   112   110    1
   111    81    78    1
   112    92    90   ar
   113    92    91   ar
   114    75    74    1
   115   116   115    2
   116   133   134    2
   117   101    99   am
   118   115   114    1
   119   117   114    1
   120    71    72    1
   121    71    74    1
   122    90    88   ar
   123    55    54    1
   124    55    56   ar
   125    50    51    1
   126   111   110    1
   127   110   109    2
   128   114   113    1
   129    91    89   ar
   130    54    51    1
   131    77    78    1
   132    58    56   ar
   133    78    79    1
   134    99   100    2
   135    99    98    1
   136    51    52    1
   137    88    89   ar
   138    88    87    1
   139    52    53    2
   140   109   108    1
   141    83    79   am
   142    83    84    1
   143   113   104   am
   144    79    80    2
   145    98    97    1
   146    87    84    1
   147    84    85    1
   148   104   105    2
   149   104   103    1
   150   108   107    1
   151   107   106    1
   152    97    94    1
   153    86    85    2
   154   102   103    1
   155   102    95   am
   156   103   106    1
   157    96    95    2
   158    95    94    1
   159    94    93    1
