@<TRIPOS>MOLECULE
tmp/4fqtA00.pdb
 99 95 0 0 0
SMALL
GASTEIGER

@<TRIPOS>ATOM
      1  N          9.9150   17.2660   14.3600 N.3    73  LEU73      -0.1231
      2  CA         9.4670   15.8790   14.3160 C.3    73  LEU73       0.1693
      3  C         10.3190   14.9800   13.4230 C.2    73  LEU73       0.2591
      4  O         10.4370   13.7740   13.6940 O.2    73  LEU73      -0.2718
      5  CB         7.9930   15.7870   13.9080 C.3    73  LEU73       0.0284
      6  CG         6.9520   16.3000   14.9000 C.3    73  LEU73       0.0019
      7  CD1        5.6210   16.3630   14.1790 C.3    73  LEU73       0.0001
      8  CD2        6.8810   15.4460   16.2100 C.3    73  LEU73       0.0001
      9  N         10.9490   15.5600   12.3980 N.am   74  GLU74      -0.1979
     10  CA        11.8110   14.7700   11.5360 C.3    74  GLU74       0.1602
     11  C         13.0590   14.3720   12.3340 C.2    74  GLU74       0.2287
     12  O         13.4780   13.2160   12.3060 O.2    74  GLU74      -0.2864
     13  CB        12.2000   15.5040   10.2580 C.3    74  GLU74       0.0415
     14  CG        11.0160   15.8970    9.3610 C.3    74  GLU74       0.1163
     15  CD        11.4280   16.7710    8.1770 C.2    74  GLU74       0.3649
     16  OE1       12.5910   17.2300    8.1340 O.co2  74  GLU74      -0.2457
     17  OE2       10.5820   16.9950    7.2810 O.co2  74  GLU74      -0.2457
     18  N         13.3040   14.0510   15.5450 N.3    76  LEU76      -0.1231
     19  CA        12.8750   13.0520   16.5150 C.3    76  LEU76       0.1693
     20  C         12.7820   11.6640   15.8960 C.2    76  LEU76       0.2592
     21  O         13.3060   10.6960   16.4610 O.2    76  LEU76      -0.2718
     22  CB        11.5340   13.4440   17.1720 C.3    76  LEU76       0.0284
     23  CG        10.9420   12.4550   18.1930 C.3    76  LEU76       0.0019
     24  CD1       11.9370   12.1760   19.3420 C.3    76  LEU76       0.0001
     25  CD2        9.5690   12.8480   18.7160 C.3    76  LEU76       0.0001
     26  N         12.1270   11.5740   14.7350 N.am   77  HIS77      -0.1976
     27  CA        11.9910   10.2880   14.0410 C.3    77  HIS77       0.1656
     28  C         13.3450    9.6620   13.6850 C.2    77  HIS77       0.2291
     29  O         13.5420    8.4630   13.8800 O.2    77  HIS77      -0.2864
     30  CB        11.1130   10.4490   12.7810 C.3    77  HIS77       0.0771
     31  CG        10.4200    9.1790   12.3640 C.ar   77  HIS77       0.0820
     32  ND1       10.3810    8.7380   11.0550 N.ar   77  HIS77      -0.2267
     33  CD2        9.7950    8.2210   13.0960 C.ar   77  HIS77       0.1154
     34  CE1        9.7360    7.5870   10.9940 C.ar   77  HIS77       0.1986
     35  NE2        9.3720    7.2480   12.2180 N.ar   77  HIS77      -0.2212
     36  N         15.3330    7.7610   16.5180 N.3    80  LEU80      -0.1245
     37  CA        14.7810    6.5360   17.0540 C.3    80  LEU80       0.1561
     38  C         15.4030    5.3460   16.3430 C.2    80  LEU80       0.2260
     39  O         15.7880    5.4220   15.1760 O.2    80  LEU80      -0.2867
     40  CB        13.2700    6.4750   16.8910 C.3    80  LEU80       0.0270
     41  CG        12.4460    7.5380   17.5860 C.3    80  LEU80       0.0019
     42  CD1       10.9880    7.3420   17.1790 C.3    80  LEU80       0.0001
     43  CD2       12.6500    7.5530   19.1000 C.3    80  LEU80       0.0001
     44  N          6.2800    4.5290   15.1500 N.3    88  ALA88      -0.1231
     45  CA         6.3600    5.9260   15.5930 C.3    88  ALA88       0.1694
     46  C          5.6720    6.8680   14.5740 C.2    88  ALA88       0.2591
     47  O          4.9640    7.7970   14.9520 O.2    88  ALA88      -0.2718
     48  CB         7.7750    6.3220   15.8560 C.3    88  ALA88       0.0304
     49  N          5.8460    6.5770   13.2930 N.am   89  MET89      -0.1979
     50  CA         5.2280    7.3450   12.2220 C.3    89  MET89       0.1605
     51  C          3.7080    7.3150   12.2480 C.2    89  MET89       0.2287
     52  O          3.0660    8.3680   12.1810 O.2    89  MET89      -0.2864
     53  CB         5.7630    6.8440   10.8780 C.3    89  MET89       0.0413
     54  CG         5.6580    7.8050    9.7090 C.3    89  MET89       0.0598
     55  SD         6.3570    7.1010    8.2040 S.3    89  MET89      -0.1393
     56  CE         5.3860    5.6220    7.9840 C.3    89  MET89       0.0692
     57  N          1.9530    6.5640   14.9180 N.3    91  MET91      -0.1230
     58  CA         1.7080    7.2070   16.2040 C.3    91  MET91       0.1702
     59  C          1.6490    8.7250   16.0610 C.2    91  MET91       0.2593
     60  O          0.8240    9.3850   16.6660 O.2    91  MET91      -0.2718
     61  CB         2.8310    6.8300   17.1780 C.3    91  MET91       0.0401
     62  CG         2.6440    7.3320   18.5940 C.3    91  MET91       0.0596
     63  SD         4.0320    6.8830   19.6610 S.3    91  MET91      -0.1393
     64  CE         3.9550    5.0920   19.6350 C.3    91  MET91       0.0692
     65  N          2.5370    9.2900   15.2490 N.am   92  GLY92      -0.1942
     66  CA         2.6120   10.7440   15.1540 C.3    92  GLY92       0.2014
     67  C          1.9150   11.4430   13.9710 C.2    92  GLY92       0.2638
     68  O          1.8860   12.6820   13.9240 O.2    92  GLY92      -0.2714
     69  N          1.3100   10.6790   13.0580 N.am   93  LYS93      -0.1977
     70  CA         0.8200   11.2130   11.7740 C.3    93  LYS93       0.1596
     71  C         -0.3640   12.1600   11.9280 C.2    93  LYS93       0.2287
     72  O         -0.6400   12.9650   11.0350 O.2    93  LYS93      -0.2864
     73  CB         0.4630   10.0940   10.7810 C.3    93  LYS93       0.0298
     74  CG        -0.7440    9.2890   11.2010 C.3    93  LYS93       0.0038
     75  CD        -0.9540    8.0200   10.3510 C.3    93  LYS93       0.0206
     76  CE        -2.1650    7.2760   10.8900 C.3    93  LYS93       0.1093
     77  NZ        -2.4450    5.9960   10.2310 N.3    93  LYS93      -0.1314
     78  N          0.7630   16.3620   14.2960 N.3    96  LEU96      -0.1245
     79  CA         1.8280   17.1340   13.6410 C.3    96  LEU96       0.1561
     80  C          1.9940   18.5540   14.1550 C.2    96  LEU96       0.2260
     81  O          3.0860   19.1510   14.0220 O.2    96  LEU96      -0.2867
     82  CB         1.6000   17.2140   12.1150 C.3    96  LEU96       0.0270
     83  CG         1.5660   15.9200   11.2980 C.3    96  LEU96       0.0019
     84  CD1        1.2440   16.2590    9.8330 C.3    96  LEU96       0.0001
     85  CD2        2.8590   15.1610   11.4190 C.3    96  LEU96       0.0001
     86  N          0.2220   11.2380   21.2000 N.3   114  TRP114     -0.1241
     87  CA         0.8980    9.9850   20.8360 C.3   114  TRP114      0.1605
     88  C          0.2700    8.8570   21.6490 C.2   114  TRP114      0.2264
     89  O         -0.0600    7.8100   21.0970 O.2   114  TRP114     -0.2867
     90  CB         2.4010   10.0580   21.1220 C.3   114  TRP114      0.0550
     91  CG         3.2000   10.9790   20.2280 C.ar  114  TRP114      0.0003
     92  CD1        2.8920   11.3570   18.9540 C.ar  114  TRP114      0.0946
     93  CD2        4.4480   11.6190   20.5420 C.ar  114  TRP114      0.0152
     94  NE1        3.8740   12.1620   18.4500 N.ar  114  TRP114     -0.2442
     95  CE2        4.8370   12.3500   19.4040 C.ar  114  TRP114      0.0810
     96  CE3        5.2760   11.6360   21.6720 C.ar  114  TRP114      0.0012
     97  CZ2        6.0150   13.1040   19.3590 C.ar  114  TRP114      0.0191
     98  CZ3        6.4530   12.4010   21.6310 C.ar  114  TRP114      0.0001
     99  CH2        6.8080   13.1200   20.4800 C.ar  114  TRP114      0.0015
@<TRIPOS>BOND
     1    17    15   ar
     2    56    55    1
     3    16    15   ar
     4    15    14    1
     5    55    54    1
     6    14    13    1
     7    54    53    1
     8    84    83    1
     9    77    76    1
    10    13    10    1
    11    75    76    1
    12    75    74    1
    13    73    74    1
    14    73    70    1
    15    53    50    1
    16    34    32   ar
    17    34    35   ar
    18    72    71    2
    19    32    31   ar
    20    83    85    1
    21    83    82    1
    22    10    11    1
    23    10     9    1
    24    70    71    1
    25    70    69    1
    26    82    79    1
    27    52    51    2
    28    35    33   ar
    29    50    51    1
    30    50    49    1
    31    12    11    2
    32    31    30    1
    33    31    33   ar
    34     9     3   am
    35    30    27    1
    36    69    67   am
    37    49    46   am
    38     3     4    2
    39     3     2    1
    40    79    80    1
    41    79    78    1
    42    28    29    2
    43    28    27    1
    44     5     2    1
    45     5     6    1
    46    68    67    2
    47    67    66    1
    48    81    80    2
    49    27    26    1
    50     7     6    1
    51     2     1    1
    52    46    47    2
    53    46    45    1
    54    26    20   am
    55     6     8    1
    56    57    58    1
    57    44    45    1
    58    66    65    1
    59    39    38    2
    60    65    59   am
    61    18    19    1
    62    45    48    1
    63    20    21    2
    64    20    19    1
    65    59    58    1
    66    59    60    2
    67    58    61    1
    68    38    37    1
    69    19    22    1
    70    36    37    1
    71    40    37    1
    72    40    41    1
    73    22    23    1
    74    61    62    1
    75    42    41    1
    76    41    43    1
    77    23    25    1
    78    23    24    1
    79    94    92   ar
    80    94    95   ar
    81    62    63    1
    82    92    91   ar
    83    97    95   ar
    84    97    99   ar
    85    95    93   ar
    86    64    63    1
    87    91    93   ar
    88    91    90    1
    89    99    98   ar
    90    93    96   ar
    91    87    90    1
    92    87    86    1
    93    87    88    1
    94    89    88    2
    95    98    96   ar
