@<TRIPOS>MOLECULE
tmp/4fqtA01.pdb
 160 153 0 0 0
SMALL
GASTEIGER

@<TRIPOS>ATOM
      1  N         17.5150    2.2130   23.3100 N.3    15  LEU15      -0.1245
      2  CA        16.9280    3.5380   23.4760 C.3    15  LEU15       0.1561
      3  C         16.7650    3.9480   24.9240 C.2    15  LEU15       0.2260
      4  O         17.1850    5.0370   25.3140 O.2    15  LEU15      -0.2867
      5  CB        15.5810    3.6420   22.7550 C.3    15  LEU15       0.0270
      6  CG        14.9290    5.0320   22.7740 C.3    15  LEU15       0.0019
      7  CD1       15.8680    6.0960   22.2290 C.3    15  LEU15       0.0001
      8  CD2       13.5910    5.0070   22.0450 C.3    15  LEU15       0.0001
      9  N         20.1260    4.8750   26.3180 N.3    18  ALA18      -0.1231
     10  CA        20.6440    6.1720   25.9150 C.3    18  ALA18       0.1694
     11  C         19.9200    7.3040   26.6290 C.2    18  ALA18       0.2591
     12  O         20.5230    8.3320   26.9070 O.2    18  ALA18      -0.2718
     13  CB        20.5290    6.3420   24.3910 C.3    18  ALA18       0.0304
     14  N         18.6180    7.1280   26.8740 N.am   19  LEU19      -0.1980
     15  CA        17.7980    8.1290   27.5730 C.3    19  LEU19       0.1596
     16  C         18.0160    8.2840   29.0850 C.2    19  LEU19       0.2287
     17  O         17.7500    9.3690   29.6410 O.2    19  LEU19      -0.2864
     18  CB        16.3060    7.9140   27.3010 C.3    19  LEU19       0.0297
     19  CG        15.8880    8.3780   25.9060 C.3    19  LEU19       0.0022
     20  CD1       14.4890    7.9280   25.5540 C.3    19  LEU19       0.0001
     21  CD2       15.9860    9.8950   25.8390 C.3    19  LEU19       0.0001
     22  N         19.7910   11.3250   30.4350 N.3    22  LEU22      -0.1245
     23  CA        18.9920   12.5070   30.1380 C.3    22  LEU22       0.1561
     24  C         17.8550   12.5480   31.1460 C.2    22  LEU22       0.2260
     25  O         17.4510   13.6190   31.5760 O.2    22  LEU22      -0.2867
     26  CB        18.4680   12.4890   28.7060 C.3    22  LEU22       0.0270
     27  CG        19.5020   12.8520   27.6320 C.3    22  LEU22       0.0019
     28  CD1       20.6350   11.8720   27.5460 C.3    22  LEU22       0.0001
     29  CD2       18.7940   12.9510   26.2840 C.3    22  LEU22       0.0001
     30  N         13.4400   16.7970   28.1460 N.3    58  LEU58      -0.1231
     31  CA        13.9420   15.6190   27.4440 C.3    58  LEU58       0.1693
     32  C         14.1860   15.8950   25.9470 C.2    58  LEU58       0.2592
     33  O         15.2170   15.4870   25.4050 O.2    58  LEU58      -0.2718
     34  CB        12.9820   14.4480   27.6210 C.3    58  LEU58       0.0284
     35  CG        13.5370   13.0760   27.9300 C.3    58  LEU58       0.0019
     36  CD1       14.4580   13.0890   29.1550 C.3    58  LEU58       0.0001
     37  CD2       12.3470   12.1590   28.1480 C.3    58  LEU58       0.0001
     38  N         13.2730   16.6350   25.3050 N.am   59  PHE59      -0.1976
     39  CA        13.4070   16.9680   23.8830 C.3    59  PHE59       0.1639
     40  C         14.6450   17.8360   23.6570 C.2    59  PHE59       0.2290
     41  O         15.3990   17.6410   22.6980 O.2    59  PHE59      -0.2864
     42  CB        12.1630   17.6880   23.3450 C.3    59  PHE59       0.0560
     43  CG        10.9300   16.8360   23.2360 C.ar   59  PHE59      -0.0200
     44  CD1        9.7030   17.3060   23.6830 C.ar   59  PHE59      -0.0042
     45  CD2       10.9790   15.5960   22.6100 C.ar   59  PHE59      -0.0042
     46  CE1        8.5490   16.5270   23.5420 C.ar   59  PHE59      -0.0003
     47  CE2        9.8480   14.8250   22.4670 C.ar   59  PHE59      -0.0003
     48  CZ         8.6310   15.2850   22.9380 C.ar   59  PHE59      -0.0000
     49  N         17.8270   15.8350   24.2820 N.3    62  ALA62      -0.1245
     50  CA        17.9780   14.8820   23.1790 C.3    62  ALA62       0.1562
     51  C         18.3600   15.5700   21.8590 C.2    62  ALA62       0.2260
     52  O         18.6050   14.9170   20.8430 O.2    62  ALA62      -0.2867
     53  CB        16.6960   14.0700   23.0050 C.3    62  ALA62       0.0290
     54  N         16.4410   17.3500   19.7700 N.3    64  VAL64      -0.1245
     55  CA        15.4480   17.1980   18.7130 C.3    64  VAL64       0.1561
     56  C         14.5040   18.3880   18.6420 C.2    64  VAL64       0.2260
     57  O         13.3330   18.2520   18.2990 O.2    64  VAL64      -0.2867
     58  CB        14.6850   15.8580   18.8330 C.3    64  VAL64       0.0252
     59  CG1       15.6440   14.6840   18.6650 C.3    64  VAL64       0.0019
     60  CG2       13.9610   15.7630   20.1660 C.3    64  VAL64       0.0019
     61  N         13.3040   14.0510   15.5450 N.3    76  LEU76      -0.1245
     62  CA        12.8750   13.0520   16.5150 C.3    76  LEU76       0.1561
     63  C         12.7820   11.6640   15.8960 C.2    76  LEU76       0.2260
     64  O         13.3060   10.6960   16.4610 O.2    76  LEU76      -0.2867
     65  CB        11.5340   13.4440   17.1720 C.3    76  LEU76       0.0270
     66  CG        10.9420   12.4550   18.1930 C.3    76  LEU76       0.0019
     67  CD1       11.9370   12.1760   19.3420 C.3    76  LEU76       0.0001
     68  CD2        9.5690   12.8480   18.7160 C.3    76  LEU76       0.0001
     69  N         16.0680   10.0520   15.2650 N.3    79  SER79      -0.1202
     70  CA        16.8260    9.6900   16.4670 C.3    79  SER79       0.2020
     71  C         16.3740    8.3510   17.0830 C.2    79  SER79       0.2618
     72  O         16.9970    7.8320   18.0030 O.2    79  SER79      -0.2717
     73  CB        16.7240   10.8160   17.5020 C.3    79  SER79       0.2103
     74  OG        15.5000   10.7860   18.2110 O.3    79  SER79      -0.2182
     75  N         15.3330    7.7610   16.5180 N.am   80  LEU80      -0.1979
     76  CA        14.7810    6.5360   17.0540 C.3    80  LEU80       0.1596
     77  C         15.4030    5.3460   16.3430 C.2    80  LEU80       0.2287
     78  O         15.7880    5.4220   15.1760 O.2    80  LEU80      -0.2864
     79  CB        13.2700    6.4750   16.8910 C.3    80  LEU80       0.0297
     80  CG        12.4460    7.5380   17.5860 C.3    80  LEU80       0.0022
     81  CD1       10.9880    7.3420   17.1790 C.3    80  LEU80       0.0001
     82  CD2       12.6500    7.5530   19.1000 C.3    80  LEU80       0.0001
     83  N         11.5630    0.7630   15.3890 N.3    84  MET84      -0.1245
     84  CA        10.3250    1.4280   15.7840 C.3    84  MET84       0.1570
     85  C          9.8760    2.4900   14.7450 C.2    84  MET84       0.2261
     86  O          8.9360    3.2520   14.9870 O.2    84  MET84      -0.2867
     87  CB        10.5220    2.0350   17.1880 C.3    84  MET84       0.0387
     88  CG        11.6330    2.9700   17.4900 C.3    84  MET84       0.0595
     89  SD        11.5190    3.3910   19.2710 S.3    84  MET84      -0.1393
     90  CE         9.7970    3.8050   19.5720 C.3    84  MET84       0.0692
     91  N          1.9530    6.5640   14.9180 N.3    91  MET91      -0.1245
     92  CA         1.7080    7.2070   16.2040 C.3    91  MET91       0.1570
     93  C          1.6490    8.7250   16.0610 C.2    91  MET91       0.2261
     94  O          0.8240    9.3850   16.6660 O.2    91  MET91      -0.2867
     95  CB         2.8310    6.8300   17.1780 C.3    91  MET91       0.0387
     96  CG         2.6440    7.3320   18.5940 C.3    91  MET91       0.0595
     97  SD         4.0320    6.8830   19.6610 S.3    91  MET91      -0.1393
     98  CE         3.9550    5.0920   19.6350 C.3    91  MET91       0.0692
     99  N          2.8270   14.3640   23.7650 N.3   111  HIS111     -0.1241
    100  CA         2.8250   13.1090   24.5020 C.3   111  HIS111      0.1621
    101  C          1.4300   12.5410   24.6980 C.2   111  HIS111      0.2264
    102  O          1.1990   11.3620   24.4830 O.2   111  HIS111     -0.2867
    103  CB         3.5110   13.2880   25.8520 C.3   111  HIS111      0.0745
    104  CG         5.0010   13.3130   25.7750 C.ar  111  HIS111      0.0817
    105  ND1        5.7790   12.1950   25.9690 N.ar  111  HIS111     -0.2268
    106  CD2        5.8550   14.3220   25.4940 C.ar  111  HIS111      0.1154
    107  CE1        7.0520   12.5210   25.8450 C.ar  111  HIS111      0.1986
    108  NE2        7.1260   13.8040   25.5460 N.ar  111  HIS111     -0.2212
    109  N          0.2220   11.2380   21.2000 N.3   114  TRP114     -0.1241
    110  CA         0.8980    9.9850   20.8360 C.3   114  TRP114      0.1605
    111  C          0.2700    8.8570   21.6490 C.2   114  TRP114      0.2264
    112  O         -0.0600    7.8100   21.0970 O.2   114  TRP114     -0.2867
    113  CB         2.4010   10.0580   21.1220 C.3   114  TRP114      0.0550
    114  CG         3.2000   10.9790   20.2280 C.ar  114  TRP114      0.0003
    115  CD1        2.8920   11.3570   18.9540 C.ar  114  TRP114      0.0946
    116  CD2        4.4480   11.6190   20.5420 C.ar  114  TRP114      0.0152
    117  NE1        3.8740   12.1620   18.4500 N.ar  114  TRP114     -0.2442
    118  CE2        4.8370   12.3500   19.4040 C.ar  114  TRP114      0.0810
    119  CE3        5.2760   11.6360   21.6720 C.ar  114  TRP114      0.0012
    120  CZ2        6.0150   13.1040   19.3590 C.ar  114  TRP114      0.0191
    121  CZ3        6.4530   12.4010   21.6310 C.ar  114  TRP114      0.0001
    122  CH2        6.8080   13.1200   20.4800 C.ar  114  TRP114      0.0015
    123  N          3.1630    3.5680   22.9570 N.3   122  TYR122     -0.1227
    124  CA         3.6040    4.7810   23.6260 C.3   122  TYR122      0.1736
    125  C          4.3190    4.4570   24.9400 C.2   122  TYR122      0.2595
    126  O          3.8990    3.5520   25.6590 O.2   122  TYR122     -0.2718
    127  CB         2.4510    5.7200   23.9630 C.3   122  TYR122      0.0548
    128  CG         2.9910    6.8660   24.7900 C.ar  122  TYR122     -0.0200
    129  CD1        3.6310    7.9540   24.2140 C.ar  122  TYR122     -0.0009
    130  CD2        2.9400    6.7960   26.1770 C.ar  122  TYR122     -0.0009
    131  CE1        4.1490    8.9650   25.0030 C.ar  122  TYR122      0.0417
    132  CE2        3.4470    7.7960   26.9620 C.ar  122  TYR122      0.0417
    133  CZ         4.0470    8.8720   26.3750 C.ar  122  TYR122      0.1957
    134  OH         4.5610    9.8430   27.1730 O.3   122  TYR122     -0.2866
    135  N          5.3990    5.1740   25.2430 N.am  123  PHE123     -0.1962
    136  CA         6.0280    5.0720   26.5710 C.3   123  PHE123      0.1771
    137  C          6.7610    6.3710   26.9360 C.2   123  PHE123      0.2619
    138  O          7.0620    7.2150   26.0880 O.2   123  PHE123     -0.2715
    139  CB         7.0200    3.8980   26.6190 C.3   123  PHE123      0.0574
    140  CG         8.2200    4.0580   25.7310 C.ar  123  PHE123     -0.0200
    141  CD1        9.4030    4.5760   26.2250 C.ar  123  PHE123     -0.0042
    142  CD2        8.1590    3.6770   24.3990 C.ar  123  PHE123     -0.0042
    143  CE1       10.4970    4.7120   25.4140 C.ar  123  PHE123     -0.0003
    144  CE2        9.2450    3.8220   23.5700 C.ar  123  PHE123     -0.0003
    145  CZ        10.4180    4.3450   24.0760 C.ar  123  PHE123     -0.0000
    146  N          7.0630    6.5070   28.2170 N.am  124  LEU124     -0.1963
    147  CA         7.8480    7.6280   28.7130 C.3   124  LEU124      0.1728
    148  C          8.7520    7.0720   29.7910 C.2   124  LEU124      0.2616
    149  O          8.3240    6.3060   30.6570 O.2   124  LEU124     -0.2715
    150  CB         6.9390    8.6930   29.3320 C.3   124  LEU124      0.0311
    151  CG         7.6100    9.9630   29.8850 C.3   124  LEU124      0.0022
    152  CD1        8.1610   10.8310   28.7500 C.3   124  LEU124      0.0001
    153  CD2        6.6360   10.7690   30.7530 C.3   124  LEU124      0.0001
    154  N          9.9920    7.5150   29.7500 N.am  125  VAL125     -0.1977
    155  CA        10.9850    7.1650   30.7540 C.3   125  VAL125      0.1596
    156  C         11.7350    8.4150   31.2440 C.2   125  VAL125      0.2287
    157  O         12.6380    8.3060   32.0760 O.2   125  VAL125     -0.2864
    158  CB        11.9890    6.1090   30.2460 C.3   125  VAL125      0.0276
    159  CG1       11.3380    4.6790   30.1030 C.3   125  VAL125      0.0022
    160  CG2       12.6470    6.6100   28.9430 C.3   125  VAL125      0.0022
@<TRIPOS>BOND
     1    85    86    2
     2    85    84    1
     3    91    92    1
     4    78    77    2
     5    69    70    1
     6    83    84    1
     7    61    62    1
     8    84    87    1
     9    63    64    2
    10    63    62    1
    11    93    92    1
    12    93    94    2
    13    92    95    1
    14    77    76    1
    15    70    71    1
    16    70    73    1
    17    62    65    1
    18    75    76    1
    19    75    71   am
    20    79    76    1
    21    79    80    1
    22    71    72    2
    23    65    66    1
    24    95    96    1
    25    81    80    1
    26    87    88    1
    27    88    89    1
    28    73    74    1
    29    80    82    1
    30    66    68    1
    31    66    67    1
    32    57    56    2
    33   117   115   ar
    34   117   118   ar
    35    96    97    1
    36    56    55    1
    37    59    58    1
    38    55    58    1
    39    55    54    1
    40    58    60    1
    41   115   114   ar
    42    89    90    1
    43   120   118   ar
    44   120   122   ar
    45   118   116   ar
    46    98    97    1
    47   114   116   ar
    48   114   113    1
    49   122   121   ar
    50   116   119   ar
    51   110   113    1
    52   110   109    1
    53   110   111    1
    54    52    51    2
    55   112   111    2
    56   121   119   ar
    57    51    50    1
    58     8     6    1
    59     7     6    1
    60    47    45   ar
    61    47    48   ar
    62    45    43   ar
    63    41    40    2
    64     5     6    1
    65     5     2    1
    66    48    46   ar
    67   123   124    1
    68    53    50    1
    69    50    49    1
    70    43    42    1
    71    43    44   ar
    72     1     2    1
    73    42    39    1
    74     2     3    1
    75    46    44   ar
    76   144   145   ar
    77   144   142   ar
    78   124   127    1
    79   124   125    1
    80    40    39    1
    81    99   100    1
    82    39    38    1
    83   127   128    1
    84   145   143   ar
    85   129   128   ar
    86   129   131   ar
    87    13    10    1
    88   142   140   ar
    89   102   101    2
    90   100   101    1
    91   100   103    1
    92   128   130   ar
    93     3     4    2
    94   125   135   am
    95   125   126    2
    96   131   133   ar
    97   135   136    1
    98    38    32   am
    99    33    32    2
   100   143   141   ar
   101   106   108   ar
   102   106   104   ar
   103   108   107   ar
   104    20    19    1
   105   140   141   ar
   106   140   139    1
   107   104   103    1
   108   104   105   ar
   109    21    19    1
   110   107   105   ar
   111    19    18    1
   112    10     9    1
   113    10    11    1
   114    32    31    1
   115   138   137    2
   116   130   132   ar
   117    29    27    1
   118   133   132   ar
   119   133   134    1
   120   136   139    1
   121   136   137    1
   122    11    14   am
   123    11    12    2
   124    14    15    1
   125   137   146   am
   126    18    15    1
   127    31    34    1
   128    31    30    1
   129    28    27    1
   130    15    16    1
   131    34    35    1
   132    27    26    1
   133    35    37    1
   134    35    36    1
   135   146   147    1
   136    26    23    1
   137   147   150    1
   138   147   148    1
   139   152   151    1
   140   160   158    1
   141    16    17    2
   142   150   151    1
   143   154   148   am
   144   154   155    1
   145   148   149    2
   146   151   153    1
   147   159   158    1
   148    23    22    1
   149    23    24    1
   150   158   155    1
   151   155   156    1
   152    24    25    2
   153   156   157    2
