@<TRIPOS>MOLECULE
tmp/4fqwA02.pdb
 105 101 0 0 0
SMALL
GASTEIGER

@<TRIPOS>ATOM
      1  N        -12.1770   14.2930  -23.8560 N.3    39  ILE39      -0.1245
      2  CA       -11.4570   15.4740  -23.3050 C.3    39  ILE39       0.1561
      3  C        -10.9180   16.3920  -24.3500 C.2    39  ILE39       0.2260
      4  O        -10.8490   17.5880  -24.1030 O.2    39  ILE39      -0.2867
      5  CB       -10.3150   15.0520  -22.3090 C.3    39  ILE39       0.0252
      6  CG1       -9.8670   16.2430  -21.4150 C.3    39  ILE39       0.0019
      7  CG2       -9.1050   14.4130  -23.0420 C.3    39  ILE39       0.0019
      8  CD1      -10.9870   17.0140  -20.7390 C.3    39  ILE39       0.0001
      9  N        -11.6730   20.2000  -24.1520 N.3    43  ASN43      -0.1240
     10  CA       -10.5460   21.1020  -24.0980 C.3    43  ASN43       0.1653
     11  C        -10.6650   22.1750  -25.1910 C.2    43  ASN43       0.2266
     12  O        -10.4000   23.3580  -24.9030 O.2    43  ASN43      -0.2867
     13  CB        -9.2260   20.3390  -24.2120 C.3    43  ASN43       0.1155
     14  CG        -8.7490   19.7450  -22.8840 C.2    43  ASN43       0.2627
     15  OD1       -9.0800   20.2390  -21.7900 O.2    43  ASN43      -0.2716
     16  ND2       -7.9780   18.6970  -22.9760 N.am   43  ASN43      -0.0877
     17  N          0.0680   18.9600  -11.5860 N.3    76  LYS76      -0.1231
     18  CA         0.1200   17.8050  -12.5110 C.3    76  LYS76       0.1693
     19  C         -1.2210   17.4410  -13.1550 C.2    76  LYS76       0.2592
     20  O         -1.2830   16.7740  -14.1930 O.2    76  LYS76      -0.2718
     21  CB         0.6090   16.5310  -11.7530 C.3    76  LYS76       0.0285
     22  CG         2.0450   16.6330  -11.3500 C.3    76  LYS76       0.0035
     23  CD         2.5020   15.4080  -10.5620 C.3    76  LYS76       0.0206
     24  CE         3.7930   14.8430  -11.1380 C.3    76  LYS76       0.1093
     25  NZ         4.8230   15.8800  -11.3980 N.3    76  LYS76      -0.1314
     26  N         -2.3030   17.7590  -12.5040 N.am   77  HIS77      -0.1976
     27  CA        -3.5600   17.1190  -12.8460 C.3    77  HIS77       0.1656
     28  C         -4.7400   18.0250  -12.9740 C.2    77  HIS77       0.2291
     29  O         -5.7360   17.5810  -13.5070 O.2    77  HIS77      -0.2864
     30  CB        -3.8550   16.0500  -11.8570 C.3    77  HIS77       0.0771
     31  CG        -2.8940   14.8760  -11.9080 C.ar   77  HIS77       0.0820
     32  ND1       -2.7290   14.1060  -13.0230 N.ar   77  HIS77      -0.2267
     33  CD2       -1.9970   14.3720  -10.9340 C.ar   77  HIS77       0.1154
     34  CE1       -1.7740   13.1850  -12.7920 C.ar   77  HIS77       0.1986
     35  NE2       -1.3560   13.3420  -11.4820 N.ar   77  HIS77      -0.2212
     36  N         -6.7380   21.0520  -14.4390 N.3    79  MET79      -0.1230
     37  CA        -6.9040   22.0140  -15.5610 C.3    79  MET79       0.1702
     38  C         -5.6950   22.3530  -16.3810 C.2    79  MET79       0.2592
     39  O         -5.5620   23.4880  -16.8390 O.2    79  MET79      -0.2718
     40  CB        -7.5790   23.3170  -15.0600 C.3    79  MET79       0.0401
     41  CG        -8.8190   23.0450  -14.2630 C.3    79  MET79       0.0596
     42  SD       -10.2230   22.6220  -15.2990 S.3    79  MET79      -0.1393
     43  CE       -11.4360   22.2630  -14.0280 C.3    79  MET79       0.0692
     44  N         -4.8110   21.3660  -16.6280 N.am   80  VAL80      -0.1980
     45  CA        -3.5600   21.6200  -17.2420 C.3    80  VAL80       0.1595
     46  C         -3.8140   22.0590  -18.6780 C.2    80  VAL80       0.2287
     47  O         -4.6480   21.4510  -19.3910 O.2    80  VAL80      -0.2864
     48  CB        -2.6920   20.3440  -17.2170 C.3    80  VAL80       0.0276
     49  CG1       -1.4020   20.5310  -18.0310 C.3    80  VAL80       0.0022
     50  CG2       -2.4460   19.8960  -15.7650 C.3    80  VAL80       0.0022
     51  N         -5.1000   25.0050  -19.2720 N.3    82  HIS82      -0.1241
     52  CA        -6.0190   26.1120  -19.0450 C.3    82  HIS82       0.1621
     53  C         -5.5060   27.1080  -18.0340 C.2    82  HIS82       0.2264
     54  O         -4.5360   26.8300  -17.2960 O.2    82  HIS82      -0.2867
     55  CB        -7.3270   25.5230  -18.6000 C.3    82  HIS82       0.0745
     56  CG        -7.9950   24.7010  -19.6580 C.ar   82  HIS82       0.0817
     57  ND1       -7.7620   23.3730  -19.8040 N.ar   82  HIS82      -0.2268
     58  CD2       -8.8860   25.0660  -20.6570 C.ar   82  HIS82       0.1154
     59  CE1       -8.5300   22.9240  -20.8690 C.ar   82  HIS82       0.1986
     60  NE2       -9.2190   23.9500  -21.3400 N.ar   82  HIS82      -0.2212
     61  N         -5.0580   11.8900  -10.6450 N.3   144  ASP144     -0.1225
     62  CA        -5.3170   11.7220  -12.0480 C.3   144  ASP144      0.1805
     63  C         -6.0580   12.9980  -12.5310 C.2   144  ASP144      0.2598
     64  O         -6.3180   13.9360  -11.7320 O.2   144  ASP144     -0.2718
     65  CB        -6.1520   10.4360  -12.2630 C.3   144  ASP144      0.1424
     66  CG        -5.8260    9.7280  -13.5670 C.2   144  ASP144      0.3668
     67  OD1       -5.9320    8.4580  -13.6060 O.co2 144  ASP144     -0.2456
     68  OD2       -5.4880   10.4540  -14.5550 O.co2 144  ASP144     -0.2456
     69  N         -6.4320   12.9740  -13.7890 N.am  145  HIS145     -0.1961
     70  CA        -7.0430   14.1210  -14.5060 C.3   145  HIS145      0.1787
     71  C         -8.2740   14.6200  -13.8120 C.2   145  HIS145      0.2620
     72  O         -9.2230   13.8750  -13.5190 O.2   145  HIS145     -0.2715
     73  CB        -7.3870   13.6920  -15.9720 C.3   145  HIS145      0.0785
     74  CG        -8.1490   14.7090  -16.7270 C.ar  145  HIS145      0.0821
     75  ND1       -7.5530   15.5280  -17.5930 N.ar  145  HIS145     -0.2267
     76  CD2       -9.5270   15.0110  -16.7570 C.ar  145  HIS145      0.1154
     77  CE1       -8.4780   16.3820  -18.1020 C.ar  145  HIS145      0.1986
     78  NE2       -9.7000   16.0180  -17.6280 N.ar  145  HIS145     -0.2212
     79  N         -8.2490   15.9230  -13.5210 N.am  146  VAL146     -0.1963
     80  CA        -9.4200   16.6610  -13.1550 C.3   146  VAL146      0.1727
     81  C         -9.4170   17.9180  -14.0500 C.2   146  VAL146      0.2617
     82  O         -8.5720   18.8530  -13.8790 O.2   146  VAL146     -0.2715
     83  CB        -9.4140   17.0270  -11.6770 C.3   146  VAL146      0.0290
     84  CG1      -10.5860   17.9640  -11.3340 C.3   146  VAL146      0.0023
     85  CG2       -9.3850   15.7660  -10.7300 C.3   146  VAL146      0.0023
     86  N        -10.2940   17.9130  -15.0510 N.am  147  GLY147     -0.1940
     87  CA       -10.2380   18.9080  -16.1440 C.3   147  GLY147      0.2014
     88  C        -11.5760   19.5830  -16.3470 C.2   147  GLY147      0.2638
     89  O        -12.4280   19.5180  -15.4890 O.2   147  GLY147     -0.2714
     90  N        -11.7490   20.1460  -17.5360 N.am  148  VAL148     -0.1977
     91  CA       -12.8770   20.9960  -17.9350 C.3   148  VAL148      0.1596
     92  C        -14.2040   20.2370  -18.0700 C.2   148  VAL148      0.2287
     93  O        -15.2280   20.8290  -18.0560 O.2   148  VAL148     -0.2864
     94  CB       -12.6030   21.8190  -19.2220 C.3   148  VAL148      0.0276
     95  CG1      -11.4200   22.8240  -18.9800 C.3   148  VAL148      0.0022
     96  CG2      -12.4300   20.9280  -20.4910 C.3   148  VAL148      0.0022
     97  N        -10.8660    5.4840  -12.6380 N.3   264  LYS264     -0.1245
     98  CA        -9.8200    6.3920  -12.2130 C.3   264  LYS264      0.1561
     99  C        -10.1310    6.8790  -10.7980 C.2   264  LYS264      0.2260
    100  O        -11.3010    7.0700  -10.4760 O.2   264  LYS264     -0.2867
    101  CB        -9.7670    7.6030  -13.1350 C.3   264  LYS264      0.0271
    102  CG        -9.3580    7.2450  -14.5480 C.3   264  LYS264      0.0035
    103  CD        -8.9490    8.4750  -15.3150 C.3   264  LYS264      0.0206
    104  CE        -8.0160    8.1960  -16.4830 C.3   264  LYS264      0.1093
    105  NZ        -7.4890    9.5150  -16.9490 N.3   264  LYS264     -0.1314
@<TRIPOS>BOND
     1    11    12    2
     2    11    10    1
     3     3     4    2
     4     3     2    1
     5    13    10    1
     6    13    14    1
     7     9    10    1
     8     1     2    1
     9     2     5    1
    10     7     5    1
    11    16    14   am
    12    14    15    2
    13     5     6    1
    14     6     8    1
    15    60    59   ar
    16    60    58   ar
    17    59    57   ar
    18    58    56   ar
    19    96    94    1
    20    57    56   ar
    21    56    55    1
    22    47    46    2
    23    51    52    1
    24    94    95    1
    25    94    91    1
    26    52    55    1
    27    52    53    1
    28    46    45    1
    29    77    78   ar
    30    77    75   ar
    31    92    93    2
    32    92    91    1
    33    53    54    2
    34    49    48    1
    35    91    90    1
    36    78    76   ar
    37    75    74   ar
    38    90    88   am
    39    45    48    1
    40    45    44    1
    41    48    50    1
    42   105   104    1
    43    39    38    2
    44    76    74   ar
    45    74    73    1
    46    44    38   am
    47   104   103    1
    48    38    37    1
    49    88    87    1
    50    88    89    2
    51    87    86    1
    52    73    70    1
    53    37    40    1
    54    37    36    1
    55   103   102    1
    56    42    41    1
    57    42    43    1
    58    40    41    1
    59    86    81   am
    60    68    66   ar
    61   102   101    1
    62    70    71    1
    63    70    69    1
    64    20    19    2
    65    81    82    2
    66    81    80    1
    67    71    79   am
    68    71    72    2
    69    69    63   am
    70    67    66   ar
    71    66    65    1
    72    79    80    1
    73    29    28    2
    74    80    83    1
    75    19    18    1
    76    19    26   am
    77   101    98    1
    78    32    34   ar
    79    32    31   ar
    80    28    27    1
    81    27    26    1
    82    27    30    1
    83    34    35   ar
    84    97    98    1
    85    63    62    1
    86    63    64    2
    87    18    21    1
    88    18    17    1
    89    65    62    1
    90    98    99    1
    91    62    61    1
    92    31    30    1
    93    31    33   ar
    94    21    22    1
    95    83    84    1
    96    83    85    1
    97    35    33   ar
    98    25    24    1
    99    22    23    1
   100    24    23    1
   101    99   100    2
