@<TRIPOS>MOLECULE
tmp/4fqxE00.pdb
 119 116 0 0 0
SMALL
GASTEIGER

@<TRIPOS>ATOM
      1  N        -22.4580  -21.3310   13.4490 N.3    15  TRP15      -0.1241
      2  CA       -23.5780  -20.5140   13.8640 C.3    15  TRP15       0.1605
      3  C        -23.9410  -19.6100   12.7140 C.2    15  TRP15       0.2264
      4  O        -23.0580  -18.9780   12.1330 O.2    15  TRP15      -0.2867
      5  CB       -23.1850  -19.6630   15.0630 C.3    15  TRP15       0.0550
      6  CG       -24.2530  -18.7290   15.5250 C.ar   15  TRP15       0.0003
      7  CD1      -24.2960  -17.3620   15.3450 C.ar   15  TRP15       0.0946
      8  CD2      -25.4250  -19.0730   16.2610 C.ar   15  TRP15       0.0152
      9  NE1      -25.4310  -16.8420   15.9320 N.ar   15  TRP15      -0.2442
     10  CE2      -26.1400  -17.8720   16.5050 C.ar   15  TRP15       0.0810
     11  CE3      -25.9560  -20.2830   16.7260 C.ar   15  TRP15       0.0012
     12  CZ2      -27.3600  -17.8460   17.2020 C.ar   15  TRP15       0.0191
     13  CZ3      -27.1670  -20.2550   17.4330 C.ar   15  TRP15       0.0001
     14  CH2      -27.8530  -19.0390   17.6600 C.ar   15  TRP15       0.0015
     15  N        -26.8810  -16.5860   11.3580 N.3    17  LEU17      -0.1245
     16  CA       -27.9510  -15.6860   11.7590 C.3    17  LEU17       0.1561
     17  C        -28.4870  -15.0400   10.4830 C.2    17  LEU17       0.2260
     18  O        -27.7250  -14.5770    9.6370 O.2    17  LEU17      -0.2867
     19  CB       -27.4610  -14.6470   12.7790 C.3    17  LEU17       0.0270
     20  CG       -28.3770  -13.4360   12.9950 C.3    17  LEU17       0.0019
     21  CD1      -29.7000  -13.8120   13.6680 C.3    17  LEU17       0.0001
     22  CD2      -27.6810  -12.2920   13.7360 C.3    17  LEU17       0.0001
     23  N        -36.5300  -13.4150   11.5720 N.3    34  GLU34      -0.1245
     24  CA       -35.1600  -13.3920   12.0910 C.3    34  GLU34       0.1567
     25  C        -34.8000  -14.7570   12.6640 C.2    34  GLU34       0.2260
     26  O        -35.4120  -15.1870   13.6230 O.2    34  GLU34      -0.2867
     27  CB       -35.0280  -12.2860   13.1400 C.3    34  GLU34       0.0388
     28  CG       -33.7690  -12.3310   13.9760 C.3    34  GLU34       0.1160
     29  CD       -33.8430  -11.4130   15.2080 C.2    34  GLU34       0.3649
     30  OE1      -34.4090  -10.3020   15.0850 O.co2  34  GLU34      -0.2457
     31  OE2      -33.3460  -11.8120   16.2950 O.co2  34  GLU34      -0.2457
     32  N        -34.1000  -20.8660   17.1310 N.3    44  VAL44      -0.1245
     33  CA       -34.9970  -19.7950   17.5880 C.3    44  VAL44       0.1561
     34  C        -35.2350  -18.7270   16.5010 C.2    44  VAL44       0.2260
     35  O        -34.3610  -18.4620   15.6770 O.2    44  VAL44      -0.2867
     36  CB       -34.4700  -19.1540   18.9020 C.3    44  VAL44       0.0252
     37  CG1      -33.0750  -18.5610   18.6870 C.3    44  VAL44       0.0019
     38  CG2      -35.4420  -18.1060   19.4420 C.3    44  VAL44       0.0019
     39  N        -40.3360  -13.8730   20.0120 N.3    53  TYR53      -0.1241
     40  CA       -39.4520  -15.0140   19.7910 C.3    53  TYR53       0.1605
     41  C        -40.0910  -16.3250   20.1860 C.2    53  TYR53       0.2264
     42  O        -40.8710  -16.3970   21.1220 O.2    53  TYR53      -0.2867
     43  CB       -38.1380  -14.8510   20.5450 C.3    53  TYR53       0.0534
     44  CG       -37.2610  -13.7860   19.9480 C.ar   53  TYR53      -0.0201
     45  CD1      -36.4110  -14.0740   18.8860 C.ar   53  TYR53      -0.0009
     46  CD2      -37.2900  -12.4880   20.4320 C.ar   53  TYR53      -0.0009
     47  CE1      -35.6020  -13.0960   18.3330 C.ar   53  TYR53       0.0417
     48  CE2      -36.4910  -11.5030   19.8790 C.ar   53  TYR53       0.0417
     49  CZ       -35.6530  -11.8120   18.8340 C.ar   53  TYR53       0.1957
     50  OH       -34.8650  -10.8300   18.2910 O.3    53  TYR53      -0.2866
     51  N        -34.0130  -21.4000   26.1360 N.3    62  PRO62      -0.2102
     52  CA       -33.4440  -20.3350   26.9810 C.3    62  PRO62       0.1504
     53  C        -33.4460  -18.9400   26.3320 C.2    62  PRO62       0.2575
     54  O        -33.6560  -17.9390   27.0260 O.2    62  PRO62      -0.2718
     55  CB       -32.0010  -20.7940   27.1940 C.3    62  PRO62       0.0282
     56  CG       -32.0470  -22.2490   27.0610 C.3    62  PRO62       0.0208
     57  CD       -33.0880  -22.5440   26.0260 C.3    62  PRO62       0.0893
     58  N        -33.2170  -18.8860   25.0220 N.am   63  ASP63      -0.1974
     59  CA       -33.1280  -17.6250   24.2800 C.3    63  ASP63       0.1708
     60  C        -34.4760  -16.9580   24.0470 C.2    63  ASP63       0.2293
     61  O        -34.6140  -15.7420   24.2030 O.2    63  ASP63      -0.2864
     62  CB       -32.4130  -17.8670   22.9500 C.3    63  ASP63       0.1436
     63  CG       -31.0560  -18.4910   23.1550 C.2    63  ASP63       0.3671
     64  OD1      -30.1890  -17.8340   23.7660 O.co2  63  ASP63      -0.2456
     65  OD2      -30.8540  -19.6490   22.7560 O.co2  63  ASP63      -0.2456
     66  N        -35.4970  -15.5860   27.4720 N.3    66  TYR66      -0.1227
     67  CA       -34.6510  -14.4470   27.7890 C.3    66  TYR66       0.1736
     68  C        -34.8960  -13.2130   26.9300 C.2    66  TYR66       0.2595
     69  O        -34.9280  -12.1020   27.4470 O.2    66  TYR66      -0.2718
     70  CB       -33.1980  -14.8450   27.6440 C.3    66  TYR66       0.0548
     71  CG       -32.2270  -13.7280   27.9200 C.ar   66  TYR66      -0.0200
     72  CD1      -32.1260  -13.1700   29.1870 C.ar   66  TYR66      -0.0009
     73  CD2      -31.3830  -13.2510   26.9240 C.ar   66  TYR66      -0.0009
     74  CE1      -31.2160  -12.1580   29.4530 C.ar   66  TYR66       0.0417
     75  CE2      -30.4740  -12.2390   27.1820 C.ar   66  TYR66       0.0417
     76  CZ       -30.3970  -11.6980   28.4490 C.ar   66  TYR66       0.1957
     77  OH       -29.4950  -10.6950   28.7170 O.3    66  TYR66      -0.2866
     78  N        -35.0400  -13.3990   25.6170 N.am   67  TRP67      -0.1976
     79  CA       -35.1940  -12.2580   24.7200 C.3    67  TRP67       0.1640
     80  C        -36.5950  -11.6510   24.8200 C.2    67  TRP67       0.2290
     81  O        -36.7620  -10.4380   24.6710 O.2    67  TRP67      -0.2864
     82  CB       -34.8890  -12.6380   23.2740 C.3    67  TRP67       0.0576
     83  CG       -33.4720  -12.9870   23.0120 C.ar   67  TRP67       0.0006
     84  CD1      -32.3860  -12.6140   23.7410 C.ar   67  TRP67       0.0946
     85  CD2      -32.9780  -13.7940   21.9320 C.ar   67  TRP67       0.0152
     86  NE1      -31.2420  -13.1390   23.1870 N.ar   67  TRP67      -0.2442
     87  CE2      -31.5790  -13.8650   22.0740 C.ar   67  TRP67       0.0810
     88  CE3      -33.5860  -14.4660   20.8630 C.ar   67  TRP67       0.0012
     89  CZ2      -30.7710  -14.5880   21.1810 C.ar   67  TRP67       0.0191
     90  CZ3      -32.7830  -15.1770   19.9770 C.ar   67  TRP67       0.0001
     91  CH2      -31.3900  -15.2310   20.1420 C.ar   67  TRP67       0.0015
     92  N        -37.0680   -9.0050   27.5150 N.3    70  GLN70      -0.1245
     93  CA       -36.5680   -7.6790   27.2270 C.3    70  GLN70       0.1566
     94  C        -37.6520   -6.9380   26.4470 C.2    70  GLN70       0.2260
     95  O        -37.5740   -6.8340   25.2260 O.2    70  GLN70      -0.2867
     96  CB       -35.2750   -7.7640   26.4150 C.3    70  GLN70       0.0367
     97  CG       -34.1440   -8.5420   27.0770 C.3    70  GLN70       0.0905
     98  CD       -32.9210   -8.6940   26.1580 C.2    70  GLN70       0.2608
     99  OE1      -32.7460   -7.9280   25.2020 O.2    70  GLN70      -0.2717
    100  NE2      -32.0740   -9.6890   26.4450 N.am   70  GLN70      -0.0878
    101  N        -36.4940   -4.7900   23.5390 N.3    73  LEU73      -0.1245
    102  CA       -36.0720   -5.4530   22.3030 C.3    73  LEU73       0.1561
    103  C        -37.2550   -5.8150   21.4040 C.2    73  LEU73       0.2260
    104  O        -37.2050   -5.6160   20.1900 O.2    73  LEU73      -0.2867
    105  CB       -35.2640   -6.7160   22.6490 C.3    73  LEU73       0.0270
    106  CG       -34.7950   -7.6680   21.5400 C.3    73  LEU73       0.0019
    107  CD1      -33.7450   -7.0100   20.6740 C.3    73  LEU73       0.0001
    108  CD2      -34.2700   -8.9810   22.1190 C.3    73  LEU73       0.0001
    109  N        -37.9250   -4.9500   17.3190 N.3    77  ARG77      -0.1245
    110  CA       -38.1730   -5.9450   16.2780 C.3    77  ARG77       0.1563
    111  C        -39.5680   -5.7730   15.6770 C.2    77  ARG77       0.2260
    112  O        -39.7520   -5.8880   14.4660 O.2    77  ARG77      -0.2867
    113  CB       -38.0060   -7.3710   16.8060 C.3    77  ARG77       0.0307
    114  CG       -36.6450   -7.6590   17.3930 C.3    77  ARG77       0.0489
    115  CD       -35.5300   -7.4090   16.4140 C.3    77  ARG77       0.2205
    116  NE       -34.3640   -8.2030   16.7720 N.pl3  77  ARG77      -0.0865
    117  CZ       -33.1130   -7.8640   16.4890 C.cat  77  ARG77       0.5346
    118  NH1      -32.8840   -6.7290   15.8530 N.pl3  77  ARG77       0.1354
    119  NH2      -32.0950   -8.6520   16.8340 N.pl3  77  ARG77       0.1354
@<TRIPOS>BOND
     1    18    17    2
     2    17    16    1
     3    15    16    1
     4    23    24    1
     5    16    19    1
     6    24    25    1
     7    24    27    1
     8     4     3    2
     9    25    26    2
    10     3     2    1
    11    19    20    1
    12    20    21    1
    13    20    22    1
    14    27    28    1
    15     1     2    1
    16     2     5    1
    17    28    29    1
    18   112   111    2
    19     5     6    1
    20    30    29   ar
    21    29    31   ar
    22     7     6   ar
    23     7     9   ar
    24     6     8   ar
    25   111   110    1
    26    35    34    2
    27   118   117    1
    28     9    10   ar
    29     8    10   ar
    30     8    11   ar
    31   110   113    1
    32   110   109    1
    33   115   116    1
    34   115   114    1
    35   117   116    2
    36   117   119    1
    37    34    33    1
    38    10    12   ar
    39    11    13   ar
    40   113   114    1
    41    32    33    1
    42    12    14   ar
    43    13    14   ar
    44    33    36    1
    45    50    49    1
    46    47    49   ar
    47    47    45   ar
    48    37    36    1
    49    49    48   ar
    50    45    44   ar
    51    36    38    1
    52    40    39    1
    53    40    41    1
    54    40    43    1
    55    48    46   ar
    56    44    46   ar
    57    44    43    1
    58    90    91   ar
    59    90    88   ar
    60    91    89   ar
    61    41    42    2
    62   104   103    2
    63   107   106    1
    64    88    85   ar
    65    89    87   ar
    66   103   102    1
    67   106   108    1
    68   106   105    1
    69    85    87   ar
    70    85    83   ar
    71    87    86   ar
    72   102   105    1
    73   102   101    1
    74    65    63   ar
    75    62    63    1
    76    62    59    1
    77    83    82    1
    78    83    84   ar
    79    63    64   ar
    80    86    84   ar
    81    82    79    1
    82    60    61    2
    83    60    59    1
    84    59    58    1
    85    81    80    2
    86    79    80    1
    87    79    78    1
    88    58    53   am
    89    99    98    2
    90    95    94    2
    91    78    68   am
    92    57    51    1
    93    57    56    1
    94    51    52    1
    95    98   100   am
    96    98    97    1
    97    53    52    1
    98    53    54    2
    99    96    97    1
   100    96    93    1
   101    94    93    1
   102    73    75   ar
   103    73    71   ar
   104    68    69    2
   105    68    67    1
   106    52    55    1
   107    56    55    1
   108    75    76   ar
   109    93    92    1
   110    66    67    1
   111    70    67    1
   112    70    71    1
   113    71    72   ar
   114    76    77    1
   115    76    74   ar
   116    72    74   ar
