@<TRIPOS>MOLECULE
tmp/4fr4B00.pdb
 178 164 0 0 0
SMALL
GASTEIGER

@<TRIPOS>ATOM
      1  N        -37.2950  207.5040  -15.2280 N.3    16  ILE16      -0.1231
      2  CA       -35.9120  207.2940  -15.6810 C.3    16  ILE16       0.1692
      3  C        -34.8830  208.0750  -14.8920 C.2    16  ILE16       0.2593
      4  O        -33.6950  207.9110  -15.0830 O.2    16  ILE16      -0.2718
      5  CB       -35.7460  207.6120  -17.1780 C.3    16  ILE16       0.0266
      6  CG1      -36.0610  209.0720  -17.4690 C.3    16  ILE16       0.0019
      7  CG2      -36.6210  206.6940  -18.0070 C.3    16  ILE16       0.0020
      8  CD1      -35.8760  209.4590  -18.9110 C.3    16  ILE16       0.0001
      9  N        -35.3330  208.9370  -14.0210 N.am   17  GLY17      -0.1942
     10  CA       -34.4180  209.6830  -13.1870 C.3    17  GLY17       0.2014
     11  C        -35.1470  210.4050  -12.0920 C.2    17  GLY17       0.2638
     12  O        -36.3680  210.4810  -12.0940 O.2    17  GLY17      -0.2714
     13  N        -34.3750  210.9820  -11.1920 N.am   18  LYS18      -0.1977
     14  CA       -34.8760  211.4490   -9.9360 C.3    18  LYS18       0.1596
     15  C        -34.3780  212.8430   -9.7100 C.2    18  LYS18       0.2287
     16  O        -33.3300  213.2370  -10.2310 O.2    18  LYS18      -0.2864
     17  CB       -34.3700  210.5390   -8.8100 C.3    18  LYS18       0.0298
     18  CG       -35.3210  210.3720   -7.6330 C.3    18  LYS18       0.0038
     19  CD       -34.7940  209.3010   -6.6640 C.3    18  LYS18       0.0206
     20  CE       -35.8120  208.9510   -5.5830 C.3    18  LYS18       0.1093
     21  NZ       -35.8210  209.9420   -4.4560 N.3    18  LYS18      -0.1314
     22  N        -37.9800  212.5240  -13.3510 N.3    24  VAL24      -0.1245
     23  CA       -38.0590  212.5780  -14.7970 C.3    24  VAL24       0.1561
     24  C        -38.6690  211.2510  -15.3430 C.2    24  VAL24       0.2260
     25  O        -38.3260  210.1540  -14.8960 O.2    24  VAL24      -0.2867
     26  CB       -36.6670  212.8300  -15.3980 C.3    24  VAL24       0.0252
     27  CG1      -36.7450  212.9810  -16.9160 C.3    24  VAL24       0.0019
     28  CG2      -36.0360  214.0570  -14.7580 C.3    24  VAL24       0.0019
     29  N        -39.1610  213.1350  -22.8880 N.3    37  ALA37      -0.1245
     30  CA       -38.8470  213.1190  -21.4540 C.3    37  ALA37       0.1562
     31  C        -39.5810  214.2740  -20.7560 C.2    37  ALA37       0.2260
     32  O        -39.6030  215.3950  -21.2500 O.2    37  ALA37      -0.2867
     33  CB       -37.3380  213.2300  -21.2320 C.3    37  ALA37       0.0290
     34  N        -40.0590  216.3620  -17.0420 N.3    39  LYS39      -0.1245
     35  CA       -39.5650  216.6800  -15.7190 C.3    39  LYS39       0.1561
     36  C        -40.7090  217.2890  -14.8860 C.2    39  LYS39       0.2260
     37  O        -41.3700  218.2490  -15.3410 O.2    39  LYS39      -0.2867
     38  CB       -38.4430  217.6730  -15.8370 C.3    39  LYS39       0.0271
     39  CG       -37.6110  217.7730  -14.6020 C.3    39  LYS39       0.0035
     40  CD       -36.2690  218.4090  -14.9070 C.3    39  LYS39       0.0206
     41  CE       -36.1490  219.7870  -14.2810 C.3    39  LYS39       0.1093
     42  NZ       -35.3290  219.7320  -13.0480 N.3    39  LYS39      -0.1314
     43  N        -35.0340  228.7590  -15.6250 N.3    58  GLU58      -0.1245
     44  CA       -34.7060  227.7010  -16.5180 C.3    58  GLU58       0.1567
     45  C        -35.6940  227.6080  -17.6990 C.2    58  GLU58       0.2260
     46  O        -35.2710  227.4910  -18.8370 O.2    58  GLU58      -0.2867
     47  CB       -34.5900  226.3820  -15.8050 C.3    58  GLU58       0.0388
     48  CG       -34.0690  225.2800  -16.7120 C.3    58  GLU58       0.1160
     49  CD       -33.9050  223.9470  -15.9980 C.2    58  GLU58       0.3649
     50  OE1      -34.0590  223.8890  -14.7770 O.co2  58  GLU58      -0.2457
     51  OE2      -33.6220  222.9600  -16.6800 O.co2  58  GLU58      -0.2457
     52  N        -30.6310  219.1180  -25.4820 N.3    71  VAL71      -0.1245
     53  CA       -31.8920  218.5350  -25.1900 C.3    71  VAL71       0.1561
     54  C        -32.9100  219.6910  -25.0990 C.2    71  VAL71       0.2260
     55  O        -32.9250  220.4380  -24.1440 O.2    71  VAL71      -0.2867
     56  CB       -31.8260  217.7320  -23.8990 C.3    71  VAL71       0.0252
     57  CG1      -33.1950  217.2140  -23.5220 C.3    71  VAL71       0.0019
     58  CG2      -30.8410  216.6070  -24.0720 C.3    71  VAL71       0.0019
     59  N        -42.0400  220.1980  -17.5050 N.3    85  MET85      -0.1245
     60  CA       -41.1630  220.5330  -18.6070 C.3    85  MET85       0.1570
     61  C        -41.0770  219.3020  -19.5060 C.2    85  MET85       0.2261
     62  O        -40.6510  218.2360  -19.0390 O.2    85  MET85      -0.2867
     63  CB       -39.7650  220.8050  -18.0520 C.3    85  MET85       0.0387
     64  CG       -38.9940  221.8850  -18.7490 C.3    85  MET85       0.0595
     65  SD       -37.3560  222.1920  -18.0160 S.3    85  MET85      -0.1393
     66  CE       -36.8160  220.5220  -17.6930 C.3    85  MET85       0.0692
     67  N        -39.4050  217.6850  -22.8920 N.3    87  VAL87      -0.1231
     68  CA       -38.2040  217.9340  -23.6680 C.3    87  VAL87       0.1692
     69  C        -37.8390  216.6680  -24.5240 C.2    87  VAL87       0.2592
     70  O        -38.5090  215.5970  -24.3960 O.2    87  VAL87      -0.2718
     71  CB       -37.0230  218.2640  -22.7080 C.3    87  VAL87       0.0266
     72  CG1      -37.4310  219.3410  -21.7400 C.3    87  VAL87       0.0020
     73  CG2      -36.5670  217.0000  -21.9550 C.3    87  VAL87       0.0020
     74  N        -36.8050  216.7910  -25.3690 N.am   88  ASP88      -0.1960
     75  CA       -36.3670  215.6700  -26.2260 C.3    88  ASP88       0.1840
     76  C        -36.0620  214.4560  -25.3620 C.2    88  ASP88       0.2622
     77  O        -35.5340  214.6030  -24.2650 O.2    88  ASP88      -0.2715
     78  CB       -35.1300  216.0260  -27.0350 C.3    88  ASP88       0.1450
     79  CG       -35.3750  217.1570  -28.0490 C.2    88  ASP88       0.3671
     80  OD1      -36.5080  217.2640  -28.5940 O.co2  88  ASP88      -0.2456
     81  OD2      -34.4140  217.9400  -28.3070 O.co2  88  ASP88      -0.2456
     82  N        -36.4810  213.2730  -25.8190 N.am   89  LEU89      -0.1963
     83  CA       -36.0920  212.0130  -25.1860 C.3    89  LEU89       0.1728
     84  C        -34.8310  211.4990  -25.8540 C.2    89  LEU89       0.2616
     85  O        -34.7710  211.3260  -27.0980 O.2    89  LEU89      -0.2715
     86  CB       -37.2000  210.9770  -25.2990 C.3    89  LEU89       0.0311
     87  CG       -36.9320  209.5960  -24.6920 C.3    89  LEU89       0.0022
     88  CD1      -36.6370  209.6770  -23.2010 C.3    89  LEU89       0.0001
     89  CD2      -38.1010  208.6530  -24.9660 C.3    89  LEU89       0.0001
     90  N        -33.8060  211.2830  -25.0480 N.am   90  LEU90      -0.1977
     91  CA       -32.5130  210.7780  -25.5630 C.3    90  LEU90       0.1596
     92  C        -32.3140  209.3390  -25.1140 C.2    90  LEU90       0.2287
     93  O        -32.0050  209.0770  -23.9390 O.2    90  LEU90      -0.2864
     94  CB       -31.3870  211.6530  -25.0790 C.3    90  LEU90       0.0297
     95  CG       -31.2080  212.9800  -25.8360 C.3    90  LEU90       0.0022
     96  CD1      -30.6500  212.7200  -27.2330 C.3    90  LEU90       0.0001
     97  CD2      -32.5070  213.8020  -25.9050 C.3    90  LEU90       0.0001
     98  N        -29.2960  207.4330  -23.0960 N.3    93  GLY93      -0.1210
     99  CA       -28.9620  207.7120  -21.7060 C.3    93  GLY93       0.1956
    100  C        -27.6960  208.5520  -21.5640 C.2    93  GLY93       0.2611
    101  O        -27.1120  209.0190  -22.5680 O.2    93  GLY93      -0.2717
    102  N        -27.2510  208.6970  -20.3170 N.am   94  ASP94      -0.1973
    103  CA       -26.1680  209.5970  -19.9910 C.3    94  ASP94       0.1709
    104  C        -24.8220  208.9220  -20.1620 C.2    94  ASP94       0.2293
    105  O        -24.7450  207.7060  -20.2070 O.2    94  ASP94      -0.2864
    106  CB       -26.3120  210.1040  -18.5700 C.3    94  ASP94       0.1436
    107  CG       -26.3630  208.9780  -17.5560 C.2    94  ASP94       0.3671
    108  OD1      -27.3960  208.3090  -17.4800 O.co2  94  ASP94      -0.2456
    109  OD2      -25.3470  208.7320  -16.8480 O.co2  94  ASP94      -0.2456
    110  N        -22.3300  209.1580  -17.9890 N.3    96  ARG96      -0.1245
    111  CA       -21.9010  208.6260  -16.6910 C.3    96  ARG96       0.1563
    112  C        -22.1880  207.1730  -16.6380 C.2    96  ARG96       0.2260
    113  O        -21.3620  206.3890  -16.1150 O.2    96  ARG96      -0.2867
    114  CB       -22.6060  209.3360  -15.5190 C.3    96  ARG96       0.0307
    115  CG       -22.3280  208.7150  -14.1230 C.3    96  ARG96       0.0489
    116  CD       -20.9130  209.0210  -13.6340 C.3    96  ARG96       0.2205
    117  NE       -20.6830  210.4540  -13.5720 N.pl3  96  ARG96      -0.0865
    118  CZ       -19.4980  211.0400  -13.7160 C.cat  96  ARG96       0.5346
    119  NH1      -18.4060  210.3300  -13.8910 N.pl3  96  ARG96       0.1354
    120  NH2      -19.4090  212.3540  -13.7000 N.pl3  96  ARG96       0.1354
    121  N        -22.7820  213.2240  -16.4640 N.3   137  ASP137     -0.1225
    122  CA       -24.1110  212.9390  -15.9500 C.3   137  ASP137      0.1805
    123  C        -25.1230  213.7290  -16.7160 C.2   137  ASP137      0.2597
    124  O        -26.3390  213.3480  -16.7540 O.2   137  ASP137     -0.2718
    125  CB       -24.2190  213.2670  -14.4310 C.3   137  ASP137      0.1424
    126  CG       -23.0500  212.7590  -13.6440 C.2   137  ASP137      0.3668
    127  OD1      -23.1900  211.6770  -13.0140 O.co2 137  ASP137     -0.2456
    128  OD2      -21.9480  213.4080  -13.6900 O.co2 137  ASP137     -0.2456
    129  N        -24.6540  214.8090  -17.3420 N.am  138  ASN138     -0.1974
    130  CA       -25.5240  215.7680  -18.0230 C.3   138  ASN138      0.1688
    131  C        -25.4070  215.7880  -19.5330 C.2   138  ASN138      0.2292
    132  O        -25.9800  216.6770  -20.2050 O.2   138  ASN138     -0.2864
    133  CB       -25.2970  217.1670  -17.4750 C.3   138  ASN138      0.1181
    134  CG       -25.8400  217.3210  -16.0890 C.2   138  ASN138      0.2629
    135  OD1      -26.7370  216.6010  -15.7040 O.2   138  ASN138     -0.2716
    136  ND2      -25.2730  218.2040  -15.3290 N.am  138  ASN138     -0.0877
    137  N        -26.2490  213.4540  -22.8180 N.3   140  LEU140     -0.1245
    138  CA       -27.0570  212.2950  -23.1620 C.3   140  LEU140      0.1561
    139  C        -26.8560  211.9170  -24.6250 C.2   140  LEU140      0.2260
    140  O        -26.5940  212.7930  -25.5030 O.2   140  LEU140     -0.2867
    141  CB       -28.5180  212.5900  -22.9210 C.3   140  LEU140      0.0270
    142  CG       -28.9420  213.1450  -21.5430 C.3   140  LEU140      0.0019
    143  CD1      -30.4640  213.2840  -21.4950 C.3   140  LEU140      0.0001
    144  CD2      -28.4420  212.2120  -20.4400 C.3   140  LEU140      0.0001
    145  N        -27.9720  218.5700  -21.4370 N.3   150  THR150     -0.1203
    146  CA       -29.1740  218.7960  -20.7300 C.3   150  THR150      0.1994
    147  C        -28.9260  219.3420  -19.3470 C.2   150  THR150      0.2617
    148  O        -27.7930  219.7290  -19.0200 O.2   150  THR150     -0.2717
    149  CB       -30.0670  217.5370  -20.6900 C.3   150  THR150      0.1784
    150  OG1      -31.3990  217.9340  -20.3500 O.3   150  THR150     -0.2211
    151  CG2      -29.5800  216.5240  -19.7100 C.3   150  THR150      0.0376
    152  N        -30.0190  219.4480  -18.5670 N.am  151  ASP151     -0.1973
    153  CA       -30.0160  219.9520  -17.1640 C.3   151  ASP151      0.1709
    154  C        -29.4480  221.3660  -17.0090 C.2   151  ASP151      0.2293
    155  O        -28.3140  221.5610  -16.5720 O.2   151  ASP151     -0.2864
    156  CB       -29.3180  218.9950  -16.2260 C.3   151  ASP151      0.1436
    157  CG       -29.6060  219.3080  -14.7570 C.2   151  ASP151      0.3671
    158  OD1      -30.3270  220.2870  -14.4620 O.co2 151  ASP151     -0.2456
    159  OD2      -29.1090  218.5700  -13.8960 O.co2 151  ASP151     -0.2456
    160  N        -28.2630  203.4070  -19.8170 N.3   291  ARG291     -0.1231
    161  CA       -29.0340  203.5010  -18.5680 C.3   291  ARG291      0.1694
    162  C        -30.4790  203.0330  -18.6780 C.2   291  ARG291      0.2591
    163  O        -31.0140  202.5020  -17.7390 O.2   291  ARG291     -0.2718
    164  CB       -29.0090  204.8740  -17.9370 C.3   291  ARG291      0.0321
    165  CG       -29.1540  204.7440  -16.4080 C.3   291  ARG291      0.0489
    166  CD       -29.2180  206.0530  -15.7130 C.3   291  ARG291      0.2205
    167  NE       -27.9170  206.6940  -15.5850 N.pl3 291  ARG291     -0.0865
    168  CZ       -27.0420  206.4420  -14.6270 C.cat 291  ARG291      0.5346
    169  NH1      -25.9290  207.1440  -14.5750 N.pl3 291  ARG291      0.1354
    170  NH2      -27.2800  205.5240  -13.7100 N.pl3 291  ARG291      0.1354
    171  N        -31.1110  203.2900  -19.7960 N.am  292  LEU292     -0.1980
    172  CA       -32.3750  202.6840  -20.0910 C.3   292  LEU292      0.1596
    173  C        -32.1340  201.2620  -20.5620 C.2   292  LEU292      0.2287
    174  O        -31.5900  201.0310  -21.6400 O.2   292  LEU292     -0.2864
    175  CB       -33.0970  203.4490  -21.1980 C.3   292  LEU292      0.0297
    176  CG       -34.0030  204.6030  -20.8420 C.3   292  LEU292      0.0022
    177  CD1      -34.7520  204.9930  -22.0970 C.3   292  LEU292      0.0001
    178  CD2      -34.9720  204.2180  -19.7510 C.3   292  LEU292      0.0001
@<TRIPOS>BOND
     1    80    79   ar
     2    81    79   ar
     3    79    78    1
     4    96    95    1
     5    85    84    2
     6    78    75    1
     7    75    74    1
     8    75    76    1
     9    97    95    1
    10    84    83    1
    11    84    90   am
    12    95    94    1
    13    82    76   am
    14    82    83    1
    15    91    92    1
    16    91    94    1
    17    91    90    1
    18   140   139    2
    19    52    53    1
    20    74    69   am
    21    76    77    2
    22    86    83    1
    23    86    87    1
    24    53    54    1
    25    53    56    1
    26    92    93    2
    27    54    55    2
    28    89    87    1
    29    87    88    1
    30   139   138    1
    31    69    70    2
    32    69    68    1
    33    58    56    1
    34    56    57    1
    35    68    67    1
    36    68    71    1
    37   138   141    1
    38   138   137    1
    39    98    99    1
    40   141   142    1
    41    29    30    1
    42    71    73    1
    43    71    72    1
    44   101   100    2
    45   177   176    1
    46    99   100    1
    47   174   173    2
    48   100   102   am
    49   142   143    1
    50   142   144    1
    51    30    33    1
    52    30    31    1
    53   145   146    1
    54    32    31    2
    55   175   176    1
    56   175   172    1
    57   176   178    1
    58   146   149    1
    59   146   147    1
    60   149   150    1
    61   149   151    1
    62   173   172    1
    63   102   103    1
    64   105   104    2
    65   132   131    2
    66   104   103    1
    67   172   171    1
    68   103   106    1
    69   160   161    1
    70   171   162   am
    71   131   130    1
    72    61    62    2
    73    61    60    1
    74   147   148    2
    75   147   152   am
    76     8     6    1
    77    46    45    2
    78    64    63    1
    79    64    65    1
    80   162   161    1
    81   162   163    2
    82    60    63    1
    83    60    59    1
    84   106   107    1
    85   161   164    1
    86   152   153    1
    87   130   133    1
    88   130   129    1
    89    65    66    1
    90     7     5    1
    91   110   111    1
    92   164   165    1
    93    45    44    1
    94   107   108   ar
    95   107   109   ar
    96   133   134    1
    97     6     5    1
    98   129   123   am
    99     5     2    1
   100   153   154    1
   101   153   156    1
   102    34    35    1
   103   154   155    2
   104    27    26    1
   105   124   123    2
   106   123   122    1
   107    48    49    1
   108    48    47    1
   109   111   112    1
   110   111   114    1
   111    51    49   ar
   112   112   113    2
   113    44    47    1
   114    44    43    1
   115   121   122    1
   116   165   166    1
   117   156   157    1
   118   134   135    2
   119   134   136   am
   120    49    50   ar
   121   122   125    1
   122    38    35    1
   123    38    39    1
   124    35    36    1
   125   166   167    1
   126     2     1    1
   127     2     3    1
   128   167   168    2
   129   114   115    1
   130    26    23    1
   131    26    28    1
   132    24    25    2
   133    24    23    1
   134    37    36    2
   135     4     3    2
   136    40    39    1
   137    40    41    1
   138     3     9   am
   139    23    22    1
   140   157   158   ar
   141   157   159   ar
   142   168   169    1
   143   168   170    1
   144   125   126    1
   145    41    42    1
   146   115   116    1
   147     9    10    1
   148   119   118    1
   149   118   120    1
   150   118   117    2
   151   128   126   ar
   152   126   127   ar
   153   116   117    1
   154    10    11    1
   155    12    11    2
   156    11    13   am
   157    13    14    1
   158    16    15    2
   159    14    15    1
   160    14    17    1
   161    17    18    1
   162    18    19    1
   163    19    20    1
   164    20    21    1
