@<TRIPOS>MOLECULE
tmp/4fr8C00.pdb
 208 201 0 0 0
SMALL
GASTEIGER

@<TRIPOS>ATOM
      1  N         27.9580   85.5710   40.5530 N.3   161  ILE161     -0.1231
      2  CA        29.0570   86.4640   40.9310 C.3   161  ILE161      0.1692
      3  C         28.8640   86.9730   42.3660 C.2   161  ILE161      0.2592
      4  O         27.8470   87.5980   42.6840 O.2   161  ILE161     -0.2718
      5  CB        29.1660   87.6580   39.9540 C.3   161  ILE161      0.0266
      6  CG1       29.2060   87.1550   38.5090 C.3   161  ILE161      0.0019
      7  CG2       30.3860   88.5040   40.2690 C.3   161  ILE161      0.0020
      8  CD1       28.9800   88.2330   37.4710 C.3   161  ILE161      0.0001
      9  N         29.8420   86.6970   43.2300 N.am  162  ILE162     -0.1966
     10  CA        29.7200   86.9680   44.6640 C.3   162  ILE162      0.1712
     11  C         30.8300   87.8670   45.2330 C.2   162  ILE162      0.2458
     12  O         31.9090   87.9540   44.6530 O.2   162  ILE162     -0.2730
     13  CB        29.5940   85.6520   45.4590 C.3   162  ILE162      0.0289
     14  CG1       30.7300   84.6960   45.1210 C.3   162  ILE162      0.0022
     15  CG2       28.2790   84.9820   45.1510 C.3   162  ILE162      0.0023
     16  CD1       30.8700   83.5380   46.0950 C.3   162  ILE162      0.0001
     17  N         30.5540   88.5460   46.3640 N.am  163  PRO163     -0.2716
     18  CA        31.5640   89.3920   47.0140 C.3   163  PRO163      0.1536
     19  C         32.4080   88.6460   48.0530 C.2   163  PRO163      0.2598
     20  O         32.3310   87.4180   48.1580 O.2   163  PRO163     -0.2715
     21  CB        30.7130   90.4570   47.7040 C.3   163  PRO163      0.0310
     22  CG        29.4870   89.7110   48.1010 C.3   163  PRO163      0.0237
     23  CD        29.2100   88.7840   46.9250 C.3   163  PRO163      0.0939
     24  N         33.1790   89.4070   48.8300 N.am  164  TRP164     -0.1974
     25  CA        34.1960   88.8620   49.7340 C.3   164  TRP164      0.1640
     26  C         33.8530   88.9550   51.2150 C.2   164  TRP164      0.2290
     27  O         34.5950   88.4520   52.0560 O.2   164  TRP164     -0.2864
     28  CB        35.5300   89.5740   49.4880 C.3   164  TRP164      0.0576
     29  CG        35.3620   91.0560   49.3390 C.ar  164  TRP164      0.0006
     30  CD1       35.4170   91.7670   48.1780 C.ar  164  TRP164      0.0946
     31  CD2       35.1030   92.0150   50.3750 C.ar  164  TRP164      0.0152
     32  NE1       35.2180   93.1040   48.4220 N.ar  164  TRP164     -0.2442
     33  CE2       35.0190   93.2770   49.7730 C.ar  164  TRP164      0.0810
     34  CE3       34.9360   91.9180   51.7670 C.ar  164  TRP164      0.0012
     35  CZ2       34.7740   94.4440   50.5060 C.ar  164  TRP164      0.0191
     36  CZ3       34.6920   93.0670   52.4860 C.ar  164  TRP164      0.0001
     37  CH2       34.6170   94.3150   51.8580 C.ar  164  TRP164      0.0015
     38  N         31.7410   82.9900   39.8500 N.3   188  LYS188     -0.1231
     39  CA        32.9170   83.8480   39.8900 C.3   188  LYS188      0.1693
     40  C         33.0720   84.3800   41.3140 C.2   188  LYS188      0.2592
     41  O         32.2890   85.2190   41.7600 O.2   188  LYS188     -0.2718
     42  CB        32.7690   85.0080   38.8990 C.3   188  LYS188      0.0285
     43  CG        34.0630   85.4460   38.2140 C.3   188  LYS188      0.0035
     44  CD        35.0900   85.9920   39.2070 C.3   188  LYS188      0.0206
     45  CE        34.6460   87.3200   39.8050 C.3   188  LYS188      0.1093
     46  NZ        35.6760   87.9140   40.7080 N.3   188  LYS188     -0.1314
     47  N         34.0760   83.8810   42.0280 N.am  189  VAL189     -0.1966
     48  CA        34.3060   84.3010   43.4020 C.3   189  VAL189      0.1727
     49  C         35.1540   85.5710   43.4660 C.2   189  VAL189      0.2616
     50  O         35.8880   85.8840   42.5270 O.2   189  VAL189     -0.2715
     51  CB        34.9590   83.1730   44.2300 C.3   189  VAL189      0.0290
     52  CG1       34.0430   81.9620   44.2630 C.3   189  VAL189      0.0023
     53  CG2       36.3150   82.7980   43.6490 C.3   189  VAL189      0.0023
     54  N         35.0400   86.3060   44.5700 N.am  190  ALA190     -0.1963
     55  CA        35.7820   87.5540   44.7380 C.3   190  ALA190      0.1728
     56  C         37.2800   87.2880   44.7550 C.2   190  ALA190      0.2616
     57  O         37.7350   86.3010   45.3300 O.2   190  ALA190     -0.2715
     58  CB        35.3540   88.2670   46.0130 C.3   190  ALA190      0.0334
     59  N         38.0390   88.1710   44.1150 N.am  191  GLU191     -0.1963
     60  CA        39.4870   88.0260   44.0390 C.3   191  GLU191      0.1733
     61  C         40.1190   88.2030   45.4170 C.2   191  GLU191      0.2616
     62  O         41.1930   87.6690   45.6910 O.2   191  GLU191     -0.2715
     63  CB        40.0760   89.0290   43.0420 C.3   191  GLU191      0.0429
     64  CG        39.8050   90.5010   43.3720 C.3   191  GLU191      0.1163
     65  CD        38.5510   91.0510   42.7000 C.2   191  GLU191      0.3649
     66  OE1       37.6050   90.2740   42.4480 O.co2 191  GLU191     -0.2457
     67  OE2       38.5080   92.2670   42.4220 O.co2 191  GLU191     -0.2457
     68  N         39.4350   88.9480   46.2830 N.am  192  GLN192     -0.1977
     69  CA        39.9120   89.1970   47.6400 C.3   192  GLN192      0.1601
     70  C         39.8290   87.9560   48.5180 C.2   192  GLN192      0.2287
     71  O         40.5610   87.8450   49.5020 O.2   192  GLN192     -0.2864
     72  CB        39.1120   90.3240   48.3010 C.3   192  GLN192      0.0394
     73  CG        39.3910   91.7120   47.7620 C.3   192  GLN192      0.0908
     74  CD        38.4150   92.1270   46.6870 C.2   192  GLN192      0.2608
     75  OE1       37.7320   91.2900   46.0960 O.2   192  GLN192     -0.2717
     76  NE2       38.3360   93.4270   46.4290 N.am  192  GLN192     -0.0878
     77  N         37.0170   91.0810   38.3010 N.3   221  GLY221     -0.1210
     78  CA        35.6740   91.4510   37.8860 C.3   221  GLY221      0.1940
     79  C         35.4820   91.7330   36.4050 C.2   221  GLY221      0.2453
     80  O         34.7900   90.9840   35.7170 O.2   221  GLY221     -0.2732
     81  N         36.0820   92.8270   35.9070 N.am  222  PRO222     -0.2728
     82  CA        35.9590   93.2520   34.5050 C.3   222  PRO222      0.1401
     83  C         36.4410   92.2020   33.4990 C.2   222  PRO222      0.2269
     84  O         36.1730   92.3270   32.3000 O.2   222  PRO222     -0.2865
     85  CB        36.8520   94.4950   34.4410 C.3   222  PRO222      0.0296
     86  CG        36.8500   95.0230   35.8250 C.3   222  PRO222      0.0237
     87  CD        36.8180   93.8150   36.7150 C.3   222  PRO222      0.0939
     88  N         34.2960   88.1160   35.5870 N.3   225  GLY225     -0.1210
     89  CA        32.9250   88.4430   35.9410 C.3   225  GLY225      0.1956
     90  C         32.1250   89.0270   34.7900 C.2   225  GLY225      0.2611
     91  O         30.9580   88.6880   34.5960 O.2   225  GLY225     -0.2717
     92  N         32.7520   89.9130   34.0260 N.am  226  ALA226     -0.1979
     93  CA        32.0960   90.5340   32.8830 C.3   226  ALA226      0.1597
     94  C         31.8610   89.5170   31.7720 C.2   226  ALA226      0.2287
     95  O         30.8730   89.5990   31.0400 O.2   226  ALA226     -0.2864
     96  CB        32.9270   91.7050   32.3670 C.3   226  ALA226      0.0319
     97  N         28.6730   87.8160   32.6750 N.3   229  ALA229     -0.1245
     98  CA        27.4900   88.6530   32.5140 C.3   229  ALA229      0.1562
     99  C         27.1380   88.8400   31.0390 C.2   229  ALA229      0.2260
    100  O         25.9680   89.0210   30.6840 O.2   229  ALA229     -0.2867
    101  CB        27.6930   89.9980   33.1960 C.3   229  ALA229      0.0290
    102  N         23.9280   88.2780   40.9570 N.3   239  PHE239     -0.1227
    103  CA        25.0650   89.0820   41.3890 C.3   239  PHE239      0.1736
    104  C         24.8110   89.7090   42.7530 C.2   239  PHE239      0.2596
    105  O         23.7360   90.2490   43.0130 O.2   239  PHE239     -0.2718
    106  CB        25.3630   90.1750   40.3500 C.3   239  PHE239      0.0547
    107  CG        26.3010   91.2520   40.8390 C.ar  239  PHE239     -0.0202
    108  CD1       27.6740   91.0940   40.7360 C.ar  239  PHE239     -0.0042
    109  CD2       25.8080   92.4270   41.3910 C.ar  239  PHE239     -0.0042
    110  CE1       28.5410   92.0820   41.1800 C.ar  239  PHE239     -0.0003
    111  CE2       26.6690   93.4160   41.8380 C.ar  239  PHE239     -0.0003
    112  CZ        28.0370   93.2410   41.7310 C.ar  239  PHE239     -0.0000
    113  N         25.8130   89.6260   43.6190 N.am  240  THR240     -0.1939
    114  CA        25.8060   90.3330   44.8880 C.3   240  THR240      0.2028
    115  C         27.0480   91.2100   44.9270 C.2   240  THR240      0.2643
    116  O         28.1350   90.7620   44.5720 O.2   240  THR240     -0.2714
    117  CB        25.8140   89.3570   46.0780 C.3   240  THR240      0.1808
    118  OG1       24.6310   88.5460   46.0420 O.3   240  THR240     -0.2208
    119  CG2       25.8720   90.1150   47.4010 C.3   240  THR240      0.0379
    120  N         26.8850   92.4640   45.3380 N.am  241  GLY241     -0.1939
    121  CA        27.9940   93.4010   45.3780 C.3   241  GLY241      0.2014
    122  C         27.5210   94.8420   45.3530 C.2   241  GLY241      0.2639
    123  O         26.4060   95.1380   45.7750 O.2   241  GLY241     -0.2714
    124  N         28.3660   95.7410   44.8570 N.am  242  SER242     -0.1949
    125  CA        28.0200   97.1580   44.8180 C.3   242  SER242      0.1924
    126  C         26.9140   97.4480   43.8110 C.2   242  SER242      0.2314
    127  O         26.8450   96.8240   42.7460 O.2   242  SER242     -0.2863
    128  CB        29.2480   98.0160   44.5020 C.3   242  SER242      0.2116
    129  OG        29.7420   97.7540   43.1990 O.3   242  SER242     -0.2180
    130  N         28.2610   98.1420   40.2650 N.3   245  ILE245     -0.1245
    131  CA        28.5440   97.0070   39.3880 C.3   245  ILE245      0.1561
    132  C         27.2510   96.2880   38.9610 C.2   245  ILE245      0.2260
    133  O         27.1910   95.6770   37.8910 O.2   245  ILE245     -0.2867
    134  CB        29.5320   96.0220   40.0500 C.3   245  ILE245      0.0252
    135  CG1       30.8540   96.7300   40.3530 C.3   245  ILE245      0.0019
    136  CG2       29.7750   94.8120   39.1680 C.3   245  ILE245      0.0019
    137  CD1       31.5680   97.2480   39.1220 C.3   245  ILE245      0.0001
    138  N         26.2510   97.5940   35.7370 N.3   248  VAL248     -0.1231
    139  CA        27.0980   97.0150   34.6960 C.3   248  VAL248      0.1692
    140  C         26.5960   95.6260   34.3150 C.2   248  VAL248      0.2591
    141  O         26.5720   95.2620   33.1390 O.2   248  VAL248     -0.2718
    142  CB        28.5690   96.9210   35.1710 C.3   248  VAL248      0.0266
    143  CG1       29.4590   96.3690   34.0700 C.3   248  VAL248      0.0020
    144  CG2       29.0820   98.2810   35.6420 C.3   248  VAL248      0.0020
    145  N         26.1920   94.8650   35.3300 N.am  249  ILE249     -0.1980
    146  CA        25.6480   93.5210   35.1580 C.3   249  ILE249      0.1595
    147  C         24.3570   93.5440   34.3520 C.2   249  ILE249      0.2287
    148  O         24.1560   92.7330   33.4500 O.2   249  ILE249     -0.2864
    149  CB        25.3680   92.8560   36.5270 C.3   249  ILE249      0.0276
    150  CG1       26.6730   92.6360   37.2950 C.3   249  ILE249      0.0022
    151  CG2       24.6060   91.5450   36.3590 C.3   249  ILE249      0.0022
    152  CD1       27.6600   91.7720   36.5580 C.3   249  ILE249      0.0001
    153  N         23.9880   97.1500   47.6040 N.3   266  GLY266     -0.1225
    154  CA        24.3090   97.7980   48.8600 C.3   266  GLY266      0.1811
    155  C         23.1310   98.4150   49.5950 C.2   266  GLY266      0.2280
    156  O         21.9800   98.3300   49.1560 O.2   266  GLY266     -0.2866
    157  N         26.2350   94.3330   53.8820 N.3   298  CYS298     -0.1235
    158  CA        25.3930   95.1560   53.0090 C.3   298  CYS298      0.1677
    159  C         24.1720   95.7030   53.7370 C.2   298  CYS298      0.2270
    160  O         23.5790   96.6850   53.3320 O.2   298  CYS298     -0.2867
    161  CB        24.9680   94.3590   51.7710 C.3   298  CYS298      0.0956
    162  SG        26.2910   93.9670   50.5880 S.3   298  CYS298     -0.0801
    163  N         39.6840   98.9850   50.4940 N.3   345  GLN345     -0.1245
    164  CA        38.6050   99.2450   51.4430 C.3   345  GLN345      0.1566
    165  C         39.1250  100.0370   52.6350 C.2   345  GLN345      0.2260
    166  O         38.4730  100.9640   53.1100 O.2   345  GLN345     -0.2867
    167  CB        37.9630   97.9360   51.9190 C.3   345  GLN345      0.0367
    168  CG        37.1520   97.2330   50.8520 C.3   345  GLN345      0.0905
    169  CD        36.1180   98.1460   50.2280 C.2   345  GLN345      0.2608
    170  OE1       36.2480   98.5550   49.0720 O.2   345  GLN345     -0.2717
    171  NE2       35.0830   98.4780   50.9950 N.am  345  GLN345     -0.0878
    172  N         39.5400  103.4730   51.7450 N.3   348  LYS348     -0.1245
    173  CA        38.2310  103.9910   51.3600 C.3   348  LYS348      0.1561
    174  C         37.4080  104.3640   52.5910 C.2   348  LYS348      0.2260
    175  O         36.7400  105.3920   52.6110 O.2   348  LYS348     -0.2867
    176  CB        37.4810  102.9850   50.4810 C.3   348  LYS348      0.0271
    177  CG        36.1920  103.5210   49.8760 C.3   348  LYS348      0.0035
    178  CD        35.5880  102.5240   48.8980 C.3   348  LYS348      0.0206
    179  CE        34.3180  103.0700   48.2540 C.3   348  LYS348      0.1093
    180  NZ        33.6000  102.0250   47.4640 N.3   348  LYS348     -0.1314
    181  N         27.3030  104.3130   51.4740 N.3   395  GLU395     -0.1231
    182  CA        27.6890  103.0960   52.1740 C.3   395  GLU395      0.1699
    183  C         29.1870  103.0940   52.4870 C.2   395  GLU395      0.2592
    184  O         30.0230  103.0580   51.5830 O.2   395  GLU395     -0.2718
    185  CB        27.3160  101.8730   51.3370 C.3   395  GLU395      0.0402
    186  CG        27.6670  100.5420   51.9760 C.3   395  GLU395      0.1161
    187  CD        27.1070   99.3580   51.2030 C.2   395  GLU395      0.3649
    188  OE1       27.5550   99.1160   50.0560 O.co2 395  GLU395     -0.2457
    189  OE2       26.2130   98.6730   51.7470 O.co2 395  GLU395     -0.2457
    190  N         29.5210  103.1360   53.7740 N.am  396  ILE396     -0.1966
    191  CA        30.9150  103.1760   54.1970 C.3   396  ILE396      0.1727
    192  C         31.5540  101.7870   54.1550 C.2   396  ILE396      0.2616
    193  O         32.6990  101.6390   53.7130 O.2   396  ILE396     -0.2715
    194  CB        31.0480  103.7730   55.6090 C.3   396  ILE396      0.0290
    195  CG1       30.5350  105.2150   55.6240 C.3   396  ILE396      0.0022
    196  CG2       32.4890  103.7210   56.0840 C.3   396  ILE396      0.0023
    197  CD1       30.4730  105.8200   57.0130 C.3   396  ILE396      0.0001
    198  N         30.8070  100.7820   54.6120 N.am  397  PHE397     -0.1974
    199  CA        31.2630   99.3900   54.6250 C.3   397  PHE397      0.1639
    200  C         32.4760   99.2060   55.5470 C.2   397  PHE397      0.2290
    201  O         33.3960   98.4480   55.2440 O.2   397  PHE397     -0.2864
    202  CB        31.5620   98.8950   53.1980 C.3   397  PHE397      0.0560
    203  CG        31.0180   97.5190   52.8950 C.ar  397  PHE397     -0.0200
    204  CD1       29.6500   97.2860   52.8800 C.ar  397  PHE397     -0.0042
    205  CD2       31.8730   96.4700   52.5960 C.ar  397  PHE397     -0.0042
    206  CE1       29.1420   96.0230   52.5950 C.ar  397  PHE397     -0.0003
    207  CE2       31.3720   95.2070   52.3090 C.ar  397  PHE397     -0.0003
    208  CZ        30.0030   94.9850   52.3080 C.ar  397  PHE397     -0.0000
@<TRIPOS>BOND
     1   100    99    2
     2    99    98    1
     3    95    94    2
     4    94    93    1
     5    84    83    2
     6    96    93    1
     7    98    97    1
     8    98   101    1
     9    93    92    1
    10   141   140    2
    11   148   147    2
    12    83    82    1
    13    92    90   am
    14   143   142    1
    15   140   139    1
    16   140   145   am
    17   147   146    1
    18    85    82    1
    19    85    86    1
    20    82    81    1
    21    91    90    2
    22   139   142    1
    23   139   138    1
    24    90    89    1
    25   146   145    1
    26   146   149    1
    27   142   144    1
    28    88    89    1
    29    80    79    2
    30    86    87    1
    31    81    79   am
    32    81    87    1
    33   151   149    1
    34    79    78    1
    35   149   150    1
    36   152   150    1
    37     8     6    1
    38    78    77    1
    39   133   132    2
    40    43    42    1
    41    43    44    1
    42     6     5    1
    43    42    39    1
    44   132   131    1
    45   137   135    1
    46   136   134    1
    47    44    45    1
    48   131   134    1
    49   131   130    1
    50    45    46    1
    51    38    39    1
    52    39    40    1
    53     5     7    1
    54     5     2    1
    55   134   135    1
    56   106   107    1
    57   106   103    1
    58     1     2    1
    59   108   107   ar
    60   108   110   ar
    61   107   109   ar
    62     2     3    1
    63   102   103    1
    64   110   112   ar
    65    40    41    2
    66    40    47   am
    67   103   104    1
    68   109   111   ar
    69   112   111   ar
    70    47    48    1
    71     3     4    2
    72     3     9   am
    73    67    65   ar
    74    66    65   ar
    75    50    49    2
    76    65    64    1
    77   127   126    2
    78   104   105    2
    79   104   113   am
    80    63    64    1
    81    63    60    1
    82   129   128    1
    83     9    10    1
    84    48    49    1
    85    48    51    1
    86    49    54   am
    87   113   114    1
    88    53    51    1
    89   126   125    1
    90    60    59    1
    91    60    61    1
    92    59    56   am
    93    51    52    1
    94   128   125    1
    95    54    55    1
    96   116   115    2
    97    12    11    2
    98    10    11    1
    99    10    13    1
   100    55    56    1
   101    55    58    1
   102    56    57    2
   103   125   124    1
   104   124   122   am
   105   114   115    1
   106   114   117    1
   107   115   120   am
   108    14    13    1
   109    14    16    1
   110    15    13    1
   111    11    17   am
   112   120   121    1
   113   122   121    1
   114   122   123    2
   115    61    62    2
   116    61    68   am
   117   118   117    1
   118   117   119    1
   119    75    74    2
   120    68    69    1
   121    17    23    1
   122    17    18    1
   123    76    74   am
   124    74    73    1
   125    23    22    1
   126    18    21    1
   127    18    19    1
   128   180   179    1
   129   153   154    1
   130    69    72    1
   131    69    70    1
   132    21    22    1
   133    73    72    1
   134    19    20    2
   135    19    24   am
   136    30    32   ar
   137    30    29   ar
   138   179   178    1
   139    32    33   ar
   140    70    71    2
   141    24    25    1
   142   154   155    1
   143   178   177    1
   144   170   169    2
   145   156   155    2
   146    29    28    1
   147    29    31   ar
   148    28    25    1
   149    25    26    1
   150    33    31   ar
   151    33    35   ar
   152   177   176    1
   153   188   187   ar
   154   169   168    1
   155   169   171   am
   156    31    34   ar
   157   176   173    1
   158   163   164    1
   159    35    37   ar
   160   162   161    1
   161   168   167    1
   162   187   189   ar
   163   187   186    1
   164    26    27    2
   165   185   186    1
   166   185   182    1
   167   173   172    1
   168   173   174    1
   169   164   167    1
   170   164   165    1
   171   181   182    1
   172   184   183    2
   173    34    36   ar
   174   161   158    1
   175    37    36   ar
   176   182   183    1
   177   208   207   ar
   178   208   206   ar
   179   207   205   ar
   180   183   190   am
   181   174   175    2
   182   206   204   ar
   183   205   203   ar
   184   165   166    2
   185   204   203   ar
   186   203   202    1
   187   158   159    1
   188   158   157    1
   189   202   199    1
   190   160   159    2
   191   193   192    2
   192   190   191    1
   193   192   191    1
   194   192   198   am
   195   191   194    1
   196   198   199    1
   197   199   200    1
   198   201   200    2
   199   194   195    1
   200   194   196    1
   201   195   197    1
