@<TRIPOS>MOLECULE
tmp/4fr8A00.pdb
 139 133 0 0 0
SMALL
GASTEIGER

@<TRIPOS>ATOM
      1  N         12.8740   47.4610   48.6970 N.3   113  VAL113     -0.1245
      2  CA        11.6540   48.2480   48.5580 C.3   113  VAL113      0.1561
      3  C         11.2420   48.8860   49.8770 C.2   113  VAL113      0.2260
      4  O         11.3440   50.0990   50.0310 O.2   113  VAL113     -0.2867
      5  CB        10.4850   47.4080   47.9990 C.3   113  VAL113      0.0252
      6  CG1        9.2530   48.2810   47.8130 C.3   113  VAL113      0.0019
      7  CG2       10.8870   46.7450   46.6800 C.3   113  VAL113      0.0019
      8  N         11.9780   52.7480   50.8480 N.3   117  MET117     -0.1245
      9  CA        10.8420   53.6640   50.9090 C.3   117  MET117      0.1570
     10  C         10.7280   54.3150   52.2820 C.2   117  MET117      0.2261
     11  O         10.3100   55.4680   52.3940 O.2   117  MET117     -0.2867
     12  CB         9.5420   52.9400   50.5590 C.3   117  MET117      0.0387
     13  CG         9.4730   52.4470   49.1200 C.3   117  MET117      0.0595
     14  SD         9.5120   53.7890   47.9170 S.3   117  MET117     -0.1393
     15  CE         7.9000   54.5120   48.1930 C.3   117  MET117      0.0692
     16  N          0.7680   44.9120   56.8280 N.3   162  ASN162     -0.1225
     17  CA         1.2380   44.5980   55.4840 C.3   162  ASN162      0.1785
     18  C          2.5690   45.2610   55.1330 C.2   162  ASN162      0.2597
     19  O          3.3860   44.6860   54.4090 O.2   162  ASN162     -0.2718
     20  CB         0.1650   44.9110   54.4330 C.3   162  ASN162      0.1169
     21  CG        -0.3850   46.3150   54.5530 C.2   162  ASN162      0.2627
     22  OD1        0.0290   47.0860   55.4180 O.2   162  ASN162     -0.2716
     23  ND2       -1.3230   46.6580   53.6800 N.am  162  ASN162     -0.0877
     24  N          2.7850   46.4660   55.6530 N.am  163  PHE163     -0.1976
     25  CA         4.0490   47.1770   55.4660 C.3   163  PHE163      0.1639
     26  C          4.4840   47.8330   56.7750 C.2   163  PHE163      0.2290
     27  O          4.5180   49.0580   56.8690 O.2   163  PHE163     -0.2864
     28  CB         3.9080   48.2440   54.3740 C.3   163  PHE163      0.0560
     29  CG         3.4640   47.6990   53.0450 C.ar  163  PHE163     -0.0200
     30  CD1        4.3830   47.1540   52.1610 C.ar  163  PHE163     -0.0042
     31  CD2        2.1300   47.7390   52.6770 C.ar  163  PHE163     -0.0042
     32  CE1        3.9750   46.6510   50.9340 C.ar  163  PHE163     -0.0003
     33  CE2        1.7120   47.2380   51.4560 C.ar  163  PHE163     -0.0003
     34  CZ         2.6360   46.6940   50.5830 C.ar  163  PHE163     -0.0000
     35  N          7.1860   50.7670   56.6710 N.3   166  LEU166     -0.1231
     36  CA         6.7200   51.8400   55.8030 C.3   166  LEU166      0.1693
     37  C          5.5240   52.5640   56.4070 C.2   166  LEU166      0.2591
     38  O          5.4730   53.7940   56.4020 O.2   166  LEU166     -0.2718
     39  CB         6.3670   51.3020   54.4160 C.3   166  LEU166      0.0284
     40  CG         6.1150   52.3570   53.3340 C.3   166  LEU166      0.0019
     41  CD1        7.2550   53.3620   53.3040 C.3   166  LEU166      0.0001
     42  CD2        5.9300   51.7200   51.9660 C.3   166  LEU166      0.0001
     43  N          4.5690   51.7990   56.9300 N.am  167  MET167     -0.1979
     44  CA         3.3660   52.3800   57.5270 C.3   167  MET167      0.1605
     45  C          3.7120   53.2440   58.7290 C.2   167  MET167      0.2287
     46  O          3.0810   54.2730   58.9600 O.2   167  MET167     -0.2864
     47  CB         2.3590   51.2960   57.9310 C.3   167  MET167      0.0413
     48  CG         1.6290   50.6200   56.7640 C.3   167  MET167      0.0598
     49  SD         0.7390   51.7530   55.6630 S.3   167  MET167     -0.1393
     50  CE         1.9170   51.9120   54.3130 C.3   167  MET167      0.0692
     51  N          5.2410   56.4540   57.2290 N.3   170  TRP170     -0.1241
     52  CA         4.1700   57.2830   56.6720 C.3   170  TRP170      0.1605
     53  C          3.4550   58.1070   57.7400 C.2   170  TRP170      0.2264
     54  O          2.9550   59.1970   57.4620 O.2   170  TRP170     -0.2867
     55  CB         3.1300   56.4220   55.9550 C.3   170  TRP170      0.0550
     56  CG         3.5100   55.9680   54.5860 C.ar  170  TRP170      0.0003
     57  CD1        4.7640   55.9320   54.0420 C.ar  170  TRP170      0.0946
     58  CD2        2.6210   55.4840   53.5770 C.ar  170  TRP170      0.0152
     59  NE1        4.7060   55.4520   52.7560 N.ar  170  TRP170     -0.2442
     60  CE2        3.4000   55.1680   52.4470 C.ar  170  TRP170      0.0810
     61  CE3        1.2370   55.2860   53.5190 C.ar  170  TRP170      0.0012
     62  CZ2        2.8430   54.6650   51.2740 C.ar  170  TRP170      0.0191
     63  CZ3        0.6870   54.7850   52.3560 C.ar  170  TRP170      0.0001
     64  CH2        1.4890   54.4790   51.2490 C.ar  170  TRP170      0.0015
     65  N         -5.0100   53.2660   59.5460 N.3   237  THR237     -0.1218
     66  CA        -4.9520   52.4740   58.3260 C.3   237  THR237      0.1862
     67  C         -5.2940   51.0180   58.6420 C.2   237  THR237      0.2287
     68  O         -4.7050   50.4110   59.5370 O.2   237  THR237     -0.2866
     69  CB        -3.5780   52.5730   57.6480 C.3   237  THR237      0.1770
     70  OG1       -3.3430   53.9300   57.2600 O.3   237  THR237     -0.2211
     71  CG2       -3.5310   51.6920   56.4100 C.3   237  THR237      0.0375
     72  N         -7.3130   55.5470   56.0390 N.3   261  GLN261     -0.1245
     73  CA        -6.9450   54.9340   54.7700 C.3   261  GLN261      0.1566
     74  C         -7.3490   53.4680   54.8500 C.2   261  GLN261      0.2260
     75  O         -6.8640   52.7280   55.7040 O.2   261  GLN261     -0.2867
     76  CB        -5.4500   55.0760   54.4940 C.3   261  GLN261      0.0367
     77  CG        -5.0410   54.6720   53.0800 C.3   261  GLN261      0.0905
     78  CD        -4.3580   53.3220   53.0330 C.2   261  GLN261      0.2608
     79  OE1       -5.0090   52.2860   52.8850 O.2   261  GLN261     -0.2717
     80  NE2       -3.0370   53.3260   53.1690 N.am  261  GLN261     -0.0878
     81  N          1.8380   41.4610   44.2690 N.3   289  PHE289     -0.1241
     82  CA         2.8580   42.1150   45.0920 C.3   289  PHE289      0.1605
     83  C          2.5380   41.9980   46.5750 C.2   289  PHE289      0.2264
     84  O          1.3820   42.1310   46.9680 O.2   289  PHE289     -0.2867
     85  CB         3.0050   43.5910   44.7140 C.3   289  PHE289      0.0534
     86  CG         3.9600   44.3560   45.6000 C.ar  289  PHE289     -0.0203
     87  CD1        5.2950   43.9860   45.6970 C.ar  289  PHE289     -0.0042
     88  CD2        3.5240   45.4530   46.3230 C.ar  289  PHE289     -0.0042
     89  CE1        6.1720   44.6960   46.5080 C.ar  289  PHE289     -0.0003
     90  CE2        4.3980   46.1660   47.1330 C.ar  289  PHE289     -0.0003
     91  CZ         5.7220   45.7850   47.2260 C.ar  289  PHE289     -0.0000
     92  N         -1.9340   44.0110   49.8100 N.3   294  SER294     -0.1202
     93  CA        -1.8240   45.4390   49.5800 C.3   294  SER294      0.2020
     94  C         -3.2160   45.9960   49.3940 C.2   294  SER294      0.2619
     95  O         -4.0380   45.4050   48.6980 O.2   294  SER294     -0.2717
     96  CB        -1.0040   45.7120   48.3260 C.3   294  SER294      0.2103
     97  OG        -1.0780   47.0740   47.9530 O.3   294  SER294     -0.2182
     98  N         -3.4680   47.1380   50.0220 N.am  295  CYS295     -0.1955
     99  CA        -4.7720   47.7840   49.9470 C.3   295  CYS295      0.1843
    100  C         -5.0800   48.2380   48.5170 C.2   295  CYS295      0.2626
    101  O         -6.2300   48.2520   48.0930 O.2   295  CYS295     -0.2714
    102  CB        -4.8480   48.9550   50.9380 C.3   295  CYS295      0.0997
    103  SG        -4.5580   48.5370   52.6910 S.3   295  CYS295     -0.0797
    104  N         -4.0340   48.5820   47.7740 N.am  296  SER296     -0.1950
    105  CA        -4.1780   49.1150   46.4200 C.3   296  SER296      0.1924
    106  C         -4.0740   48.0400   45.3350 C.2   296  SER296      0.2314
    107  O         -3.9500   48.3570   44.1530 O.2   296  SER296     -0.2863
    108  CB        -3.1430   50.2180   46.1700 C.3   296  SER296      0.2116
    109  OG        -1.8300   49.7020   46.2180 O.3   296  SER296     -0.2180
    110  N          1.3630   50.4980   41.2120 N.3   450  ASP450     -0.1239
    111  CA         1.9770   50.4760   42.5320 C.3   450  ASP450      0.1674
    112  C          3.2230   51.3460   42.5930 C.2   450  ASP450      0.2266
    113  O          4.1920   51.0190   43.2790 O.2   450  ASP450     -0.2867
    114  CB         2.2780   49.0350   42.9770 C.3   450  ASP450      0.1410
    115  CG         1.0700   48.3560   43.6020 C.2   450  ASP450      0.3668
    116  OD1        0.1920   49.0730   44.1300 O.co2 450  ASP450     -0.2456
    117  OD2        0.9960   47.1090   43.5720 O.co2 450  ASP450     -0.2456
    118  N          4.6400   54.3970   44.0570 N.3   452  PHE452     -0.1241
    119  CA         4.4680   55.3380   45.1540 C.3   452  PHE452      0.1605
    120  C          5.7420   56.1470   45.3330 C.2   452  PHE452      0.2264
    121  O          6.8390   55.6810   45.0310 O.2   452  PHE452     -0.2867
    122  CB         4.1730   54.6080   46.4670 C.3   452  PHE452      0.0534
    123  CG         2.9040   53.7970   46.4570 C.ar  452  PHE452     -0.0203
    124  CD1        2.8260   52.6000   45.7610 C.ar  452  PHE452     -0.0042
    125  CD2        1.8030   54.2110   47.1810 C.ar  452  PHE452     -0.0042
    126  CE1        1.6640   51.8510   45.7650 C.ar  452  PHE452     -0.0003
    127  CE2        0.6370   53.4600   47.1920 C.ar  452  PHE452     -0.0003
    128  CZ         0.5720   52.2790   46.4830 C.ar  452  PHE452     -0.0000
    129  N         -1.4420   59.9160   48.6550 N.3   458  PHE458     -0.1241
    130  CA        -2.1270   58.6410   48.4770 C.3   458  PHE458      0.1605
    131  C         -3.2590   58.5370   49.4830 C.2   458  PHE458      0.2264
    132  O         -3.0930   58.8830   50.6510 O.2   458  PHE458     -0.2867
    133  CB        -1.1460   57.4810   48.6680 C.3   458  PHE458      0.0534
    134  CG        -1.7860   56.1160   48.6170 C.ar  458  PHE458     -0.0203
    135  CD1       -2.2330   55.5860   47.4180 C.ar  458  PHE458     -0.0042
    136  CD2       -1.9150   55.3510   49.7680 C.ar  458  PHE458     -0.0042
    137  CE1       -2.8090   54.3220   47.3680 C.ar  458  PHE458     -0.0003
    138  CE2       -2.4920   54.0860   49.7260 C.ar  458  PHE458     -0.0003
    139  CZ        -2.9380   53.5740   48.5250 C.ar  458  PHE458     -0.0000
@<TRIPOS>BOND
     1   110   111    1
     2   111   112    1
     3   111   114    1
     4   112   113    2
     5   114   115    1
     6   117   115   ar
     7   115   116   ar
     8   118   119    1
     9   107   106    2
    10    81    82    1
    11    85    82    1
    12    85    86    1
    13   121   120    2
    14    82    83    1
    15   119   120    1
    16   119   122    1
    17   106   105    1
    18    86    87   ar
    19    86    88   ar
    20    87    89   ar
    21   124   126   ar
    22   124   123   ar
    23   126   128   ar
    24   108   109    1
    25   108   105    1
    26    88    90   ar
    27   105   104    1
    28   123   122    1
    29   123   125   ar
    30   128   127   ar
    31    89    91   ar
    32    83    84    2
    33     7     5    1
    34    90    91   ar
    35   125   127   ar
    36   137   135   ar
    37   137   139   ar
    38   135   134   ar
    39   104   100   am
    40     6     5    1
    41    14    15    1
    42    14    13    1
    43    97    96    1
    44     5     2    1
    45   101   100    2
    46    96    93    1
    47   130   129    1
    48   130   133    1
    49   130   131    1
    50   100    99    1
    51   139   138   ar
    52     2     1    1
    53     2     3    1
    54   134   133    1
    55   134   136   ar
    56    95    94    2
    57    13    12    1
    58    94    93    1
    59    94    98   am
    60   131   132    2
    61    93    92    1
    62   138   136   ar
    63     3     4    2
    64    99    98    1
    65    99   102    1
    66    12     9    1
    67    34    32   ar
    68    34    33   ar
    69     8     9    1
    70     9    10    1
    71    32    30   ar
    72   102   103    1
    73    64    62   ar
    74    64    63   ar
    75    62    60   ar
    76    33    31   ar
    77    42    40    1
    78    30    29   ar
    79    10    11    2
    80    63    61   ar
    81    60    59   ar
    82    60    58   ar
    83    31    29   ar
    84    59    57   ar
    85    79    78    2
    86    78    77    1
    87    78    80   am
    88    29    28    1
    89    77    76    1
    90    41    40    1
    91    40    39    1
    92    61    58   ar
    93    58    56   ar
    94    23    21   am
    95    57    56   ar
    96    50    49    1
    97    28    25    1
    98    19    18    2
    99    39    36    1
   100    20    21    1
   101    20    17    1
   102    76    73    1
   103    21    22    2
   104    56    55    1
   105    73    74    1
   106    73    72    1
   107    74    75    2
   108    18    17    1
   109    18    24   am
   110    25    24    1
   111    25    26    1
   112    17    16    1
   113    49    48    1
   114    36    37    1
   115    36    35    1
   116    55    52    1
   117    38    37    2
   118    37    43   am
   119    71    69    1
   120    52    51    1
   121    52    53    1
   122    48    47    1
   123    26    27    2
   124    43    44    1
   125    70    69    1
   126    54    53    2
   127    44    47    1
   128    44    45    1
   129    69    66    1
   130    66    67    1
   131    66    65    1
   132    67    68    2
   133    45    46    2
