@<TRIPOS>MOLECULE
tmp/4frcA01.pdb
 114 113 0 0 0
SMALL
GASTEIGER

@<TRIPOS>ATOM
      1  N          8.6460    7.9490   11.3460 N.3    89  GLN89      -0.1245
      2  CA         8.9180    6.8180   10.4860 C.3    89  GLN89       0.1566
      3  C          8.6160    5.5320   11.2460 C.2    89  GLN89       0.2260
      4  O          8.6200    5.5460   12.4840 O.2    89  GLN89      -0.2867
      5  CB        10.3590    6.7880    9.9650 C.3    89  GLN89       0.0367
      6  CG        11.3970    6.8670   11.1110 C.3    89  GLN89       0.0905
      7  CD        12.1720    5.5870   11.2600 C.2    89  GLN89       0.2608
      8  OE1       11.6210    4.4940   11.3170 O.2    89  GLN89      -0.2717
      9  NE2       13.4890    5.7170   11.4310 N.am   89  GLN89      -0.0878
     10  N          9.9880    1.2150   10.9940 N.3    91  HIS91      -0.1241
     11  CA        10.8560    0.2400   10.3900 C.3    91  HIS91       0.1621
     12  C         10.7500   -1.0560   11.2130 C.2    91  HIS91       0.2264
     13  O         10.1190   -1.0830   12.2650 O.2    91  HIS91      -0.2867
     14  CB        12.3300    0.7540   10.3300 C.3    91  HIS91       0.0745
     15  CG        12.8510    0.9750   11.7110 C.ar   91  HIS91       0.0817
     16  ND1       12.7250    2.2010   12.3550 N.ar   91  HIS91      -0.2268
     17  CD2       13.4440    0.1390   12.5960 C.ar   91  HIS91       0.1154
     18  CE1       13.2500    2.0590   13.6040 C.ar   91  HIS91       0.1986
     19  NE2       13.6990    0.8080   13.7710 N.ar   91  HIS91      -0.2212
     20  N         13.0570   -4.8200   12.5100 N.3    93  HIS93      -0.1241
     21  CA        14.2280   -5.6260   12.6660 C.3    93  HIS93       0.1621
     22  C         13.7710   -7.0920   12.5560 C.2    93  HIS93       0.2264
     23  O         12.6960   -7.4240   13.0560 O.2    93  HIS93      -0.2867
     24  CB        14.8910   -5.4230   14.0680 C.3    93  HIS93       0.0745
     25  CG        15.1940   -3.9810   14.3220 C.ar   93  HIS93       0.0817
     26  ND1       16.4490   -3.4230   14.1580 N.ar   93  HIS93      -0.2268
     27  CD2       14.3900   -2.9520   14.7160 C.ar   93  HIS93       0.1154
     28  CE1       16.3730   -2.1350   14.4480 C.ar   93  HIS93       0.1986
     29  NE2       15.1460   -1.7950   14.8080 N.ar   93  HIS93      -0.2212
     30  N          9.1340   -0.9760   14.9340 N.3   116  HIS116     -0.1241
     31  CA         9.4090    0.2560   15.6870 C.3   116  HIS116      0.1621
     32  C          8.7420    1.4350   14.9920 C.2   116  HIS116      0.2264
     33  O          9.1360    1.7610   13.8570 O.2   116  HIS116     -0.2867
     34  CB        10.9090    0.5240   15.7960 C.3   116  HIS116      0.0745
     35  CG        11.5760   -0.4700   16.6880 C.ar  116  HIS116      0.0817
     36  ND1       12.9280   -0.7240   16.6470 N.ar  116  HIS116     -0.2268
     37  CD2       11.0160   -1.2670   17.6380 C.ar  116  HIS116      0.1154
     38  CE1       13.1840   -1.6490   17.5710 C.ar  116  HIS116      0.1986
     39  NE2       12.0540   -2.0080   18.1830 N.ar  116  HIS116     -0.2212
     40  N          8.5620    5.2530   15.3250 N.3   118  VAL118     -0.1245
     41  CA         9.4140    6.2630   15.9770 C.3   118  VAL118      0.1561
     42  C          8.7050    7.6270   15.9730 C.2   118  VAL118      0.2260
     43  O          8.2610    8.0840   14.9260 O.2   118  VAL118     -0.2867
     44  CB        10.7500    6.3680   15.2190 C.3   118  VAL118      0.0252
     45  CG1       11.6670    7.4440   15.8680 C.3   118  VAL118      0.0019
     46  CG2       11.4430    5.0180   15.1330 C.3   118  VAL118      0.0019
     47  N         12.9430   16.7900   14.9180 N.3   127  PHE127     -0.1241
     48  CA        13.5430   15.5550   15.3270 C.3   127  PHE127      0.1605
     49  C         15.0050   15.7810   15.7870 C.2   127  PHE127      0.2264
     50  O         15.4410   15.2040   16.7630 O.2   127  PHE127     -0.2867
     51  CB        13.4940   14.5590   14.1650 C.3   127  PHE127      0.0534
     52  CG        14.1500   13.2340   14.4570 C.ar  127  PHE127     -0.0203
     53  CD1       13.4090   12.2100   15.0210 C.ar  127  PHE127     -0.0042
     54  CD2       15.5070   13.0210   14.1860 C.ar  127  PHE127     -0.0042
     55  CE1       14.0140   10.9980   15.3080 C.ar  127  PHE127     -0.0003
     56  CE2       16.0890   11.8120   14.4780 C.ar  127  PHE127     -0.0003
     57  CZ        15.3250   10.7980   15.0130 C.ar  127  PHE127     -0.0000
     58  N          9.2790    5.4420   21.1910 N.3   139  VAL139     -0.1245
     59  CA         9.2080    4.3950   20.1970 C.3   139  VAL139      0.1561
     60  C          8.2060    3.3580   20.6730 C.2   139  VAL139      0.2260
     61  O          8.3070    2.8610   21.7910 O.2   139  VAL139     -0.2867
     62  CB        10.5640    3.7700   19.8420 C.3   139  VAL139      0.0252
     63  CG1       10.4050    2.7410   18.7230 C.3   139  VAL139      0.0019
     64  CG2       11.5660    4.8430   19.4070 C.3   139  VAL139      0.0019
     65  N         17.9760    4.7910   21.2570 N.3   194  LEU194     -0.1231
     66  CA        17.9600    4.2110   19.9210 C.3   194  LEU194      0.1693
     67  C         18.7410    2.9090   19.9390 C.2   194  LEU194      0.2593
     68  O         19.7540    2.7840   20.6360 O.2   194  LEU194     -0.2718
     69  CB        18.6170    5.1890   18.9440 C.3   194  LEU194      0.0284
     70  CG        17.9470    6.5470   18.7940 C.3   194  LEU194      0.0019
     71  CD1       18.7430    7.4760   17.8630 C.3   194  LEU194      0.0001
     72  CD2       16.5110    6.3840   18.2620 C.3   194  LEU194      0.0001
     73  N         18.3180    1.9360   19.1260 N.am  195  THR195     -0.1939
     74  CA        18.9880    0.6360   19.0910 C.3   195  THR195      0.2028
     75  C         19.9960    0.5010   17.9480 C.2   195  THR195      0.2643
     76  O         20.6120   -0.5600   17.8130 O.2   195  THR195     -0.2714
     77  CB        18.0160   -0.5350   19.0140 C.3   195  THR195      0.1808
     78  OG1       17.4150   -0.5210   17.7390 O.3   195  THR195     -0.2208
     79  CG2       16.9580   -0.4870   20.1260 C.3   195  THR195      0.0379
     80  N         20.1590    1.5490   17.1540 N.am  196  THR196     -0.1937
     81  CA        21.2440    1.6100   16.1820 C.3   196  THR196      0.2013
     82  C         22.0600    2.8520   16.5010 C.2   196  THR196      0.2484
     83  O         21.5580    3.8140   17.0770 O.2   196  THR196     -0.2729
     84  CB        20.7830    1.7590   14.7320 C.3   196  THR196      0.1807
     85  OG1       20.2430    3.0250   14.4930 O.3   196  THR196     -0.2208
     86  CG2       19.8090    0.6920   14.3240 C.3   196  THR196      0.0379
     87  N         23.3270    2.8810   16.0370 N.am  197  PRO197     -0.2715
     88  CA        24.0550    4.1360   16.0660 C.3   197  PRO197      0.1521
     89  C         23.1830    5.2610   15.5210 C.2   197  PRO197      0.2440
     90  O         22.4520    5.0380   14.5130 O.2   197  PRO197     -0.2731
     91  CB        25.2640    3.7930   15.1520 C.3   197  PRO197      0.0310
     92  CG        25.5270    2.3470   15.4580 C.3   197  PRO197      0.0237
     93  CD        24.1110    1.7510   15.4980 C.3   197  PRO197      0.0939
     94  N         23.1890    6.4310   16.1300 N.am  198  PRO198     -0.2727
     95  CA        24.0980    6.8870   17.1930 C.3   198  PRO198      0.1402
     96  C         23.7120    6.4580   18.6380 C.2   198  PRO198      0.2269
     97  O         24.3790    6.9460   19.5560 O.2   198  PRO198     -0.2865
     98  CB        24.0260    8.4250   16.9810 C.3   198  PRO198      0.0296
     99  CG        22.6380    8.6870   16.5010 C.3   198  PRO198      0.0237
    100  CD        22.3220    7.5400   15.5840 C.3   198  PRO198      0.0939
    101  N         10.5510    3.9750   25.7290 N.3   205  TRP205     -0.1241
    102  CA        10.0940    2.7840   25.0430 C.3   205  TRP205      0.1605
    103  C          8.7410    2.3850   25.5360 C.2   205  TRP205      0.2264
    104  O          8.4920    2.3350   26.7640 O.2   205  TRP205     -0.2867
    105  CB        11.1020    1.6150   25.2510 C.3   205  TRP205      0.0550
    106  CG        12.2210    1.7200   24.2700 C.ar  205  TRP205      0.0003
    107  CD1       13.4540    2.3050   24.4410 C.ar  205  TRP205      0.0946
    108  CD2       12.1720    1.2910   22.9030 C.ar  205  TRP205      0.0152
    109  NE1       14.1770    2.2530   23.2800 N.ar  205  TRP205     -0.2442
    110  CE2       13.3970    1.6350   22.3250 C.ar  205  TRP205      0.0810
    111  CE3       11.2070    0.6440   22.1380 C.ar  205  TRP205      0.0012
    112  CZ2       13.6830    1.3560   20.9760 C.ar  205  TRP205      0.0191
    113  CZ3       11.4940    0.3590   20.8080 C.ar  205  TRP205      0.0001
    114  CH2       12.7250    0.7010   20.2470 C.ar  205  TRP205      0.0015
@<TRIPOS>BOND
     1     5     2    1
     2     5     6    1
     3    14    11    1
     4    14    15    1
     5    11    10    1
     6    11    12    1
     7     2     3    1
     8     2     1    1
     9     6     7    1
    10    12    13    2
    11     3     4    2
    12     7     8    2
    13     7     9   am
    14    15    16   ar
    15    15    17   ar
    16    16    18   ar
    17    20    21    1
    18    22    21    1
    19    22    23    2
    20    17    19   ar
    21    21    24    1
    22    18    19   ar
    23    33    32    2
    24    24    25    1
    25    26    25   ar
    26    26    28   ar
    27    51    52    1
    28    51    48    1
    29    54    52   ar
    30    54    56   ar
    31    25    27   ar
    32    86    84    1
    33    28    29   ar
    34    52    53   ar
    35    56    57   ar
    36    85    84    1
    37    90    89    2
    38    27    29   ar
    39    84    81    1
    40    47    48    1
    41    43    42    2
    42    30    31    1
    43    32    31    1
    44    57    55   ar
    45    53    55   ar
    46    46    44    1
    47    91    92    1
    48    91    88    1
    49    44    45    1
    50    44    41    1
    51    40    41    1
    52    48    49    1
    53    92    93    1
    54    93    87    1
    55    89    88    1
    56    89    94   am
    57   100    94    1
    58   100    99    1
    59    31    34    1
    60    49    50    2
    61    34    35    1
    62    42    41    1
    63    87    88    1
    64    87    82   am
    65    94    95    1
    66    81    82    1
    67    81    80    1
    68    82    83    2
    69    99    98    1
    70    36    35   ar
    71    36    38   ar
    72    35    37   ar
    73    98    95    1
    74    80    75   am
    75    95    96    1
    76    38    39   ar
    77    37    39   ar
    78    78    77    1
    79    76    75    2
    80    71    70    1
    81    75    74    1
    82    72    70    1
    83    96    97    2
    84    63    62    1
    85    70    69    1
    86    69    66    1
    87    77    74    1
    88    77    79    1
    89    74    73    1
    90    73    67   am
    91    64    62    1
    92    62    59    1
    93    66    67    1
    94    66    65    1
    95    67    68    2
    96    59    60    1
    97    59    58    1
    98   114   113   ar
    99   114   112   ar
   100    60    61    2
   101   113   111   ar
   102   112   110   ar
   103   111   108   ar
   104   110   108   ar
   105   110   109   ar
   106   108   106   ar
   107   109   107   ar
   108   106   107   ar
   109   106   105    1
   110   102   105    1
   111   102   103    1
   112   102   101    1
   113   103   104    2
