@<TRIPOS>MOLECULE
tmp/4friA00.pdb
 191 183 0 0 0
SMALL
GASTEIGER

@<TRIPOS>ATOM
      1  N         76.7580   42.7130   -0.2490 N.3    13  GLY13      -0.1210
      2  CA        76.3450   42.6260    1.1460 C.3    13  GLY13       0.1956
      3  C         76.4020   43.9300    1.9230 C.2    13  GLY13       0.2612
      4  O         75.9330   43.9830    3.0510 O.2    13  GLY13      -0.2717
      5  N         76.9490   44.9890    1.3310 N.am   14  GLN14      -0.1965
      6  CA        77.1000   46.2640    2.0320 C.3    14  GLN14       0.1733
      7  C         76.1240   47.3500    1.5780 C.2    14  GLN14       0.2616
      8  O         76.2410   48.5060    2.0000 O.2    14  GLN14      -0.2715
      9  CB        78.5550   46.7390    1.9180 C.3    14  GLN14       0.0408
     10  CG        79.5370   45.7350    2.5130 C.3    14  GLN14       0.0908
     11  CD        80.9830   46.1840    2.4680 C.2    14  GLN14       0.2608
     12  OE1       81.3330   47.1420    1.7810 O.2    14  GLN14      -0.2717
     13  NE2       81.8340   45.4910    3.2180 N.am   14  GLN14      -0.0878
     14  N         75.1580   46.9810    0.7350 N.am   15  GLY15      -0.1955
     15  CA        74.1160   47.8880    0.2970 C.3    15  GLY15       0.1869
     16  C         74.4570   48.7100   -0.9350 C.2    15  GLY15       0.2309
     17  O         75.5710   48.6700   -1.4250 O.2    15  GLY15      -0.2863
     18  N         73.6520   55.4340    1.5650 N.3    32  LEU32      -0.1245
     19  CA        72.9420   54.1930    1.3290 C.3    32  LEU32       0.1561
     20  C         71.4610   54.4600    1.0120 C.2    32  LEU32       0.2260
     21  O         70.7920   55.2560    1.6920 O.2    32  LEU32      -0.2867
     22  CB        73.0570   53.3220    2.5690 C.3    32  LEU32       0.0270
     23  CG        72.5630   51.8980    2.4130 C.3    32  LEU32       0.0019
     24  CD1       73.3820   50.9790    3.2900 C.3    32  LEU32       0.0001
     25  CD2       71.0760   51.8090    2.7450 C.3    32  LEU32       0.0001
     26  N         67.8160   53.3300    1.1000 N.3    34  ASP34      -0.1239
     27  CA        67.1060   52.4220    2.0110 C.3    34  ASP34       0.1674
     28  C         65.6000   52.6270    1.9520 C.2    34  ASP34       0.2266
     29  O         65.0730   53.5770    2.5370 O.2    34  ASP34      -0.2867
     30  CB        67.5990   52.6760    3.4350 C.3    34  ASP34       0.1410
     31  CG        67.1070   51.6460    4.4490 C.2    34  ASP34       0.3668
     32  OD1       66.5790   50.5940    4.0650 O.co2  34  ASP34      -0.2456
     33  OD2       67.2900   51.8880    5.6710 O.co2  34  ASP34      -0.2456
     34  N         63.5530   50.7730    3.4520 N.3    36  GLY36      -0.1210
     35  CA        63.0190   50.2010    4.7000 C.3    36  GLY36       0.1956
     36  C         63.1070   51.1230    5.9090 C.2    36  GLY36       0.2613
     37  O         62.8580   50.6950    7.0340 O.2    36  GLY36      -0.2717
     38  N         63.4660   52.3840    5.6820 N.am   37  SER37      -0.1938
     39  CA        63.5860   53.3630    6.7560 C.3    37  SER37       0.2055
     40  C         63.2570   54.7410    6.1870 C.2    37  SER37       0.2644
     41  O         63.1540   54.8960    4.9670 O.2    37  SER37      -0.2714
     42  CB        64.9930   53.3230    7.3960 C.3    37  SER37       0.2130
     43  OG        66.0120   53.8480    6.5460 O.3    37  SER37      -0.2179
     44  N         63.1060   55.7320    7.0640 N.am   38  SER38      -0.1935
     45  CA        62.5520   57.0320    6.6750 C.3    38  SER38       0.2055
     46  C         63.3210   58.2630    7.1700 C.2    38  SER38       0.2643
     47  O         62.8420   59.3960    7.0160 O.2    38  SER38      -0.2714
     48  CB        61.0980   57.1120    7.1480 C.3    38  SER38       0.2130
     49  OG        60.3840   55.9460    6.7480 O.3    38  SER38      -0.2179
     50  N         64.5050   58.0450    7.7470 N.am   39  ASN39      -0.1971
     51  CA        65.3930   59.1350    8.1720 C.3    39  ASN39       0.1688
     52  C         66.5140   59.3320    7.1770 C.2    39  ASN39       0.2292
     53  O         67.0590   58.3590    6.6440 O.2    39  ASN39      -0.2864
     54  CB        66.0470   58.8170    9.5130 C.3    39  ASN39       0.1181
     55  CG        65.1210   59.0440   10.6970 C.2    39  ASN39       0.2629
     56  OD1       64.2790   58.2080   11.0240 O.2    39  ASN39      -0.2716
     57  ND2       65.3110   60.1630   11.3710 N.am   39  ASN39      -0.0877
     58  N         68.1870   55.9870   18.4370 N.3    71  VAL71      -0.1245
     59  CA        67.5510   54.8940   17.7190 C.3    71  VAL71       0.1561
     60  C         68.2560   53.5560   17.9680 C.2    71  VAL71       0.2260
     61  O         69.2560   53.2470   17.3220 O.2    71  VAL71      -0.2867
     62  CB        67.5170   55.1620   16.1990 C.3    71  VAL71       0.0252
     63  CG1       66.7550   54.0440   15.4860 C.3    71  VAL71       0.0019
     64  CG2       66.9130   56.5230   15.9060 C.3    71  VAL71       0.0019
     65  N         68.0130   49.4460   17.4980 N.3    73  TYR73      -0.1241
     66  CA        67.2940   48.5310   16.6190 C.3    73  TYR73       0.1605
     67  C         67.8110   47.1020   16.7550 C.2    73  TYR73       0.2264
     68  O         68.7070   46.8460   17.5610 O.2    73  TYR73      -0.2867
     69  CB        67.3130   49.0400   15.1670 C.3    73  TYR73       0.0534
     70  CG        68.6830   49.2100   14.5470 C.ar   73  TYR73      -0.0201
     71  CD1       69.4510   50.3510   14.7980 C.ar   73  TYR73      -0.0009
     72  CD2       69.1970   48.2420   13.6730 C.ar   73  TYR73      -0.0009
     73  CE1       70.7000   50.5120   14.2170 C.ar   73  TYR73       0.0417
     74  CE2       70.4430   48.3910   13.0870 C.ar   73  TYR73       0.0417
     75  CZ        71.1920   49.5240   13.3610 C.ar   73  TYR73       0.1957
     76  OH        72.4320   49.6690   12.7780 O.3    73  TYR73      -0.2866
     77  N         72.0360   53.8150   16.6310 N.3    78  TRP78      -0.1241
     78  CA        72.6610   55.1110   16.4000 C.3    78  TRP78       0.1605
     79  C         71.9540   56.2060   17.1180 C.2    78  TRP78       0.2264
     80  O         70.8100   56.0670   17.5100 O.2    78  TRP78      -0.2867
     81  CB        72.7710   55.4540   14.9160 C.3    78  TRP78       0.0550
     82  CG        71.4710   55.7240   14.2190 C.ar   78  TRP78       0.0003
     83  CD1       70.6180   54.7940   13.6260 C.ar   78  TRP78       0.0946
     84  CD2       70.8350   57.0270   13.9950 C.ar   78  TRP78       0.0152
     85  NE1       69.5280   55.4120   13.0700 N.ar   78  TRP78      -0.2442
     86  CE2       69.5990   56.7590   13.2510 C.ar   78  TRP78       0.0810
     87  CE3       71.1400   58.3330   14.3380 C.ar   78  TRP78       0.0012
     88  CZ2       68.7340   57.7690   12.8780 C.ar   78  TRP78       0.0191
     89  CZ3       70.2570   59.3510   13.9400 C.ar   78  TRP78       0.0001
     90  CH2       69.0840   59.0680   13.2250 C.ar   78  TRP78       0.0015
     91  N         77.4520   49.1280   15.5980 N.3   109  LYS109     -0.1231
     92  CA        77.0820   48.1690   14.5680 C.3   109  LYS109      0.1693
     93  C         76.1680   48.7740   13.4950 C.2   109  LYS109      0.2592
     94  O         75.3460   48.0750   12.9220 O.2   109  LYS109     -0.2718
     95  CB        76.4610   46.9120   15.2110 C.3   109  LYS109      0.0285
     96  CG        77.4590   46.1790   16.0940 C.3   109  LYS109      0.0035
     97  CD        76.8780   45.0360   16.9130 C.3   109  LYS109      0.0206
     98  CE        78.0250   44.2440   17.5480 C.3   109  LYS109      0.1093
     99  NZ        77.5950   43.3180   18.6290 N.3   109  LYS109     -0.1314
    100  N         76.3410   50.0660   13.2180 N.am  110  PHE110     -0.1976
    101  CA        75.5700   50.7610   12.1920 C.3   110  PHE110      0.1639
    102  C         76.3880   50.8610   10.9160 C.2   110  PHE110      0.2290
    103  O         75.9780   50.3310    9.8770 O.2   110  PHE110     -0.2864
    104  CB        75.1680   52.1480   12.6710 C.3   110  PHE110      0.0560
    105  CG        74.3400   52.9260   11.6800 C.ar  110  PHE110     -0.0200
    106  CD1       72.9730   52.6850   11.5470 C.ar  110  PHE110     -0.0042
    107  CD2       74.9110   53.9320   10.9120 C.ar  110  PHE110     -0.0042
    108  CE1       72.2020   53.4200   10.6700 C.ar  110  PHE110     -0.0003
    109  CE2       74.1420   54.6600   10.0250 C.ar  110  PHE110     -0.0003
    110  CZ        72.7790   54.4070    9.9100 C.ar  110  PHE110     -0.0000
    111  N         79.5660   50.0450    8.4160 N.3   112  ILE112     -0.1245
    112  CA        80.2530   48.8150    8.0800 C.3   112  ILE112      0.1561
    113  C         81.7390   49.1060    7.8860 C.2   112  ILE112      0.2260
    114  O         82.1040   49.9780    7.0830 O.2   112  ILE112     -0.2867
    115  CB        79.6620   48.1840    6.8010 C.3   112  ILE112      0.0252
    116  CG1       78.2030   47.7480    7.0430 C.3   112  ILE112      0.0019
    117  CG2       80.4870   46.9810    6.3540 C.3   112  ILE112      0.0019
    118  CD1       77.4780   47.3460    5.7730 C.3   112  ILE112      0.0001
    119  N         80.2030   53.9830    2.1370 N.3   117  TRP117     -0.1241
    120  CA        79.1480   54.9420    2.4800 C.3   117  TRP117      0.1605
    121  C         79.2030   55.4350    3.9170 C.2   117  TRP117      0.2264
    122  O         79.7530   54.7860    4.8040 O.2   117  TRP117     -0.2867
    123  CB        77.7520   54.3930    2.1490 C.3   117  TRP117      0.0550
    124  CG        77.4170   53.0950    2.8430 C.ar  117  TRP117      0.0003
    125  CD1       77.5750   51.8170    2.3500 C.ar  117  TRP117      0.0946
    126  CD2       76.8600   52.9050    4.1890 C.ar  117  TRP117      0.0152
    127  NE1       77.1560   50.8940    3.2600 N.ar  117  TRP117     -0.2442
    128  CE2       76.7240   51.4740    4.3730 C.ar  117  TRP117      0.0810
    129  CE3       76.4760   53.7490    5.2130 C.ar  117  TRP117      0.0012
    130  CZ2       76.2270   50.9270    5.5410 C.ar  117  TRP117      0.0191
    131  CZ3       75.9760   53.1940    6.3830 C.ar  117  TRP117      0.0001
    132  CH2       75.8550   51.8140    6.5440 C.ar  117  TRP117      0.0015
    133  N         72.6510   57.1930    5.5350 N.3   120  ILE120     -0.1245
    134  CA        71.5000   56.4480    4.9970 C.3   120  ILE120      0.1561
    135  C         70.4160   57.4160    4.5320 C.2   120  ILE120      0.2260
    136  O         70.1260   58.3860    5.2260 O.2   120  ILE120     -0.2867
    137  CB        70.9070   55.4660    6.0390 C.3   120  ILE120      0.0252
    138  CG1       71.9000   54.3450    6.3380 C.3   120  ILE120      0.0019
    139  CG2       69.6290   54.8130    5.5180 C.3   120  ILE120      0.0019
    140  CD1       71.2610   53.0680    6.8680 C.3   120  ILE120      0.0001
    141  N         57.2590   55.8790   10.2430 N.3   128  ILE128     -0.1245
    142  CA        58.3420   55.1220   10.9020 C.3   128  ILE128      0.1561
    143  C         59.6270   55.9560   11.0410 C.2   128  ILE128      0.2260
    144  O         60.6760   55.4300   11.3670 O.2   128  ILE128     -0.2867
    145  CB        58.6000   53.7640   10.2130 C.3   128  ILE128      0.0252
    146  CG1       59.2400   53.9330    8.8240 C.3   128  ILE128      0.0019
    147  CG2       57.2920   52.9830   10.1240 C.3   128  ILE128      0.0019
    148  CD1       59.5820   52.6210    8.1370 C.3   128  ILE128      0.0001
    149  N         62.1800   58.4660   12.9150 N.3   130  ARG130     -0.1245
    150  CA        62.5890   58.7050   14.3050 C.3   130  ARG130      0.1563
    151  C         62.9320   60.1750   14.5060 C.2   130  ARG130      0.2260
    152  O         63.6110   60.7580   13.6690 O.2   130  ARG130     -0.2867
    153  CB        63.8140   57.8740   14.6840 C.3   130  ARG130      0.0307
    154  CG        63.6930   56.3870   14.4240 C.3   130  ARG130      0.0489
    155  CD        62.4660   55.7790   15.0720 C.3   130  ARG130      0.2205
    156  NE        62.4600   54.3340   14.8720 N.pl3 130  ARG130     -0.0865
    157  CZ        61.3810   53.5940   14.6080 C.cat 130  ARG130      0.5346
    158  NH1       60.1650   54.1400   14.5000 N.pl3 130  ARG130      0.1354
    159  NH2       61.5220   52.2850   14.4410 N.pl3 130  ARG130      0.1354
    160  N         62.3090   46.1460    0.6900 N.3   220  ASP220     -0.1225
    161  CA        63.3920   46.8020    1.4550 C.3   220  ASP220      0.1805
    162  C         64.7650   46.7140    0.7870 C.2   220  ASP220      0.2598
    163  O         65.4590   45.7010    0.8920 O.2   220  ASP220     -0.2718
    164  CB        63.4880   46.1880    2.8510 C.3   220  ASP220      0.1424
    165  CG        64.4870   46.9110    3.7430 C.2   220  ASP220      0.3668
    166  OD1       64.9930   47.9750    3.3310 O.co2 220  ASP220     -0.2456
    167  OD2       64.7570   46.4170    4.8630 O.co2 220  ASP220     -0.2456
    168  N         65.1790   47.7830    0.1250 N.am  221  SER221     -0.1938
    169  CA        66.4740   47.7840   -0.5090 C.3   221  SER221      0.2055
    170  C         67.6290   47.7730    0.5050 C.2   221  SER221      0.2644
    171  O         68.7720   47.5580    0.1240 O.2   221  SER221     -0.2714
    172  CB        66.6040   48.9820   -1.4330 C.3   221  SER221      0.2130
    173  OG        66.6470   50.1750   -0.6860 O.3   221  SER221     -0.2179
    174  N         67.3260   48.0380    1.7750 N.am  222  GLY222     -0.1939
    175  CA        68.3110   48.0170    2.8490 C.3   222  GLY222      0.2014
    176  C         68.5100   46.6790    3.5380 C.2   222  GLY222      0.2640
    177  O         69.2030   46.6030    4.5520 O.2   222  GLY222     -0.2714
    178  N         67.8830   45.6320    3.0100 N.am  223  THR223     -0.1936
    179  CA        68.0620   44.2730    3.5070 C.3   223  THR223      0.2028
    180  C         68.6030   43.4320    2.3740 C.2   223  THR223      0.2642
    181  O         68.1270   43.5260    1.2450 O.2   223  THR223     -0.2714
    182  CB        66.7420   43.6480    3.9730 C.3   223  THR223      0.1808
    183  OG1       66.2990   44.3060    5.1580 O.3   223  THR223     -0.2208
    184  CG2       66.9100   42.1670    4.2660 C.3   223  THR223      0.0379
    185  N         69.5960   42.6060    2.6840 N.am  224  THR224     -0.1950
    186  CA        70.2320   41.7770    1.6860 C.3   224  THR224      0.1897
    187  C         69.3380   40.6020    1.3030 C.2   224  THR224      0.2313
    188  O         69.0820   40.3530    0.1210 O.2   224  THR224     -0.2863
    189  CB        71.5820   41.2480    2.2090 C.3   224  THR224      0.1794
    190  OG1       72.4480   42.3570    2.5010 O.3   224  THR224     -0.2208
    191  CG2       72.2450   40.3360    1.1800 C.3   224  THR224      0.0378
@<TRIPOS>BOND
     1   172   173    1
     2   172   169    1
     3    17    16    2
     4    16    15    1
     5   169   168    1
     6   169   170    1
     7     1     2    1
     8   188   187    2
     9   171   170    2
    10   168   162   am
    11    15    14    1
    12   170   174   am
    13   160   161    1
    14    14     7   am
    15   162   163    2
    16   162   161    1
    17    20    19    1
    18    20    21    2
    19    26    27    1
    20     2     3    1
    21   191   189    1
    22   181   180    2
    23   187   186    1
    24    19    18    1
    25    19    22    1
    26     5     3   am
    27     5     6    1
    28   161   164    1
    29     7     8    2
    30     7     6    1
    31   186   189    1
    32   186   185    1
    33   174   175    1
    34    12    11    2
    35     9     6    1
    36     9    10    1
    37     3     4    2
    38    28    27    1
    39    28    29    2
    40    27    30    1
    41   119   120    1
    42   123   120    1
    43   123   124    1
    44   189   190    1
    45   125   124   ar
    46   125   127   ar
    47   180   185   am
    48   180   179    1
    49    23    22    1
    50    23    25    1
    51    23    24    1
    52    11    10    1
    53    11    13   am
    54   120   121    1
    55   124   126   ar
    56   175   176    1
    57   164   165    1
    58   178   179    1
    59   178   176   am
    60   127   128   ar
    61   166   165   ar
    62    30    31    1
    63    34    35    1
    64   179   182    1
    65   176   177    2
    66   165   167   ar
    67   121   122    2
    68   182   184    1
    69   182   183    1
    70    32    31   ar
    71   126   128   ar
    72   126   129   ar
    73   128   130   ar
    74    31    33   ar
    75   135   134    1
    76   135   136    2
    77    35    36    1
    78    41    40    2
    79   134   133    1
    80   134   137    1
    81   129   131   ar
    82   139   137    1
    83   130   132   ar
    84    38    36   am
    85    38    39    1
    86   118   116    1
    87    36    37    2
    88   137   138    1
    89    40    39    1
    90    40    44   am
    91   138   140    1
    92   117   115    1
    93   131   132   ar
    94    43    42    1
    95    53    52    2
    96    45    44    1
    97    45    48    1
    98    45    46    1
    99    49    48    1
   100    39    42    1
   101   115   116    1
   102   115   112    1
   103    47    46    2
   104   114   113    2
   105    46    50   am
   106    52    51    1
   107    50    51    1
   108   113   112    1
   109   112   111    1
   110   148   146    1
   111    51    54    1
   112   146   145    1
   113    54    55    1
   114   103   102    2
   115   110   109   ar
   116   110   108   ar
   117   109   107   ar
   118   147   145    1
   119   145   142    1
   120   141   142    1
   121   108   106   ar
   122    55    56    2
   123    55    57   am
   124   142   143    1
   125   107   105   ar
   126   102   101    1
   127   143   144    2
   128   106   105   ar
   129   105   104    1
   130   101   104    1
   131   101   100    1
   132    76    75    1
   133    88    90   ar
   134    88    86   ar
   135   149   150    1
   136    94    93    2
   137    85    86   ar
   138    85    83   ar
   139    74    75   ar
   140    74    72   ar
   141   100    93   am
   142    90    89   ar
   143    86    84   ar
   144    75    73   ar
   145    93    92    1
   146    83    82   ar
   147   152   151    2
   148    72    70   ar
   149    89    87   ar
   150    84    82   ar
   151    84    87   ar
   152    73    71   ar
   153    82    81    1
   154   150   151    1
   155   150   153    1
   156   154   153    1
   157   154   155    1
   158   159   157    1
   159   158   157    1
   160    70    71   ar
   161    70    69    1
   162    92    95    1
   163    92    91    1
   164   157   156    2
   165   156   155    1
   166    81    78    1
   167    69    66    1
   168    95    96    1
   169    63    62    1
   170    64    62    1
   171    96    97    1
   172    62    59    1
   173    78    77    1
   174    78    79    1
   175    66    67    1
   176    66    65    1
   177    67    68    2
   178    97    98    1
   179    79    80    2
   180    61    60    2
   181    98    99    1
   182    59    60    1
   183    59    58    1
