@<TRIPOS>MOLECULE
tmp/4frjA00.pdb
 207 199 0 0 0
SMALL
GASTEIGER

@<TRIPOS>ATOM
      1  N         23.8350   42.7520   84.7700 N.3    13  GLY13      -0.1210
      2  CA        24.3140   42.6620   83.3880 C.3    13  GLY13       0.1956
      3  C         24.2890   43.9460   82.5580 C.2    13  GLY13       0.2612
      4  O         24.7390   43.9320   81.4140 O.2    13  GLY13      -0.2717
      5  N         23.7730   45.0390   83.1170 N.am   14  GLN14      -0.1965
      6  CA        23.6060   46.3120   82.3850 C.3    14  GLN14       0.1733
      7  C         24.5720   47.4030   82.8650 C.2    14  GLN14       0.2617
      8  O         24.4550   48.5770   82.4850 O.2    14  GLN14      -0.2715
      9  CB        22.1700   46.8170   82.5190 C.3    14  GLN14       0.0408
     10  CG        21.1470   45.9090   81.8530 C.3    14  GLN14       0.0908
     11  CD        19.7280   46.4460   81.8980 C.2    14  GLN14       0.2608
     12  OE1       18.8490   45.9010   81.2400 O.2    14  GLN14      -0.2717
     13  NE2       19.4980   47.5130   82.6600 N.am   14  GLN14      -0.0878
     14  N         25.5180   47.0100   83.7090 N.am   15  GLY15      -0.1940
     15  CA        26.5590   47.9050   84.1550 C.3    15  GLY15       0.2014
     16  C         26.2130   48.7380   85.3670 C.2    15  GLY15       0.2638
     17  O         25.0680   48.7700   85.8320 O.2    15  GLY15      -0.2714
     18  N         27.2240   49.4380   85.8590 N.am   16  TYR16      -0.1973
     19  CA        27.0820   50.3070   87.0080 C.3    16  TYR16       0.1639
     20  C         27.1120   51.7270   86.5130 C.2    16  TYR16       0.2290
     21  O         27.9530   52.0720   85.6660 O.2    16  TYR16      -0.2864
     22  CB        28.2380   50.0890   87.9700 C.3    16  TYR16       0.0560
     23  CG        28.2000   48.7590   88.6790 C.ar   16  TYR16      -0.0198
     24  CD1       28.7510   47.6280   88.1130 C.ar   16  TYR16      -0.0009
     25  CD2       27.6120   48.6490   89.9250 C.ar   16  TYR16      -0.0009
     26  CE1       28.7260   46.4100   88.7730 C.ar   16  TYR16       0.0417
     27  CE2       27.5700   47.4340   90.5950 C.ar   16  TYR16       0.0417
     28  CZ        28.1290   46.3190   90.0210 C.ar   16  TYR16       0.1957
     29  OH        28.0790   45.1220   90.7040 O.3    16  TYR16      -0.2866
     30  N         27.1680   55.4680   82.8080 N.3    32  LEU32      -0.1245
     31  CA        27.8640   54.1890   82.9830 C.3    32  LEU32       0.1561
     32  C         29.3420   54.4230   83.3300 C.2    32  LEU32       0.2260
     33  O         30.0330   55.1640   82.6360 O.2    32  LEU32      -0.2867
     34  CB        27.7540   53.3450   81.7020 C.3    32  LEU32       0.0270
     35  CG        28.4660   51.9890   81.5870 C.3    32  LEU32       0.0019
     36  CD1       27.7750   50.9190   82.4100 C.3    32  LEU32       0.0001
     37  CD2       28.5510   51.5370   80.1280 C.3    32  LEU32       0.0001
     38  N         32.9760   53.3390   83.3160 N.3    34  ASP34      -0.1239
     39  CA        33.7230   52.4330   82.4540 C.3    34  ASP34       0.1674
     40  C         35.2250   52.7100   82.5070 C.2    34  ASP34       0.2266
     41  O         35.7340   53.6680   81.8980 O.2    34  ASP34      -0.2867
     42  CB        33.1930   52.5360   81.0170 C.3    34  ASP34       0.1410
     43  CG        33.8480   51.5600   80.0690 C.2    34  ASP34       0.3668
     44  OD1       34.4250   50.5310   80.5090 O.co2  34  ASP34      -0.2456
     45  OD2       33.7670   51.8050   78.8440 O.co2  34  ASP34      -0.2456
     46  N         37.2340   50.8710   81.1110 N.3    36  GLY36      -0.1210
     47  CA        37.7270   50.3420   79.8530 C.3    36  GLY36       0.1956
     48  C         37.6730   51.2690   78.6480 C.2    36  GLY36       0.2612
     49  O         38.0000   50.8420   77.5340 O.2    36  GLY36      -0.2717
     50  N         37.2850   52.5250   78.8490 N.am   37  SER37      -0.1952
     51  CA        37.2810   53.5000   77.7670 C.3    37  SER37       0.1924
     52  C         37.5730   54.8800   78.3430 C.2    37  SER37       0.2314
     53  O         37.6760   55.0370   79.5600 O.2    37  SER37      -0.2863
     54  CB        35.9370   53.4450   77.0320 C.3    37  SER37       0.2116
     55  OG        34.8840   53.9290   77.8540 O.3    37  SER37      -0.2180
     56  N         32.9660   56.5360   66.8130 N.3    71  VAL71      -0.1245
     57  CA        33.4550   55.4900   67.7290 C.3    71  VAL71       0.1561
     58  C         32.8160   54.1120   67.5190 C.2    71  VAL71       0.2260
     59  O         31.9520   53.6830   68.3040 O.2    71  VAL71      -0.2867
     60  CB        33.3100   55.9060   69.2100 C.3    71  VAL71       0.0252
     61  CG1       34.0850   54.9430   70.1260 C.3    71  VAL71       0.0019
     62  CG2       33.7900   57.3410   69.4200 C.3    71  VAL71       0.0019
     63  N         33.1310   50.2050   68.0060 N.3    73  TYR73      -0.1241
     64  CA        33.7860   49.3500   68.9860 C.3    73  TYR73       0.1605
     65  C         33.2870   47.9270   68.7510 C.2    73  TYR73       0.2264
     66  O         32.4950   47.7000   67.8230 O.2    73  TYR73      -0.2867
     67  CB        33.5690   49.8740   70.4180 C.3    73  TYR73       0.0534
     68  CG        32.1430   49.8660   70.9180 C.ar   73  TYR73      -0.0201
     69  CD1       31.2540   50.8840   70.5810 C.ar   73  TYR73      -0.0009
     70  CD2       31.6930   48.8540   71.7710 C.ar   73  TYR73      -0.0009
     71  CE1       29.9530   50.8730   71.0520 C.ar   73  TYR73       0.0417
     72  CE2       30.3980   48.8410   72.2520 C.ar   73  TYR73       0.0417
     73  CZ        29.5300   49.8440   71.8870 C.ar   73  TYR73       0.1957
     74  OH        28.2390   49.8220   72.3720 O.3    73  TYR73      -0.2866
     75  N         31.2780   45.6390   70.0150 N.3    75  GLN75      -0.1245
     76  CA        29.8720   45.2270   70.1090 C.3    75  GLN75       0.1566
     77  C         28.8680   46.3140   69.6390 C.2    75  GLN75       0.2260
     78  O         27.6490   46.1530   69.7790 O.2    75  GLN75      -0.2867
     79  CB        29.5710   44.7940   71.5480 C.3    75  GLN75       0.0367
     80  CG        30.5890   43.8190   72.1510 C.3    75  GLN75       0.0905
     81  CD        31.6730   44.4860   73.0020 C.2    75  GLN75       0.2608
     82  OE1       32.0540   45.6410   72.7830 O.2    75  GLN75      -0.2717
     83  NE2       32.1900   43.7410   73.9740 N.am   75  GLN75      -0.0878
     84  N         28.9530   54.3530   68.5090 N.3    78  TRP78      -0.1241
     85  CA        28.3120   55.6200   68.7390 C.3    78  TRP78       0.1605
     86  C         29.0720   56.6840   68.0130 C.2    78  TRP78       0.2264
     87  O         30.2620   56.5350   67.7000 O.2    78  TRP78      -0.2867
     88  CB        28.1560   55.9330   70.2240 C.3    78  TRP78       0.0550
     89  CG        29.4300   56.2060   70.9810 C.ar   78  TRP78       0.0003
     90  CD1       30.1770   55.3160   71.7560 C.ar   78  TRP78       0.0946
     91  CD2       30.1280   57.4910   71.1000 C.ar   78  TRP78       0.0152
     92  NE1       31.2620   55.9490   72.3110 N.ar   78  TRP78      -0.2442
     93  CE2       31.2860   57.2510   71.9670 C.ar   78  TRP78       0.0810
     94  CE3       29.9190   58.7660   70.5910 C.ar   78  TRP78       0.0012
     95  CZ2       32.1900   58.2510   72.2730 C.ar   78  TRP78       0.0191
     96  CZ3       30.8290   59.7700   70.9190 C.ar   78  TRP78       0.0001
     97  CH2       31.9380   59.5150   71.7360 C.ar   78  TRP78       0.0015
     98  N         23.5000   49.6050   68.9930 N.3   109  LYS109     -0.1231
     99  CA        23.7300   48.6350   70.0550 C.3   109  LYS109      0.1693
    100  C         24.5110   49.2120   71.2530 C.2   109  LYS109      0.2592
    101  O         25.1210   48.4620   72.0220 O.2   109  LYS109     -0.2718
    102  CB        24.3920   47.3600   69.4930 C.3   109  LYS109      0.0285
    103  CG        23.5250   46.5870   68.4880 C.3   109  LYS109      0.0035
    104  CD        24.3360   45.5150   67.7710 C.3   109  LYS109      0.0206
    105  CE        23.5740   44.9210   66.5920 C.3   109  LYS109      0.1093
    106  NZ        22.3980   44.0850   66.9700 N.3   109  LYS109     -0.1314
    107  N         24.4420   50.5350   71.4300 N.am  110  PHE110     -0.1976
    108  CA        25.1790   51.2300   72.4820 C.3   110  PHE110      0.1639
    109  C         24.2940   51.3740   73.6980 C.2   110  PHE110      0.2290
    110  O         24.6460   50.9230   74.7760 O.2   110  PHE110     -0.2864
    111  CB        25.6720   52.6100   72.0130 C.3   110  PHE110      0.0560
    112  CG        26.3410   53.4050   73.0960 C.ar  110  PHE110     -0.0200
    113  CD1       27.5990   53.0500   73.5560 C.ar  110  PHE110     -0.0042
    114  CD2       25.7020   54.4850   73.6790 C.ar  110  PHE110     -0.0042
    115  CE1       28.2070   53.7590   74.5730 C.ar  110  PHE110     -0.0003
    116  CE2       26.3050   55.2170   74.6770 C.ar  110  PHE110     -0.0003
    117  CZ        27.5570   54.8440   75.1380 C.ar  110  PHE110     -0.0000
    118  N         21.0720   50.4580   76.0010 N.3   112  ILE112     -0.1245
    119  CA        20.4110   49.2010   76.3070 C.3   112  ILE112      0.1561
    120  C         18.9250   49.4900   76.4640 C.2   112  ILE112      0.2260
    121  O         18.5390   50.3660   77.2440 O.2   112  ILE112     -0.2867
    122  CB        20.9630   48.5690   77.6040 C.3   112  ILE112      0.0252
    123  CG1       22.4500   48.2160   77.4610 C.3   112  ILE112      0.0019
    124  CG2       20.1970   47.2990   77.9500 C.3   112  ILE112      0.0019
    125  CD1       23.0990   47.7400   78.7540 C.3   112  ILE112      0.0001
    126  N         20.5720   54.2030   82.3110 N.3   117  TRP117     -0.1241
    127  CA        21.6570   55.1540   82.0540 C.3   117  TRP117      0.1605
    128  C         21.6200   55.6730   80.6450 C.2   117  TRP117      0.2264
    129  O         21.0600   55.0360   79.7610 O.2   117  TRP117     -0.2867
    130  CB        23.0270   54.5730   82.4020 C.3   117  TRP117      0.0550
    131  CG        23.3970   53.2710   81.7300 C.ar  117  TRP117      0.0003
    132  CD1       23.3350   51.9800   82.2700 C.ar  117  TRP117      0.0946
    133  CD2       23.9240   53.0940   80.3770 C.ar  117  TRP117      0.0152
    134  NE1       23.7860   51.0480   81.3610 N.ar  117  TRP117     -0.2442
    135  CE2       24.1430   51.6540   80.2010 C.ar  117  TRP117      0.0810
    136  CE3       24.2420   53.9570   79.3280 C.ar  117  TRP117      0.0012
    137  CZ2       24.6480   51.1350   79.0320 C.ar  117  TRP117      0.0191
    138  CZ3       24.7420   53.4140   78.1540 C.ar  117  TRP117      0.0001
    139  CH2       24.9390   52.0380   78.0090 C.ar  117  TRP117      0.0015
    140  N         28.1710   57.4480   79.0660 N.3   120  ILE120     -0.1245
    141  CA        29.2990   56.6200   79.4740 C.3   120  ILE120      0.1561
    142  C         30.3950   57.5410   79.9950 C.2   120  ILE120      0.2260
    143  O         30.6330   58.6050   79.4350 O.2   120  ILE120     -0.2867
    144  CB        29.7900   55.7470   78.2920 C.3   120  ILE120      0.0252
    145  CG1       30.8530   54.7450   78.7470 C.3   120  ILE120      0.0019
    146  CG2       30.2720   56.6140   77.1300 C.3   120  ILE120      0.0019
    147  CD1       31.0560   53.5840   77.7890 C.3   120  ILE120      0.0001
    148  N         38.8500   58.8510   71.7770 N.3   130  ARG130     -0.1197
    149  CA        38.5240   59.2360   70.4010 C.3   130  ARG130      0.1779
    150  C         38.2040   60.7240   70.3810 C.2   130  ARG130      0.2305
    151  O         37.5610   61.2320   71.3070 O.2   130  ARG130     -0.2863
    152  CB        37.2950   58.5140   69.8240 C.2   130  ARG130     -0.0007
    153  CG        37.2080   56.9870   69.8240 C.2   130  ARG130      0.0176
    154  CD        38.3830   56.1750   70.3220 C.3   130  ARG130      0.2464
    155  NE        38.2190   54.7820   69.8960 N.pl3 130  ARG130     -0.0815
    156  CZ        38.8000   53.7260   70.4550 C.cat 130  ARG130      0.5349
    157  NH1       39.5910   53.8560   71.5160 N.pl3 130  ARG130      0.1354
    158  NH2       38.5730   52.5160   69.9530 N.pl3 130  ARG130      0.1354
    159  N         44.6080   51.6660   78.3890 N.3   192  TYR192     -0.1241
    160  CA        43.7450   50.8940   79.3080 C.3   192  TYR192      0.1605
    161  C         44.4420   50.8530   80.6700 C.2   192  TYR192      0.2264
    162  O         45.6130   51.2690   80.8010 O.2   192  TYR192     -0.2867
    163  CB        43.5050   49.4570   78.8300 C.3   192  TYR192      0.0534
    164  CG        42.8490   49.3690   77.4750 C.ar  192  TYR192     -0.0201
    165  CD1       41.4650   49.4390   77.3490 C.ar  192  TYR192     -0.0009
    166  CD2       43.6110   49.2560   76.3200 C.ar  192  TYR192     -0.0009
    167  CE1       40.8630   49.3810   76.1100 C.ar  192  TYR192      0.0417
    168  CE2       43.0160   49.2040   75.0760 C.ar  192  TYR192      0.0417
    169  CZ        41.6460   49.2680   74.9800 C.ar  192  TYR192      0.1957
    170  OH        41.0520   49.2190   73.7460 O.3   192  TYR192     -0.2866
    171  N         38.5080   46.2070   83.9310 N.3   222  ASP222     -0.1225
    172  CA        37.4280   46.7930   83.1340 C.3   222  ASP222      0.1805
    173  C         36.0480   46.7330   83.8020 C.2   222  ASP222      0.2598
    174  O         35.3680   45.7250   83.7500 O.2   222  ASP222     -0.2718
    175  CB        37.3870   46.1160   81.7550 C.3   222  ASP222      0.1424
    176  CG        36.4380   46.8050   80.8080 C.2   222  ASP222      0.3668
    177  OD1       35.9120   47.8710   81.1860 O.co2 222  ASP222     -0.2456
    178  OD2       36.2100   46.2890   79.6950 O.co2 222  ASP222     -0.2456
    179  N         35.6280   47.8380   84.4120 N.am  223  SER223     -0.1938
    180  CA        34.3160   47.9090   85.0390 C.3   223  SER223      0.2055
    181  C         33.1830   47.8860   84.0120 C.2   223  SER223      0.2644
    182  O         32.0160   47.7290   84.3780 O.2   223  SER223     -0.2714
    183  CB        34.2030   49.1730   85.8960 C.3   223  SER223      0.2130
    184  OG        34.2070   50.3520   85.0910 O.3   223  SER223     -0.2179
    185  N         33.5270   48.0760   82.7380 N.am  224  GLY224     -0.1939
    186  CA        32.5390   48.0640   81.6480 C.3   224  GLY224      0.2014
    187  C         32.3810   46.7150   80.9650 C.2   224  GLY224      0.2640
    188  O         31.8050   46.6410   79.8720 O.2   224  GLY224     -0.2714
    189  N         32.9060   45.6580   81.5930 N.am  225  THR225     -0.1936
    190  CA        32.7500   44.2910   81.1140 C.3   225  THR225      0.2028
    191  C         32.1770   43.4340   82.2370 C.2   225  THR225      0.2642
    192  O         32.5770   43.5710   83.3970 O.2   225  THR225     -0.2714
    193  CB        34.0800   43.7000   80.6500 C.3   225  THR225      0.1808
    194  OG1       34.4940   44.3670   79.4570 O.3   225  THR225     -0.2208
    195  CG2       33.9700   42.1720   80.3900 C.3   225  THR225      0.0379
    196  N         31.2360   42.5560   81.8990 N.am  226  THR226     -0.1950
    197  CA        30.6300   41.6860   82.9010 C.3   226  THR226      0.1897
    198  C         31.4890   40.4670   83.2580 C.2   226  THR226      0.2313
    199  O         31.7330   40.1930   84.4380 O.2   226  THR226     -0.2863
    200  CB        29.2430   41.2040   82.4590 C.3   226  THR226      0.1794
    201  OG1       28.4160   42.3510   82.2720 O.3   226  THR226     -0.2208
    202  CG2       28.6290   40.2930   83.5400 C.3   226  THR226      0.0378
    203  N         33.3850   42.3560   85.8670 N.3   323  ALA323     -0.1245
    204  CA        32.6800   42.3140   87.1390 C.3   323  ALA323      0.1562
    205  C         32.9280   41.0020   87.8810 C.2   323  ALA323      0.2260
    206  O         32.9860   40.9830   89.1120 O.2   323  ALA323     -0.2867
    207  CB        31.1850   42.5250   86.9260 C.3   323  ALA323      0.0290
@<TRIPOS>BOND
     1   105   106    1
     2   105   104    1
     3    56    57    1
     4    58    57    1
     5    58    59    2
     6    87    86    2
     7    57    60    1
     8   104   103    1
     9    66    65    2
    10    63    64    1
    11    86    85    1
    12   103   102    1
    13    84    85    1
    14    85    88    1
    15    65    64    1
    16    64    67    1
    17    98    99    1
    18    60    62    1
    19    60    61    1
    20   102    99    1
    21    77    78    2
    22    77    76    1
    23   153   152    2
    24   153   154    1
    25   152   149    1
    26   155   154    1
    27   155   156    2
    28   158   156    1
    29    75    76    1
    30    99   100    1
    31    76    79    1
    32    88    89    1
    33   150   149    1
    34   150   151    2
    35   149   148    1
    36    67    68    1
    37   156   157    1
    38    69    68   ar
    39    69    71   ar
    40    94    96   ar
    41    94    91   ar
    42    68    70   ar
    43    96    97   ar
    44    89    91   ar
    45    89    90   ar
    46    71    73   ar
    47    91    93   ar
    48   100   107   am
    49   100   101    2
    50   107   108    1
    51    79    80    1
    52    97    95   ar
    53    90    92   ar
    54    70    72   ar
    55    73    72   ar
    56    73    74    1
    57    93    95   ar
    58    93    92   ar
    59   111   108    1
    60   111   112    1
    61    80    81    1
    62   108   109    1
    63    82    81    2
    64    81    83   am
    65   112   113   ar
    66   112   114   ar
    67   113   115   ar
    68   114   116   ar
    69   109   110    2
    70   170   169    1
    71   115   117   ar
    72   116   117   ar
    73   169   168   ar
    74   169   167   ar
    75   168   166   ar
    76   118   119    1
    77   167   165   ar
    78   119   120    1
    79   119   122    1
    80   166   164   ar
    81   120   121    2
    82    54    51    1
    83    54    55    1
    84   146   144    1
    85   165   164   ar
    86   123   122    1
    87   123   125    1
    88   164   163    1
    89    49    48    2
    90   122   124    1
    91    51    52    1
    92    51    50    1
    93   147   145    1
    94   139   138   ar
    95   139   137   ar
    96   138   136   ar
    97   144   145    1
    98   144   141    1
    99    52    53    2
   100   159   160    1
   101    48    50   am
   102    48    47    1
   103   163   160    1
   104    45    43   ar
   105   137   135   ar
   106   140   141    1
   107   160   161    1
   108   136   133   ar
   109   143   142    2
   110   194   193    1
   111   141   142    1
   112   178   176   ar
   113   129   128    2
   114    47    46    1
   115   188   187    2
   116    43    44   ar
   117    43    42    1
   118    37    35    1
   119   135   133   ar
   120   135   134   ar
   121   133   131   ar
   122   195   193    1
   123   128   127    1
   124   193   190    1
   125   161   162    2
   126   176   177   ar
   127   176   175    1
   128   187   189   am
   129   187   186    1
   130    42    39    1
   131   190   189    1
   132   190   191    1
   133    12    11    2
   134   134   132   ar
   135     4     3    2
   136    35    34    1
   137    35    36    1
   138   186   185    1
   139    34    31    1
   140   131   132   ar
   141   131   130    1
   142   175   172    1
   143    10    11    1
   144    10     9    1
   145    41    40    2
   146    11    13   am
   147   196   191   am
   148   196   197    1
   149   127   126    1
   150   127   130    1
   151   191   192    2
   152   201   200    1
   153     6     9    1
   154     6     7    1
   155     6     5    1
   156    39    40    1
   157    39    38    1
   158   200   197    1
   159   200   202    1
   160     8     7    2
   161     3     5   am
   162     3     2    1
   163    33    32    2
   164   185   181   am
   165    30    31    1
   166     7    14   am
   167   197   198    1
   168    31    32    1
   169   172   173    1
   170   172   171    1
   171   198   199    2
   172     2     1    1
   173    14    15    1
   174   174   173    2
   175   173   179   am
   176   181   182    2
   177   181   180    1
   178    15    16    1
   179   179   180    1
   180   180   183    1
   181   184   183    1
   182    16    17    2
   183    16    18   am
   184    21    20    2
   185    18    19    1
   186   203   204    1
   187    20    19    1
   188   207   204    1
   189    19    22    1
   190   204   205    1
   191   205   206    2
   192    22    23    1
   193    24    23   ar
   194    24    26   ar
   195    23    25   ar
   196    26    28   ar
   197    25    27   ar
   198    28    27   ar
   199    28    29    1
