@<TRIPOS>MOLECULE
tmp/4frrJ01.pdb
 103 103 0 0 0
SMALL
GASTEIGER

@<TRIPOS>ATOM
      1  N        143.4060   84.2380   32.6150 N.3    31  LYS31      -0.1245
      2  CA       144.5240   84.3700   33.5570 C.3    31  LYS31       0.1561
      3  C        145.5380   83.2440   33.4000 C.2    31  LYS31       0.2260
      4  O        146.7470   83.4690   33.5310 O.2    31  LYS31      -0.2867
      5  CB       144.0560   84.4040   35.0260 C.3    31  LYS31       0.0271
      6  CG       143.4840   85.7340   35.5030 C.3    31  LYS31       0.0035
      7  CD       143.2000   85.7180   37.0100 C.3    31  LYS31       0.0206
      8  CE       142.0040   86.5890   37.4000 C.3    31  LYS31       0.1093
      9  NZ       142.0800   87.9590   36.8140 N.3    31  LYS31      -0.1314
     10  N        139.3540  104.6840   24.1770 N.3    99  TYR99      -0.1241
     11  CA       138.6270  104.9840   25.4110 C.3    99  TYR99       0.1605
     12  C        137.8510  106.2700   25.3860 C.2    99  TYR99       0.2264
     13  O        137.0000  106.4450   26.2090 O.2    99  TYR99      -0.2867
     14  CB       139.5280  104.9150   26.6570 C.3    99  TYR99       0.0534
     15  CG       139.5580  103.5090   27.2270 C.ar   99  TYR99      -0.0201
     16  CD1      140.0660  102.4220   26.4620 C.ar   99  TYR99      -0.0009
     17  CD2      139.0610  103.2410   28.5080 C.ar   99  TYR99      -0.0009
     18  CE1      140.0850  101.1350   26.9720 C.ar   99  TYR99       0.0417
     19  CE2      139.1120  101.9480   29.0420 C.ar   99  TYR99       0.0417
     20  CZ       139.6070  100.8990   28.2780 C.ar   99  TYR99       0.1957
     21  OH       139.6110   99.6110   28.8080 O.3    99  TYR99      -0.2866
     22  N        138.8200   96.2050   26.0730 N.3   153  TRP153     -0.1227
     23  CA       137.7000   96.6480   26.9240 C.3   153  TRP153      0.1737
     24  C        137.4070   95.6930   28.0670 C.2   153  TRP153      0.2595
     25  O        137.0690   96.1110   29.1580 O.2   153  TRP153     -0.2718
     26  CB       136.4600   96.8160   26.0450 C.3   153  TRP153      0.0564
     27  CG       135.3480   97.5900   26.7020 C.ar  153  TRP153      0.0003
     28  CD1      134.1280   97.1030   27.1710 C.ar  153  TRP153      0.0946
     29  CD2      135.3400   99.0250   27.0180 C.ar  153  TRP153      0.0152
     30  NE1      133.3660   98.1310   27.7160 N.ar  153  TRP153     -0.2442
     31  CE2      134.0490   99.3000   27.6650 C.ar  153  TRP153      0.0810
     32  CE3      136.2300  100.0730   26.8080 C.ar  153  TRP153      0.0012
     33  CZ2      133.6990  100.5640   28.0860 C.ar  153  TRP153      0.0191
     34  CZ3      135.8490  101.3510   27.2140 C.ar  153  TRP153      0.0001
     35  CH2      134.6190  101.5850   27.8490 C.ar  153  TRP153      0.0015
     36  N        137.4480   94.3880   27.8130 N.am  154  VAL154     -0.1980
     37  CA       137.0260   93.4220   28.8110 C.3   154  VAL154      0.1595
     38  C        138.1440   92.5680   29.3870 C.2   154  VAL154      0.2287
     39  O        137.8740   91.7300   30.2410 O.2   154  VAL154     -0.2864
     40  CB       135.9200   92.4760   28.3020 C.3   154  VAL154      0.0276
     41  CG1      134.7160   93.3150   27.9230 C.3   154  VAL154      0.0022
     42  CG2      136.4040   91.6490   27.1130 C.3   154  VAL154      0.0022
     43  N        145.1850   89.2350   31.6020 N.3   159  GLU159     -0.1245
     44  CA       144.7400   88.4630   30.4710 C.3   159  GLU159      0.1567
     45  C        145.2840   88.9840   29.1410 C.2   159  GLU159      0.2260
     46  O        145.6600   88.2030   28.2800 O.2   159  GLU159     -0.2867
     47  CB       143.2340   88.3840   30.4600 C.3   159  GLU159      0.0388
     48  CG       142.6890   87.6540   31.6820 C.3   159  GLU159      0.1160
     49  CD       141.5770   88.4110   32.3390 C.2   159  GLU159      0.3649
     50  OE1      141.4550   89.6280   32.1030 O.co2 159  GLU159     -0.2457
     51  OE2      140.8280   87.7800   33.0980 O.co2 159  GLU159     -0.2457
     52  N        140.0900  101.0710   37.0050 N.3   194  TYR194     -0.1241
     53  CA       138.8070  101.7270   36.7590 C.3   194  TYR194      0.1605
     54  C        137.9810  101.2540   37.9200 C.2   194  TYR194      0.2264
     55  O        138.3260  100.2300   38.4930 O.2   194  TYR194     -0.2867
     56  CB       138.2230  101.2640   35.4200 C.3   194  TYR194      0.0534
     57  CG       139.0810  101.7090   34.2820 C.ar  194  TYR194     -0.0201
     58  CD1      139.9930  100.8500   33.7070 C.ar  194  TYR194     -0.0009
     59  CD2      138.9890  103.0190   33.7960 C.ar  194  TYR194     -0.0009
     60  CE1      140.8110  101.2720   32.6670 C.ar  194  TYR194      0.0417
     61  CE2      139.7900  103.4570   32.7670 C.ar  194  TYR194      0.0417
     62  CZ       140.7000  102.5860   32.2080 C.ar  194  TYR194      0.1957
     63  OH       141.4920  103.0420   31.1780 O.3   194  TYR194     -0.2866
     64  N        135.1140   99.8600   38.2790 N.3   196  CYS196     -0.1221
     65  CA       134.3370   98.6220   38.1250 C.3   196  CYS196      0.1808
     66  C        135.0330   97.4240   38.7160 C.2   196  CYS196      0.2601
     67  O        134.3990   96.4560   39.1340 O.2   196  CYS196     -0.2717
     68  CB       134.0800   98.3040   36.6500 C.3   196  CYS196      0.0970
     69  SG       135.5720   98.0400   35.6540 S.3   196  CYS196     -0.0800
     70  N        136.3540   97.4880   38.7200 N.am  197  CYS197     -0.1956
     71  CA       137.1370   96.2750   38.6550 C.3   197  CYS197      0.1828
     72  C        138.4050   96.4250   39.4970 C.2   197  CYS197      0.2467
     73  O        139.0340   97.4760   39.4700 O.2   197  CYS197     -0.2730
     74  CB       137.5090   96.0060   37.1610 C.3   197  CYS197      0.0996
     75  SG       136.1450   96.0680   35.9450 S.3   197  CYS197     -0.0798
     76  N        138.8080   95.3590   40.1860 N.am  198  PRO198     -0.2715
     77  CA       140.0820   95.3630   40.9100 C.3   198  PRO198      0.1536
     78  C        141.3490   95.2980   40.0100 C.2   198  PRO198      0.2598
     79  O        142.3780   95.8850   40.3570 O.2   198  PRO198     -0.2715
     80  CB       139.9800   94.1340   41.8360 C.3   198  PRO198      0.0310
     81  CG       138.9390   93.2590   41.2290 C.3   198  PRO198      0.0237
     82  CD       138.1030   94.0640   40.2680 C.3   198  PRO198      0.0939
     83  N        141.2800   94.6290   38.8670 N.am  199  GLU199     -0.1978
     84  CA       142.4870   94.3770   38.0770 C.3   199  GLU199      0.1602
     85  C        142.9620   95.6350   37.3150 C.2   199  GLU199      0.2287
     86  O        142.1640   96.4110   36.8200 O.2   199  GLU199     -0.2864
     87  CB       142.2750   93.1850   37.1260 C.3   199  GLU199      0.0415
     88  CG       142.1040   91.8070   37.7760 C.3   199  GLU199      0.1163
     89  CD       140.6510   91.4340   38.1240 C.2   199  GLU199      0.3649
     90  OE1      140.4450   90.2780   38.5940 O.co2 199  GLU199     -0.2457
     91  OE2      139.6960   92.2610   37.9530 O.co2 199  GLU199     -0.2457
     92  N        144.3280   97.6620   34.0490 N.3   201  TYR201     -0.1241
     93  CA       144.0870   97.5280   32.5840 C.3   201  TYR201      0.1605
     94  C        145.2400   98.1450   31.8130 C.2   201  TYR201      0.2264
     95  O        145.7800   99.1570   32.2530 O.2   201  TYR201     -0.2867
     96  CB       142.7060   98.1140   32.1680 C.3   201  TYR201      0.0534
     97  CG       141.5780   97.1160   32.4700 C.ar  201  TYR201     -0.0201
     98  CD1      140.9600   96.3810   31.4510 C.ar  201  TYR201     -0.0009
     99  CD2      141.1810   96.8600   33.7890 C.ar  201  TYR201     -0.0009
    100  CE1      139.9770   95.4340   31.7330 C.ar  201  TYR201      0.0417
    101  CE2      140.2100   95.9130   34.0790 C.ar  201  TYR201      0.0417
    102  CZ       139.6130   95.2140   33.0370 C.ar  201  TYR201      0.1957
    103  OH       138.6710   94.2820   33.3420 O.3   201  TYR201     -0.2866
@<TRIPOS>BOND
     1    10    11    1
     2    12    11    1
     3    12    13    2
     4    11    14    1
     5    26    27    1
     6    26    23    1
     7    22    23    1
     8    16    18   ar
     9    16    15   ar
    10    14    15    1
    11    27    29   ar
    12    27    28   ar
    13    32    29   ar
    14    32    34   ar
    15    23    24    1
    16    18    20   ar
    17    29    31   ar
    18    42    40    1
    19    28    30   ar
    20    34    35   ar
    21    15    17   ar
    22    31    30   ar
    23    31    33   ar
    24    36    24   am
    25    36    37    1
    26    35    33   ar
    27    41    40    1
    28    24    25    2
    29    20    21    1
    30    20    19   ar
    31    46    45    2
    32    40    37    1
    33    17    19   ar
    34    37    38    1
    35    45    44    1
    36    38    39    2
    37    47    44    1
    38    47    48    1
    39    44    43    1
    40    63    62    1
    41    98   100   ar
    42    98    97   ar
    43    48    49    1
    44   100   102   ar
    45    94    95    2
    46    94    93    1
    47    50    49   ar
    48    96    97    1
    49    96    93    1
    50    62    60   ar
    51    62    61   ar
    52    49    51   ar
    53    97    99   ar
    54    93    92    1
    55     1     2    1
    56    60    58   ar
    57    61    59   ar
    58   102   103    1
    59   102   101   ar
    60     3     4    2
    61     3     2    1
    62     2     5    1
    63    58    57   ar
    64    99   101   ar
    65    59    57   ar
    66    57    56    1
    67     5     6    1
    68    56    53    1
    69     6     7    1
    70    69    75    1
    71    69    68    1
    72    75    74    1
    73    68    65    1
    74    53    52    1
    75    53    54    1
    76     9     8    1
    77    86    85    2
    78     7     8    1
    79    87    88    1
    80    87    84    1
    81    74    71    1
    82    85    84    1
    83    88    89    1
    84    54    55    2
    85    91    89   ar
    86    84    83    1
    87    89    90   ar
    88    65    64    1
    89    65    66    1
    90    71    70    1
    91    71    72    1
    92    66    70   am
    93    66    67    2
    94    83    78   am
    95    73    72    2
    96    72    76   am
    97    78    79    2
    98    78    77    1
    99    76    82    1
   100    76    77    1
   101    82    81    1
   102    77    80    1
   103    81    80    1
