@<TRIPOS>MOLECULE
tmp/4frsA00.pdb
 205 199 0 0 0
SMALL
GASTEIGER

@<TRIPOS>ATOM
      1  N         35.9790    8.0300   23.3440 N.3    14  SER14      -0.1202
      2  CA        34.9370    8.7870   24.0560 C.3    14  SER14       0.2020
      3  C         34.3350    9.9820   23.3160 C.2    14  SER14       0.2619
      4  O         33.1310   10.1920   23.3960 O.2    14  SER14      -0.2717
      5  CB        35.4010    9.1780   25.4560 C.3    14  SER14       0.2103
      6  OG        36.5180   10.0330   25.3310 O.3    14  SER14      -0.2182
      7  N         35.1660   10.7290   22.5930 N.am   15  GLY15      -0.1942
      8  CA        34.7150   11.9200   21.8790 C.3    15  GLY15       0.2014
      9  C         33.8060   11.6560   20.6870 C.2    15  GLY15       0.2639
     10  O         32.9760   12.5030   20.3590 O.2    15  GLY15      -0.2714
     11  N         33.9780   10.4980   20.0140 N.am   16  GLN16      -0.1963
     12  CA        33.2520   10.1760   18.7760 C.3    16  GLN16       0.1733
     13  C         32.2150    9.0620   18.9370 C.2    16  GLN16       0.2617
     14  O         31.3920    8.8480   18.0460 O.2    16  GLN16      -0.2715
     15  CB        34.2530    9.7520   17.6800 C.3    16  GLN16       0.0408
     16  CG        35.2250   10.8200   17.1760 C.3    16  GLN16       0.0908
     17  CD        36.0630   10.2620   16.0360 C.2    16  GLN16       0.2608
     18  OE1       36.5880    9.1340   16.0790 O.2    16  GLN16      -0.2717
     19  NE2       36.1760   11.0260   14.9700 N.am   16  GLN16      -0.0878
     20  N         32.2840    8.3500   20.0520 N.am   17  GLY17      -0.1940
     21  CA        31.4020    7.2300   20.3210 C.3    17  GLY17       0.2014
     22  C         32.0500    5.8970   20.0170 C.2    17  GLY17       0.2638
     23  O         33.0180    5.8190   19.2410 O.2    17  GLY17      -0.2714
     24  N         31.5040    4.8440   20.6380 N.am   18  TYR18      -0.1973
     25  CA        31.9810    3.4670   20.4640 C.3    18  TYR18       0.1639
     26  C         30.9270    2.7490   19.6330 C.2    18  TYR18       0.2290
     27  O         29.7230    2.8960   19.9090 O.2    18  TYR18      -0.2864
     28  CB        32.1230    2.7830   21.8230 C.3    18  TYR18       0.0560
     29  CG        33.3430    3.2650   22.5760 C.ar   18  TYR18      -0.0198
     30  CD1       33.2540    4.3110   23.4920 C.ar   18  TYR18      -0.0009
     31  CD2       34.5890    2.6820   22.3650 C.ar   18  TYR18      -0.0009
     32  CE1       34.3830    4.7590   24.1900 C.ar   18  TYR18       0.0417
     33  CE2       35.7290    3.1490   23.0240 C.ar   18  TYR18       0.0417
     34  CZ        35.6200    4.1750   23.9470 C.ar   18  TYR18       0.1957
     35  OH        36.7610    4.5810   24.6220 O.3    18  TYR18      -0.2866
     36  N         26.6300    2.9750   16.4620 N.3    34  LEU34      -0.1245
     37  CA        26.9360    3.5460   17.7910 C.3    34  LEU34       0.1561
     38  C         26.1960    2.7710   18.8940 C.2    34  LEU34       0.2260
     39  O         24.9860    2.5480   18.7690 O.2    34  LEU34      -0.2867
     40  CB        26.5210    5.0290   17.8130 C.3    34  LEU34       0.0270
     41  CG        26.8070    5.7660   19.1390 C.3    34  LEU34       0.0019
     42  CD1       28.3000    6.0990   19.2620 C.3    34  LEU34       0.0001
     43  CD2       26.0120    7.0360   19.2410 C.3    34  LEU34       0.0001
     44  N         24.5020    2.8400   22.2250 N.3    36  ASP36      -0.1239
     45  CA        23.9030    3.9090   23.0090 C.3    36  ASP36       0.1674
     46  C         22.9460    3.4280   24.0730 C.2    36  ASP36       0.2266
     47  O         21.7640    3.1950   23.7980 O.2    36  ASP36      -0.2867
     48  CB        23.1880    4.8910   22.0570 C.3    36  ASP36       0.1410
     49  CG        22.6710    6.1440   22.7370 C.2    36  ASP36       0.3668
     50  OD1       23.1060    6.4220   23.8960 O.co2  36  ASP36      -0.2456
     51  OD2       21.8890    6.8950   22.0860 O.co2  36  ASP36      -0.2456
     52  N         21.7350    5.3040   26.2070 N.3    38  GLY38      -0.1210
     53  CA        20.9300    6.4770   26.5580 C.3    38  GLY38       0.1956
     54  C         19.7240    6.7460   25.6670 C.2    38  GLY38       0.2612
     55  O         19.1130    7.8230   25.7350 O.2    38  GLY38      -0.2717
     56  N         19.4060    5.7980   24.7700 N.am   39  SER39      -0.1952
     57  CA        18.2460    5.9200   23.8690 C.3    39  SER39       0.1924
     58  C         17.7310    4.5310   23.5460 C.2    39  SER39       0.2314
     59  O         18.3790    3.5420   23.9170 O.2    39  SER39      -0.2863
     60  CB        18.5940    6.6980   22.6030 C.3    39  SER39       0.2116
     61  OG        19.4550    5.9640   21.7510 O.3    39  SER39      -0.2180
     62  N         16.7620   16.3750   19.2020 N.3    75  TYR75      -0.1227
     63  CA        17.5820   16.3900   20.4070 C.3    75  TYR75       0.1736
     64  C         18.2950   17.7430   20.4550 C.2    75  TYR75       0.2596
     65  O         18.0830   18.5790   19.5690 O.2    75  TYR75      -0.2718
     66  CB        18.6330   15.2700   20.3700 C.3    75  TYR75       0.0548
     67  CG        18.1040   13.8630   20.4880 C.ar   75  TYR75      -0.0200
     68  CD1       17.6350   13.3760   21.7030 C.ar   75  TYR75      -0.0009
     69  CD2       18.1620   12.9860   19.4090 C.ar   75  TYR75      -0.0009
     70  CE1       17.1970   12.0640   21.8310 C.ar   75  TYR75       0.0417
     71  CE2       17.7340   11.6730   19.5240 C.ar   75  TYR75       0.0417
     72  CZ        17.2580   11.2140   20.7410 C.ar   75  TYR75       0.1957
     73  OH        16.8330    9.9180   20.8610 O.3    75  TYR75      -0.2866
     74  N         19.1350   17.9570   21.4860 N.am   76  THR76      -0.1939
     75  CA        19.9980   19.1360   21.6080 C.3    76  THR76       0.2028
     76  C         21.2830   18.7590   20.8500 C.2    76  THR76       0.2642
     77  O         21.8860   19.6030   20.1720 O.2    76  THR76      -0.2714
     78  CB        20.1030   19.6000   23.0740 C.3    76  THR76       0.1808
     79  OG1       19.0780   20.5750   23.2950 O.3    76  THR76      -0.2208
     80  CG2       21.4600   20.2090   23.4160 C.3    76  THR76       0.0379
     81  N         21.6290   17.4460   20.8870 N.am   77  GLN77      -0.1963
     82  CA        22.6730   16.8430   20.0630 C.3    77  GLN77       0.1733
     83  C         22.0080   16.8430   18.6320 C.2    77  GLN77       0.2616
     84  O         21.3240   17.8090   18.2800 O.2    77  GLN77      -0.2715
     85  CB        23.0340   15.4210   20.5750 C.3    77  GLN77       0.0408
     86  CG        23.8650   15.3940   21.8720 C.3    77  GLN77       0.0908
     87  CD        25.1240   14.5490   21.7960 C.2    77  GLN77       0.2608
     88  OE1       25.3850   13.6880   22.6570 O.2    77  GLN77      -0.2717
     89  NE2       25.9820   14.8230   20.8150 N.am   77  GLN77      -0.0878
     90  N         22.1530   15.7950   17.8420 N.am   78  GLY78      -0.1955
     91  CA        21.5420   15.8030   16.5170 C.3    78  GLY78       0.1869
     92  C         20.0510   15.5250   16.4510 C.2    78  GLY78       0.2309
     93  O         19.5060   14.8320   17.3080 O.2    78  GLY78      -0.2863
     94  N         16.9790   13.9530   13.9210 N.3    80  TRP80      -0.1241
     95  CA        16.8200   13.0530   12.7880 C.3    80  TRP80       0.1605
     96  C         15.3730   12.7310   12.5150 C.2    80  TRP80       0.2264
     97  O         14.5500   12.6960   13.4220 O.2    80  TRP80      -0.2867
     98  CB        17.6930   11.7760   12.8680 C.3    80  TRP80       0.0550
     99  CG        17.4030   10.8360   14.0040 C.ar   80  TRP80       0.0003
    100  CD1       18.1340   10.6960   15.1440 C.ar   80  TRP80       0.0946
    101  CD2       16.3890    9.8190   14.0520 C.ar   80  TRP80       0.0152
    102  NE1       17.5980    9.7050   15.9350 N.ar   80  TRP80      -0.2442
    103  CE2       16.5170    9.1580   15.2950 C.ar   80  TRP80       0.0810
    104  CE3       15.3670    9.4150   13.1730 C.ar   80  TRP80       0.0012
    105  CZ2       15.6730    8.1110   15.6810 C.ar   80  TRP80       0.0191
    106  CZ3       14.5160    8.3920   13.5650 C.ar   80  TRP80       0.0001
    107  CH2       14.6790    7.7420   14.7990 C.ar   80  TRP80       0.0015
    108  N         23.0120   17.8670   12.3570 N.3   111  LYS111     -0.1231
    109  CA        24.0730   17.6910   13.3630 C.3   111  LYS111      0.1693
    110  C         24.0290   16.3020   14.0420 C.2   111  LYS111      0.2592
    111  O         24.4280   16.1690   15.2060 O.2   111  LYS111     -0.2718
    112  CB        24.0490   18.8200   14.4240 C.3   111  LYS111      0.0285
    113  CG        24.3410   20.2260   13.9110 C.3   111  LYS111      0.0035
    114  CD        23.9430   21.2380   14.9830 C.3   111  LYS111      0.0206
    115  CE        24.5870   22.5890   14.8090 C.3   111  LYS111      0.1093
    116  NZ        24.2640   23.4940   15.9460 N.3   111  LYS111     -0.1314
    117  N         23.5050   15.2750   13.3320 N.am  112  PHE112     -0.1976
    118  CA        23.4180   13.9230   13.8840 C.3   112  PHE112      0.1639
    119  C         24.6810   13.1350   13.5250 C.2   112  PHE112      0.2290
    120  O         25.4250   12.7260   14.4290 O.2   112  PHE112     -0.2864
    121  CB        22.1170   13.2180   13.4400 C.3   112  PHE112      0.0560
    122  CG        21.9440   11.8350   14.0260 C.ar  112  PHE112     -0.0200
    123  CD1       21.5600   11.6670   15.3520 C.ar  112  PHE112     -0.0042
    124  CD2       22.1470   10.7030   13.2460 C.ar  112  PHE112     -0.0042
    125  CE1       21.3930   10.3880   15.8900 C.ar  112  PHE112     -0.0003
    126  CE2       21.9860    9.4210   13.7840 C.ar  112  PHE112     -0.0003
    127  CZ        21.5870    9.2720   15.0950 C.ar  112  PHE112     -0.0000
    128  N         28.3870   12.7200   12.4580 N.3   114  ILE114     -0.1245
    129  CA        29.6130   13.4760   12.7260 C.3   114  ILE114      0.1561
    130  C         30.7150   13.0590   11.7500 C.2   114  ILE114      0.2260
    131  O         30.9230   11.8630   11.5210 O.2   114  ILE114     -0.2867
    132  CB        30.0390   13.2910   14.2170 C.3   114  ILE114      0.0252
    133  CG1       28.8870   13.6050   15.2330 C.3   114  ILE114      0.0019
    134  CG2       31.3500   14.0290   14.5690 C.3   114  ILE114      0.0019
    135  CD1       28.3300   15.1000   15.2850 C.3   114  ILE114      0.0001
    136  N         30.6330    5.7160   12.1340 N.3   119  TRP119     -0.1241
    137  CA        29.3550    5.0400   12.3620 C.3   119  TRP119      0.1605
    138  C         28.2410    5.6390   11.5030 C.2   119  TRP119      0.2264
    139  O         28.2610    6.8410   11.1610 O.2   119  TRP119     -0.2867
    140  CB        28.9680    4.8820   13.8410 C.3   119  TRP119      0.0550
    141  CG        29.0260    6.1280   14.6600 C.ar  119  TRP119      0.0003
    142  CD1       30.0330    6.4960   15.5070 C.ar  119  TRP119      0.0946
    143  CD2       27.9970    7.1150   14.8000 C.ar  119  TRP119      0.0152
    144  NE1       29.7120    7.6730   16.1380 N.ar  119  TRP119     -0.2442
    145  CE2       28.4680    8.0820   15.7200 C.ar  119  TRP119      0.0810
    146  CE3       26.7000    7.2690   14.2570 C.ar  119  TRP119      0.0012
    147  CZ2       27.6870    9.1850   16.1180 C.ar  119  TRP119      0.0191
    148  CZ3       25.9320    8.3630   14.6460 C.ar  119  TRP119      0.0001
    149  CH2       26.4400    9.3250   15.5380 C.ar  119  TRP119      0.0015
    150  N         22.6490    4.2630   14.9950 N.3   122  ILE122     -0.1245
    151  CA        22.6720    4.1850   16.4520 C.3   122  ILE122      0.1561
    152  C         21.8460    3.0040   16.9270 C.2   122  ILE122      0.2260
    153  O         20.7180    2.7960   16.4560 O.2   122  ILE122     -0.2867
    154  CB        22.2200    5.5310   17.1100 C.3   122  ILE122      0.0252
    155  CG1       23.2210    6.6580   16.8210 C.3   122  ILE122      0.0019
    156  CG2       22.0550    5.4020   18.6300 C.3   122  ILE122      0.0019
    157  CD1       23.0140    7.9610   17.7080 C.3   122  ILE122      0.0001
    158  N         25.0330    6.2160   30.5760 N.3   232  ASP232     -0.1225
    159  CA        24.8410    6.5100   29.1570 C.3   232  ASP232      0.1805
    160  C         26.1250    6.3790   28.3210 C.2   232  ASP232      0.2598
    161  O         26.9440    7.3070   28.2690 O.2   232  ASP232     -0.2718
    162  CB        24.2600    7.9310   29.0030 C.3   232  ASP232      0.1424
    163  CG        23.8830    8.2980   27.5610 C.2   232  ASP232      0.3668
    164  OD1       23.9310    7.3910   26.6760 O.co2 232  ASP232     -0.2456
    165  OD2       23.5540    9.5040   27.3080 O.co2 232  ASP232     -0.2456
    166  N         26.2570    5.2550   27.5760 N.am  233  SER233     -0.1938
    167  CA        27.4190    5.0540   26.6960 C.3   233  SER233      0.2055
    168  C         27.4410    6.0780   25.5180 C.2   233  SER233      0.2644
    169  O         28.4610    6.1840   24.8380 O.2   233  SER233     -0.2714
    170  CB        27.4470    3.6280   26.1460 C.3   233  SER233      0.2130
    171  OG        26.2850    3.4020   25.3550 O.3   233  SER233     -0.2179
    172  N         26.3040    6.7600   25.2730 N.am  234  GLY234     -0.1939
    173  CA        26.1400    7.7620   24.2240 C.3   234  GLY234      0.2014
    174  C         26.4780    9.1910   24.6290 C.2   234  GLY234      0.2640
    175  O         26.2140   10.1230   23.8680 O.2   234  GLY234     -0.2714
    176  N         27.0040    9.3830   25.8590 N.am  235  THR235     -0.1936
    177  CA        27.4750   10.6910   26.3470 C.3   235  THR235      0.2028
    178  C         28.9740   10.5590   26.5890 C.2   235  THR235      0.2642
    179  O         29.4290    9.5800   27.1890 O.2   235  THR235     -0.2714
    180  CB        26.7350   11.1120   27.6150 C.3   235  THR235      0.1808
    181  OG1       25.3760   11.4210   27.2870 O.3   235  THR235     -0.2208
    182  CG2       27.3850   12.3070   28.3150 C.3   235  THR235      0.0379
    183  N         29.7390   11.5430   26.1360 N.am  236  THR236     -0.1950
    184  CA        31.2050   11.5160   26.3030 C.3   236  THR236      0.1897
    185  C         31.5820   11.7580   27.7760 C.2   236  THR236      0.2313
    186  O         32.3650   11.0070   28.3490 O.2   236  THR236     -0.2863
    187  CB        31.8510   12.6460   25.4470 C.3   236  THR236      0.1794
    188  OG1       31.6060   12.3860   24.0570 O.3   236  THR236     -0.2208
    189  CG2       33.3680   12.8130   25.7160 C.3   236  THR236      0.0378
    190  N         28.4720   14.0390   33.3420 N.3   239  ARG239     -0.1245
    191  CA        27.6930   15.2860   33.4250 C.3   239  ARG239      0.1563
    192  C         27.0110   15.3560   34.7800 C.2   239  ARG239      0.2260
    193  O         26.4980   14.3430   35.2860 O.2   239  ARG239     -0.2867
    194  CB        26.6940   15.4180   32.2490 C.3   239  ARG239      0.0307
    195  CG        27.3910   15.3470   30.8910 C.3   239  ARG239      0.0489
    196  CD        26.4290   15.5970   29.7520 C.3   239  ARG239      0.2205
    197  NE        25.9480   16.9790   29.7500 N.pl3 239  ARG239     -0.0865
    198  CZ        24.6980   17.3300   29.4860 C.cat 239  ARG239      0.5346
    199  NH1       24.3410   18.6060   29.5210 N.pl3 239  ARG239      0.1354
    200  NH2       23.7880   16.4060   29.2020 N.pl3 239  ARG239      0.1354
    201  N         30.8440    8.0510   28.8750 N.3   336  ALA336     -0.1245
    202  CA        31.9700    7.2270   28.4550 C.3   336  ALA336      0.1562
    203  C         33.2100    7.4060   29.3080 C.2   336  ALA336      0.2260
    204  O         33.8350    6.4060   29.6480 O.2   336  ALA336     -0.2867
    205  CB        32.2870    7.4750   26.9910 C.3   336  ALA336      0.0290
@<TRIPOS>BOND
     1   139   138    2
     2   138   137    1
     3   131   130    2
     4   130   129    1
     5   136   137    1
     6   108   109    1
     7   137   140    1
     8   128   129    1
     9    96    95    1
    10    96    97    2
    11   129   132    1
    12    95    98    1
    13    95    94    1
    14    98    99    1
    15   104   106   ar
    16   104   101   ar
    17   124   126   ar
    18   124   122   ar
    19   117   118    1
    20   117   110   am
    21   109   110    1
    22   109   112    1
    23   121   118    1
    24   121   122    1
    25   119   118    1
    26   119   120    2
    27   106   107   ar
    28   126   127   ar
    29   140   141    1
    30   113   112    1
    31   113   114    1
    32    99   101   ar
    33    99   100   ar
    34   122   123   ar
    35   110   111    2
    36   101   103   ar
    37   132   134    1
    38   132   133    1
    39   146   148   ar
    40   146   143   ar
    41   148   149   ar
    42   141   143   ar
    43   141   142   ar
    44   107   105   ar
    45   143   145   ar
    46   115   114    1
    47   115   116    1
    48    19    17   am
    49   150   151    1
    50   127   125   ar
    51   100   102   ar
    52   133   135    1
    53   103   105   ar
    54   103   102   ar
    55   123   125   ar
    56   142   144   ar
    57   149   147   ar
    58   145   147   ar
    59   145   144   ar
    60    17    18    2
    61    17    16    1
    62    92    91    1
    63    92    93    2
    64   151   152    1
    65   151   154    1
    66   153   152    2
    67    36    37    1
    68    91    90    1
    69   155   154    1
    70   155   157    1
    71   154   156    1
    72    16    15    1
    73    15    12    1
    74    37    40    1
    75    37    38    1
    76    40    41    1
    77    90    83   am
    78    14    13    2
    79    84    83    2
    80    83    82    1
    81    39    38    2
    82    12    13    1
    83    12    11    1
    84    13    20   am
    85    41    43    1
    86    41    42    1
    87    62    63    1
    88    23    22    2
    89    69    71   ar
    90    69    67   ar
    91    71    72   ar
    92    65    64    2
    93    26    27    2
    94    26    25    1
    95    11     9   am
    96    22    21    1
    97    22    24   am
    98    20    21    1
    99    82    85    1
   100    82    81    1
   101    77    76    2
   102    10     9    2
   103    66    63    1
   104    66    67    1
   105    63    64    1
   106    64    74   am
   107    25    24    1
   108    25    28    1
   109    67    68   ar
   110    85    86    1
   111     9     8    1
   112    72    73    1
   113    72    70   ar
   114    89    87   am
   115    76    81   am
   116    76    75    1
   117    74    75    1
   118    75    78    1
   119    68    70   ar
   120    61    60    1
   121    87    86    1
   122    87    88    2
   123    28    29    1
   124     8     7    1
   125    48    49    1
   126    48    45    1
   127    51    49   ar
   128    44    45    1
   129    31    29   ar
   130    31    33   ar
   131    29    30   ar
   132     7     3   am
   133    60    57    1
   134    49    50   ar
   135    45    46    1
   136    33    34   ar
   137    78    79    1
   138    78    80    1
   139     3     4    2
   140     3     2    1
   141     1     2    1
   142    30    32   ar
   143    58    57    1
   144    58    59    2
   145    47    46    2
   146   175   174    2
   147    57    56    1
   148    34    32   ar
   149    34    35    1
   150     2     5    1
   151   188   187    1
   152   173   174    1
   153   173   172    1
   154   174   176   am
   155    56    54   am
   156   169   168    2
   157   172   168   am
   158     6     5    1
   159   171   170    1
   160   187   189    1
   161   187   184    1
   162   168   167    1
   163    54    55    2
   164    54    53    1
   165   176   177    1
   166   183   184    1
   167   183   178   am
   168   170   167    1
   169    52    53    1
   170   184   185    1
   171   177   178    1
   172   177   180    1
   173   178   179    2
   174   164   163   ar
   175   167   166    1
   176   205   202    1
   177   181   180    1
   178   165   163   ar
   179   163   162    1
   180   166   160   am
   181   180   182    1
   182   185   186    2
   183   161   160    2
   184   160   159    1
   185   202   201    1
   186   202   203    1
   187   162   159    1
   188   159   158    1
   189   200   198    1
   190   203   204    2
   191   198   199    1
   192   198   197    2
   193   197   196    1
   194   196   195    1
   195   195   194    1
   196   194   191    1
   197   190   191    1
   198   191   192    1
   199   192   193    2
