@<TRIPOS>MOLECULE
tmp/4frxB03.pdb
 84 83 0 0 0
SMALL
GASTEIGER

@<TRIPOS>ATOM
      1  N         27.5370   -6.7690  119.9260 N.3    93  PHE93      -0.1227
      2  CA        28.9740   -6.8850  120.2090 C.3    93  PHE93       0.1736
      3  C         29.5250   -8.1240  119.5170 C.2    93  PHE93       0.2595
      4  O         28.9180   -9.1960  119.5710 O.2    93  PHE93      -0.2718
      5  CB        29.2220   -7.0140  121.7120 C.3    93  PHE93       0.0547
      6  CG        28.6470   -5.8740  122.5210 C.ar   93  PHE93      -0.0202
      7  CD1       27.2890   -5.8270  122.8120 C.ar   93  PHE93      -0.0042
      8  CD2       29.4590   -4.8410  122.9560 C.ar   93  PHE93      -0.0042
      9  CE1       26.7520   -4.7840  123.5430 C.ar   93  PHE93      -0.0003
     10  CE2       28.9300   -3.7870  123.6930 C.ar   93  PHE93      -0.0003
     11  CZ        27.5780   -3.7610  123.9870 C.ar   93  PHE93      -0.0000
     12  N         30.6740   -7.9810  118.8680 N.am   94  ARG94      -0.1966
     13  CA        31.3030   -9.1030  118.1890 C.3    94  ARG94       0.1729
     14  C         32.7570   -9.1860  118.5810 C.2    94  ARG94       0.2616
     15  O         33.4350   -8.1720  118.6820 O.2    94  ARG94      -0.2715
     16  CB        31.1810   -8.9730  116.6640 C.3    94  ARG94       0.0348
     17  CG        29.7620   -9.0880  116.1500 C.3    94  ARG94       0.0492
     18  CD        29.6530   -8.7750  114.6640 C.3    94  ARG94       0.2205
     19  NE        30.1460   -9.8520  113.8050 N.pl3  94  ARG94      -0.0865
     20  CZ        29.5250  -11.0190  113.6430 C.cat  94  ARG94       0.5346
     21  NH1       28.3950  -11.2640  114.2970 N.pl3  94  ARG94       0.1354
     22  NH2       30.0350  -11.9490  112.8390 N.pl3  94  ARG94       0.1354
     23  N         33.2390  -10.4040  118.7920 N.am   95  TYR95      -0.1974
     24  CA        34.6130  -10.5980  119.2250 C.3    95  TYR95       0.1639
     25  C         35.2230  -11.8130  118.5410 C.2    95  TYR95       0.2290
     26  O         34.7320  -12.9210  118.7050 O.2    95  TYR95      -0.2864
     27  CB        34.6350  -10.8000  120.7360 C.3    95  TYR95       0.0560
     28  CG        36.0120  -10.9050  121.3160 C.ar   95  TYR95      -0.0198
     29  CD1       36.8230   -9.7880  121.4160 C.ar   95  TYR95      -0.0009
     30  CD2       36.4980  -12.1120  121.7830 C.ar   95  TYR95      -0.0009
     31  CE1       38.0890   -9.8690  121.9590 C.ar   95  TYR95       0.0417
     32  CE2       37.7590  -12.2040  122.3340 C.ar   95  TYR95       0.0417
     33  CZ        38.5540  -11.0800  122.4210 C.ar   95  TYR95       0.1957
     34  OH        39.8170  -11.1750  122.9670 O.3    95  TYR95      -0.2866
     35  N         37.6180   -6.7000  118.2030 N.3   120  GLY120     -0.1210
     36  CA        36.3410   -6.5680  118.8960 C.3   120  GLY120      0.1956
     37  C         35.6020   -5.3540  118.3720 C.2   120  GLY120      0.2612
     38  O         36.2330   -4.3540  118.0440 O.2   120  GLY120     -0.2717
     39  N         34.2730   -5.4380  118.3000 N.am  121  GLN121     -0.1965
     40  CA        33.4560   -4.3960  117.6790 C.3   121  GLN121      0.1733
     41  C         32.0630   -4.2900  118.3030 C.2   121  GLN121      0.2616
     42  O         31.4710   -5.2930  118.7000 O.2   121  GLN121     -0.2715
     43  CB        33.3040   -4.7260  116.1920 C.3   121  GLN121      0.0408
     44  CG        32.4930   -3.7350  115.3810 C.3   121  GLN121      0.0908
     45  CD        32.3680   -4.1620  113.9290 C.2   121  GLN121      0.2608
     46  OE1       33.2080   -3.8280  113.1070 O.2   121  GLN121     -0.2717
     47  NE2       31.3100   -4.8980  113.6100 N.am  121  GLN121     -0.0878
     48  N         31.5340   -3.0730  118.3710 N.am  122  VAL122     -0.1977
     49  CA        30.1380   -2.8830  118.7280 C.3   122  VAL122      0.1596
     50  C         29.4730   -2.0830  117.6180 C.2   122  VAL122      0.2287
     51  O         30.0590   -1.1470  117.0870 O.2   122  VAL122     -0.2864
     52  CB        29.9650   -2.2080  120.1150 C.3   122  VAL122      0.0276
     53  CG1       30.6860   -0.8730  120.1700 C.3   122  VAL122      0.0022
     54  CG2       28.4850   -2.0460  120.4520 C.3   122  VAL122      0.0022
     55  N         32.0120    1.0590  116.5340 N.3   134  ALA134     -0.1231
     56  CA        33.3060    1.3200  117.1410 C.3   134  ALA134      0.1694
     57  C         33.9690   -0.0310  117.3270 C.2   134  ALA134      0.2593
     58  O         33.3050   -1.0110  117.6440 O.2   134  ALA134     -0.2718
     59  CB        33.1460    2.0190  118.4850 C.3   134  ALA134      0.0304
     60  N         35.2740   -0.0980  117.1210 N.am  135  GLY135     -0.1942
     61  CA        35.9390   -1.3780  117.2240 C.3   135  GLY135      0.2014
     62  C         37.4320   -1.2190  117.3760 C.2   135  GLY135      0.2638
     63  O         37.9650   -0.1130  117.2930 O.2   135  GLY135     -0.2714
     64  N         38.1000   -2.3430  117.5880 N.am  136  GLN136     -0.1977
     65  CA        39.5440   -2.3820  117.6970 C.3   136  GLN136      0.1601
     66  C         40.0190   -3.6250  116.9810 C.2   136  GLN136      0.2287
     67  O         39.5350   -4.7190  117.2660 O.2   136  GLN136     -0.2864
     68  CB        39.9490   -2.4630  119.1640 C.3   136  GLN136      0.0394
     69  CG        41.4510   -2.3130  119.3970 C.3   136  GLN136      0.0908
     70  CD        41.8220   -2.4200  120.8710 C.2   136  GLN136      0.2608
     71  OE1       40.9810   -2.2180  121.7480 O.2   136  GLN136     -0.2717
     72  NE2       43.0830   -2.7390  121.1480 N.am  136  GLN136     -0.0878
     73  N         42.1780    1.3790  115.9530 N.3   170  TYR170     -0.1241
     74  CA        40.9110    1.7660  116.5580 C.3   170  TYR170      0.1605
     75  C         40.0870    2.4460  115.5170 C.2   170  TYR170      0.2264
     76  O         40.6280    3.1720  114.6920 O.2   170  TYR170     -0.2867
     77  CB        41.1360    2.7710  117.6810 C.3   170  TYR170      0.0534
     78  CG        42.0020    2.2740  118.8010 C.ar  170  TYR170     -0.0201
     79  CD1       41.4720    1.4890  119.8180 C.ar  170  TYR170     -0.0009
     80  CD2       43.3480    2.6110  118.8620 C.ar  170  TYR170     -0.0009
     81  CE1       42.2650    1.0430  120.8610 C.ar  170  TYR170      0.0417
     82  CE2       44.1470    2.1680  119.8980 C.ar  170  TYR170      0.0417
     83  CZ        43.6010    1.3930  120.8970 C.ar  170  TYR170      0.1957
     84  OH        44.4010    0.9570  121.9270 O.3   170  TYR170     -0.2866
@<TRIPOS>BOND
     1    22    20    1
     2    46    45    2
     3    47    45   am
     4    20    19    2
     5    20    21    1
     6    19    18    1
     7    45    44    1
     8    18    17    1
     9    76    75    2
    10    44    43    1
    11    75    74    1
    12    73    74    1
    13    17    16    1
    14    43    40    1
    15    55    56    1
    16    74    77    1
    17    16    13    1
    18    66    67    2
    19    66    65    1
    20    51    50    2
    21    60    61    1
    22    60    57   am
    23    56    57    1
    24    56    59    1
    25    61    62    1
    26    63    62    2
    27    57    58    2
    28    62    64   am
    29    64    65    1
    30    50    49    1
    31    40    39    1
    32    40    41    1
    33    77    78    1
    34    65    68    1
    35    38    37    2
    36    13    14    1
    37    13    12    1
    38    35    36    1
    39    39    37   am
    40    41    48   am
    41    41    42    2
    42    48    49    1
    43    37    36    1
    44    25    26    2
    45    25    24    1
    46    14    15    2
    47    14    23   am
    48    49    52    1
    49    23    24    1
    50    78    80   ar
    51    78    79   ar
    52    80    82   ar
    53    12     3   am
    54    68    69    1
    55    24    27    1
    56    69    70    1
    57     3     4    2
    58     3     2    1
    59    79    81   ar
    60    82    83   ar
    61     1     2    1
    62    52    53    1
    63    52    54    1
    64     2     5    1
    65    27    28    1
    66    81    83   ar
    67    70    72   am
    68    70    71    2
    69    83    84    1
    70    28    29   ar
    71    28    30   ar
    72    29    31   ar
    73     5     6    1
    74    30    32   ar
    75    31    33   ar
    76    32    33   ar
    77    33    34    1
    78     6     7   ar
    79     6     8   ar
    80     7     9   ar
    81     8    10   ar
    82     9    11   ar
    83    10    11   ar
