@<TRIPOS>MOLECULE
tmp/4frxA03.pdb
 84 82 0 0 0
SMALL
GASTEIGER

@<TRIPOS>ATOM
      1  N         37.7250  -24.9580   53.7940 N.3   183  LEU183     -0.1231
      2  CA        36.4410  -25.5500   54.1640 C.3   183  LEU183      0.1693
      3  C         35.6190  -24.4980   54.9160 C.2   183  LEU183      0.2592
      4  O         36.1700  -23.5890   55.5280 O.2   183  LEU183     -0.2718
      5  CB        36.6720  -26.7280   55.0880 C.3   183  LEU183      0.0284
      6  CG        37.6820  -27.7570   54.5720 C.3   183  LEU183      0.0019
      7  CD1       37.8310  -28.8400   55.6280 C.3   183  LEU183      0.0001
      8  CD2       37.2090  -28.3380   53.2370 C.3   183  LEU183      0.0001
      9  N         34.3050  -24.6480   54.9070 N.am  184  GLN184     -0.1966
     10  CA        33.4420  -23.6910   55.5700 C.3   184  GLN184      0.1733
     11  C         32.2830  -24.4200   56.2180 C.2   184  GLN184      0.2616
     12  O         31.7900  -25.4060   55.6810 O.2   184  GLN184     -0.2715
     13  CB        32.8520  -22.7510   54.5430 C.3   184  GLN184      0.0408
     14  CG        33.8060  -21.7490   53.9220 C.3   184  GLN184      0.0908
     15  CD        33.0850  -20.8920   52.9090 C.2   184  GLN184      0.2608
     16  OE1       32.5130  -21.4110   51.9470 O.2   184  GLN184     -0.2717
     17  NE2       33.0720  -19.5800   53.1340 N.am  184  GLN184     -0.0878
     18  N         31.8640  -23.9370   57.3790 N.am  185  TYR185     -0.1974
     19  CA        30.6100  -24.3480   57.9730 C.3   185  TYR185      0.1639
     20  C         29.9850  -23.0900   58.5080 C.2   185  TYR185      0.2290
     21  O         30.6460  -22.3390   59.2320 O.2   185  TYR185     -0.2864
     22  CB        30.7860  -25.3270   59.1440 C.3   185  TYR185      0.0560
     23  CG        29.4970  -25.4130   59.9310 C.ar  185  TYR185     -0.0198
     24  CD1       28.4290  -26.1570   59.4510 C.ar  185  TYR185     -0.0009
     25  CD2       29.3120  -24.6850   61.1080 C.ar  185  TYR185     -0.0009
     26  CE1       27.2320  -26.2060   60.1280 C.ar  185  TYR185      0.0417
     27  CE2       28.1070  -24.7290   61.7980 C.ar  185  TYR185      0.0417
     28  CZ        27.0780  -25.4940   61.3060 C.ar  185  TYR185      0.1957
     29  OH        25.8770  -25.5430   61.9740 O.3   185  TYR185     -0.2866
     30  N         27.5510  -26.1810   54.4570 N.3   199  LEU199     -0.1231
     31  CA        28.9250  -26.6550   54.3180 C.3   199  LEU199      0.1693
     32  C         29.4400  -26.1910   52.9610 C.2   199  LEU199      0.2593
     33  O         28.6720  -26.1240   51.9960 O.2   199  LEU199     -0.2718
     34  CB        28.9920  -28.1860   54.4080 C.3   199  LEU199      0.0284
     35  CG        28.6470  -28.7790   55.7760 C.3   199  LEU199      0.0019
     36  CD1       28.3890  -30.2880   55.6610 C.3   199  LEU199      0.0001
     37  CD2       29.7330  -28.4790   56.8030 C.3   199  LEU199      0.0001
     38  N         30.7300  -25.8640   52.8880 N.am  200  GLY200     -0.1942
     39  CA        31.3190  -25.3860   51.6540 C.3   200  GLY200      0.2014
     40  C         32.7520  -25.8740   51.4720 C.2   200  GLY200      0.2638
     41  O         33.4540  -26.1670   52.4320 O.2   200  GLY200     -0.2714
     42  N         33.1940  -25.9410   50.2260 N.am  201  LEU201     -0.1977
     43  CA        34.5760  -26.2840   49.9480 C.3   201  LEU201      0.1596
     44  C         34.9840  -25.4690   48.7490 C.2   201  LEU201      0.2287
     45  O         34.2160  -25.3370   47.8060 O.2   201  LEU201     -0.2864
     46  CB        34.6920  -27.7880   49.6640 C.3   201  LEU201      0.0297
     47  CG        35.9670  -28.4240   49.1000 C.3   201  LEU201      0.0022
     48  CD1       36.0170  -29.8790   49.5330 C.3   201  LEU201      0.0001
     49  CD2       36.0450  -28.3400   47.5820 C.3   201  LEU201      0.0001
     50  N         32.0080  -26.1340   46.0030 N.3   216  LEU216     -0.1231
     51  CA        30.9190  -27.0270   46.4340 C.3   216  LEU216      0.1693
     52  C         30.1580  -26.4110   47.5930 C.2   216  LEU216      0.2592
     53  O         30.7520  -25.8120   48.4940 O.2   216  LEU216     -0.2718
     54  CB        31.4560  -28.3950   46.8570 C.3   216  LEU216      0.0284
     55  CG        32.4140  -29.1010   45.9100 C.3   216  LEU216      0.0019
     56  CD1       32.7800  -30.4770   46.4680 C.3   216  LEU216      0.0001
     57  CD2       31.7760  -29.2350   44.5360 C.3   216  LEU216      0.0001
     58  N         28.8390  -26.5480   47.5600 N.am  217  ARG217     -0.1966
     59  CA        27.9770  -25.9560   48.5770 C.3   217  ARG217      0.1729
     60  C         26.8260  -26.9040   48.8860 C.2   217  ARG217      0.2616
     61  O         26.2970  -27.5730   47.9940 O.2   217  ARG217     -0.2715
     62  CB        27.4150  -24.6070   48.1130 C.3   217  ARG217      0.0348
     63  CG        28.4550  -23.6270   47.6030 C.3   217  ARG217      0.0492
     64  CD        27.8460  -22.2900   47.2240 C.3   217  ARG217      0.2205
     65  NE        28.8300  -21.4370   46.5630 N.pl3 217  ARG217     -0.0865
     66  CZ        28.5860  -20.2010   46.1420 C.cat 217  ARG217      0.5346
     67  NH1       27.3830  -19.6740   46.3120 N.pl3 217  ARG217      0.1354
     68  NH2       29.5410  -19.5030   45.5390 N.pl3 217  ARG217      0.1354
     69  N         26.4610  -26.9550   50.1590 N.am  218  ALA218     -0.1977
     70  CA        25.3780  -27.7900   50.6400 C.3   218  ALA218      0.1597
     71  C         24.6680  -26.9870   51.7220 C.2   218  ALA218      0.2287
     72  O         25.3160  -26.5510   52.6660 O.2   218  ALA218     -0.2864
     73  CB        25.9470  -29.0620   51.2330 C.3   218  ALA218      0.0319
     74  N         22.1120  -28.2110   46.9140 N.3   257  PHE257     -0.1241
     75  CA        23.4660  -28.7290   46.7120 C.3   257  PHE257      0.1605
     76  C         23.9890  -28.2020   45.3850 C.2   257  PHE257      0.2264
     77  O         23.2690  -28.2150   44.4020 O.2   257  PHE257     -0.2867
     78  CB        23.4770  -30.2640   46.6820 C.3   257  PHE257      0.0534
     79  CG        24.8250  -30.8490   46.3360 C.ar  257  PHE257     -0.0203
     80  CD1       25.8300  -30.9210   47.2920 C.ar  257  PHE257     -0.0042
     81  CD2       25.0930  -31.3130   45.0570 C.ar  257  PHE257     -0.0042
     82  CE1       27.0750  -31.4500   46.9810 C.ar  257  PHE257     -0.0003
     83  CE2       26.3370  -31.8400   44.7390 C.ar  257  PHE257     -0.0003
     84  CZ        27.3260  -31.9090   45.7050 C.ar  257  PHE257     -0.0000
@<TRIPOS>BOND
     1    77    76    2
     2    57    55    1
     3    83    81   ar
     4    83    84   ar
     5    81    79   ar
     6    76    75    1
     7    68    66    1
     8    84    82   ar
     9    55    56    1
    10    55    54    1
    11    50    51    1
    12    66    67    1
    13    66    65    2
    14    79    78    1
    15    79    80   ar
    16    51    54    1
    17    51    52    1
    18    65    64    1
    19    78    75    1
    20    75    74    1
    21    82    80   ar
    22    64    63    1
    23    58    52   am
    24    58    59    1
    25    49    47    1
    26    52    53    2
    27    63    62    1
    28    45    44    2
    29    61    60    2
    30    62    59    1
    31    59    60    1
    32    44    43    1
    33    60    69   am
    34    47    48    1
    35    47    46    1
    36    46    43    1
    37    43    42    1
    38    69    70    1
    39    42    40   am
    40    70    73    1
    41    70    71    1
    42    40    39    1
    43    40    41    2
    44    39    38    1
    45    71    72    2
    46    16    15    2
    47    33    32    2
    48    38    32   am
    49    15    17   am
    50    15    14    1
    51    32    31    1
    52     8     6    1
    53     1     2    1
    54    14    13    1
    55     2     3    1
    56     2     5    1
    57    31    34    1
    58    31    30    1
    59    34    35    1
    60    13    10    1
    61     6     5    1
    62     6     7    1
    63     9     3   am
    64     9    10    1
    65     3     4    2
    66    10    11    1
    67    36    35    1
    68    12    11    2
    69    35    37    1
    70    11    18   am
    71    18    19    1
    72    19    20    1
    73    19    22    1
    74    20    21    2
    75    22    23    1
    76    24    23   ar
    77    24    26   ar
    78    23    25   ar
    79    26    28   ar
    80    25    27   ar
    81    28    27   ar
    82    28    29    1
