@<TRIPOS>MOLECULE
tmp/4frxA04.pdb
 78 75 0 0 0
SMALL
GASTEIGER

@<TRIPOS>ATOM
      1  N         43.7340    5.3710   68.1760 N.3     3  PHE3       -0.1241
      2  CA        42.4380    5.7830   67.6590 C.3     3  PHE3        0.1605
      3  C         42.6270    6.7430   66.4800 C.2     3  PHE3        0.2264
      4  O         42.0350    6.5620   65.4160 O.2     3  PHE3       -0.2867
      5  CB        41.6460    6.4620   68.7820 C.3     3  PHE3        0.0534
      6  CG        40.2520    6.8630   68.3940 C.ar    3  PHE3       -0.0203
      7  CD1       39.9960    8.1180   67.8460 C.ar    3  PHE3       -0.0042
      8  CD2       39.1900    5.9960   68.5870 C.ar    3  PHE3       -0.0042
      9  CE1       38.7020    8.4900   67.4860 C.ar    3  PHE3       -0.0003
     10  CE2       37.8910    6.3670   68.2320 C.ar    3  PHE3       -0.0003
     11  CZ        37.6520    7.6100   67.6800 C.ar    3  PHE3       -0.0000
     12  N         41.6090    2.6210   70.6880 N.3    42  THR42      -0.1218
     13  CA        42.2570    3.1660   71.8770 C.3    42  THR42       0.1862
     14  C         43.2550    2.1580   72.4410 C.2    42  THR42       0.2287
     15  O         43.1580    0.9580   72.1830 O.2    42  THR42      -0.2866
     16  CB        41.2420    3.5140   72.9740 C.3    42  THR42       0.1770
     17  OG1       40.4700    2.3500   73.3080 O.3    42  THR42      -0.2211
     18  CG2       40.3060    4.6390   72.5130 C.3    42  THR42       0.0375
     19  N         38.9670    0.3730   72.0080 N.3    48  PHE48      -0.1227
     20  CA        37.6430    0.7770   71.5640 C.3    48  PHE48       0.1736
     21  C         37.7390    1.6760   70.3540 C.2    48  PHE48       0.2596
     22  O         38.6980    2.4360   70.2160 O.2    48  PHE48      -0.2718
     23  CB        36.9050    1.4940   72.6830 C.3    48  PHE48       0.0547
     24  CG        36.6000    0.6060   73.8510 C.ar   48  PHE48      -0.0202
     25  CD1       35.5060   -0.2290   73.8270 C.ar   48  PHE48      -0.0042
     26  CD2       37.4230    0.5910   74.9580 C.ar   48  PHE48      -0.0042
     27  CE1       35.2230   -1.0570   74.9030 C.ar   48  PHE48      -0.0003
     28  CE2       37.1440   -0.2320   76.0340 C.ar   48  PHE48      -0.0003
     29  CZ        36.0420   -1.0510   76.0030 C.ar   48  PHE48      -0.0000
     30  N         36.7310    1.5990   69.4900 N.am   49  GLY49      -0.1942
     31  CA        36.6970    2.4330   68.3080 C.3    49  GLY49       0.2014
     32  C         35.2690    2.6930   67.8660 C.2    49  GLY49       0.2638
     33  O         34.3120    2.2670   68.5240 O.2    49  GLY49      -0.2714
     34  N         35.1280    3.4030   66.7510 N.am   50  VAL50      -0.1977
     35  CA        33.8070    3.6770   66.1800 C.3    50  VAL50       0.1596
     36  C         33.9460    3.8150   64.6590 C.2    50  VAL50       0.2287
     37  O         34.8960    4.4390   64.1650 O.2    50  VAL50      -0.2864
     38  CB        33.1540    4.9420   66.8140 C.3    50  VAL50       0.0276
     39  CG1       33.9810    6.1810   66.5490 C.3    50  VAL50       0.0022
     40  CG2       31.7220    5.1350   66.3050 C.3    50  VAL50       0.0022
     41  N         26.1460    4.0570   62.3710 N.3    81  LEU81      -0.1245
     42  CA        27.2900    4.0610   63.2780 C.3    81  LEU81       0.1561
     43  C         27.5280    2.6750   63.8420 C.2    81  LEU81       0.2260
     44  O         26.5840    1.9410   64.1140 O.2    81  LEU81      -0.2867
     45  CB        27.0390    5.0120   64.4410 C.3    81  LEU81       0.0270
     46  CG        26.8920    6.4940   64.1090 C.3    81  LEU81       0.0019
     47  CD1       26.8890    7.3020   65.3970 C.3    81  LEU81       0.0001
     48  CD2       28.0130    6.9450   63.2080 C.3    81  LEU81       0.0001
     49  N         29.8250    0.9010   66.9480 N.3    83  ALA83      -0.1231
     50  CA        30.8000    0.8780   68.0360 C.3    83  ALA83       0.1694
     51  C         31.6210   -0.4050   67.9100 C.2    83  ALA83       0.2591
     52  O         31.0910   -1.4420   67.5140 O.2    83  ALA83      -0.2718
     53  CB        30.0950    0.9170   69.3780 C.3    83  ALA83       0.0304
     54  N         32.9040   -0.3450   68.2400 N.am   84  LYS84      -0.1980
     55  CA        33.7410   -1.5400   68.1450 C.3    84  LYS84       0.1596
     56  C         34.7450   -1.6790   69.2810 C.2    84  LYS84       0.2287
     57  O         35.2200   -0.6910   69.8460 O.2    84  LYS84      -0.2864
     58  CB        34.4520   -1.6090   66.7920 C.3    84  LYS84       0.0298
     59  CG        35.5410   -0.5850   66.6120 C.3    84  LYS84       0.0038
     60  CD        35.9300   -0.4480   65.1430 C.3    84  LYS84       0.0206
     61  CE        36.9410    0.6730   64.9410 C.3    84  LYS84       0.1093
     62  NZ        37.5000    0.6850   63.5510 N.3    84  LYS84      -0.1314
     63  N         29.1320   -3.4040   67.1620 N.3    94  TYR94      -0.1227
     64  CA        27.7910   -3.2000   67.6690 C.3    94  TYR94       0.1736
     65  C         27.1370   -1.9840   66.9940 C.2    94  TYR94       0.2596
     66  O         27.5820   -0.8670   67.1750 O.2    94  TYR94      -0.2718
     67  CB        27.8860   -2.9930   69.1840 C.3    94  TYR94       0.0548
     68  CG        26.5760   -2.9990   69.9180 C.ar   94  TYR94      -0.0200
     69  CD1       25.9200   -4.1890   70.1920 C.ar   94  TYR94      -0.0009
     70  CD2       26.0090   -1.8170   70.3710 C.ar   94  TYR94      -0.0009
     71  CE1       24.7270   -4.2040   70.8860 C.ar   94  TYR94       0.0417
     72  CE2       24.8120   -1.8180   71.0640 C.ar   94  TYR94       0.0417
     73  CZ        24.1750   -3.0160   71.3200 C.ar   94  TYR94       0.1957
     74  OH        22.9830   -3.0270   72.0110 O.3    94  TYR94      -0.2866
     75  N         26.0770   -2.2120   66.2310 N.am   95  GLY95      -0.1957
     76  CA        25.4870   -1.1730   65.4150 C.3    95  GLY95       0.1869
     77  C         25.3400   -1.6290   63.9730 C.2    95  GLY95       0.2309
     78  O         24.8280   -2.7140   63.6930 O.2    95  GLY95      -0.2863
@<TRIPOS>BOND
     1    41    42    1
     2    48    46    1
     3    42    43    1
     4    42    45    1
     5    62    61    1
     6    78    77    2
     7    43    44    2
     8    77    76    1
     9    46    45    1
    10    46    47    1
    11    37    36    2
    12    36    35    1
    13    61    60    1
    14    60    59    1
    15    76    75    1
    16     4     3    2
    17    35    34    1
    18    35    38    1
    19    75    65   am
    20    40    38    1
    21     3     2    1
    22    39    38    1
    23    59    58    1
    24    34    32   am
    25    58    55    1
    26    49    50    1
    27    65    66    2
    28    65    64    1
    29    63    64    1
    30     9    11   ar
    31     9     7   ar
    32    52    51    2
    33     2     1    1
    34     2     5    1
    35    64    67    1
    36    11    10   ar
    37     7     6   ar
    38    32    31    1
    39    32    33    2
    40    51    50    1
    41    51    54   am
    42    50    53    1
    43    55    54    1
    44    55    56    1
    45    10     8   ar
    46    31    30    1
    47     6     8   ar
    48     6     5    1
    49    67    68    1
    50    56    57    2
    51    30    21   am
    52    68    69   ar
    53    68    70   ar
    54    69    71   ar
    55    22    21    2
    56    21    20    1
    57    70    72   ar
    58    12    13    1
    59    71    73   ar
    60    72    73   ar
    61    73    74    1
    62    20    19    1
    63    20    23    1
    64    13    14    1
    65    13    16    1
    66    15    14    2
    67    18    16    1
    68    23    24    1
    69    16    17    1
    70    25    24   ar
    71    25    27   ar
    72    24    26   ar
    73    27    29   ar
    74    26    28   ar
    75    29    28   ar
