@<TRIPOS>MOLECULE
tmp/4fryB01.pdb
 168 164 0 0 0
SMALL
GASTEIGER

@<TRIPOS>ATOM
      1  N         13.6460   35.7400   41.6620 N.3    11  LYS11      -0.1231
      2  CA        13.9290   34.3030   41.7650 C.3    11  LYS11       0.1678
      3  C         14.8540   33.8470   40.6400 C.2    11  LYS11       0.2434
      4  O         14.8740   34.4590   39.5760 O.2    11  LYS11      -0.2733
      5  CB        12.6400   33.4720   41.7360 C.3    11  LYS11       0.0284
      6  CG        11.7070   33.7180   42.9170 C.3    11  LYS11       0.0035
      7  CD        11.3190   32.4260   43.6290 C.3    11  LYS11       0.0206
      8  CE        10.2910   31.6200   42.8620 C.3    11  LYS11       0.1093
      9  NZ        10.2030   30.2060   43.3390 N.3    11  LYS11      -0.1314
     10  N         15.6320   32.7730   40.8720 N.am   12  PRO12      -0.2729
     11  CA        16.4790   32.3220   39.7760 C.3    12  PRO12       0.1401
     12  C         15.6560   31.7930   38.5970 C.2    12  PRO12       0.2269
     13  O         14.6870   31.0480   38.7930 O.2    12  PRO12      -0.2865
     14  CB        17.3040   31.1950   40.4060 C.3    12  PRO12       0.0296
     15  CG        16.4530   30.6840   41.5150 C.3    12  PRO12       0.0237
     16  CD        15.7550   31.9010   42.0570 C.3    12  PRO12       0.0939
     17  N         10.4250   28.2630   36.8390 N.3    17  THR17      -0.1203
     18  CA        10.4770   26.8400   37.1190 C.3    17  THR17       0.1994
     19  C          9.6380   26.4880   38.3510 C.2    17  THR17       0.2618
     20  O          9.9200   26.9520   39.4570 O.2    17  THR17      -0.2717
     21  CB        11.9400   26.3790   37.2970 C.3    17  THR17       0.1784
     22  OG1       12.5760   27.1600   38.3140 O.3    17  THR17      -0.2211
     23  CG2       12.7160   26.5570   35.9960 C.3    17  THR17       0.0376
     24  N          8.5930   25.6860   38.1330 N.am   18  ILE18      -0.1965
     25  CA         7.7580   25.1440   39.2020 C.3    18  ILE18       0.1727
     26  C          7.9700   23.6340   39.3140 C.2    18  ILE18       0.2616
     27  O          7.7940   22.8980   38.3370 O.2    18  ILE18      -0.2715
     28  CB         6.2570   25.4000   38.9620 C.3    18  ILE18       0.0290
     29  CG1        5.9770   26.8930   38.7420 C.3    18  ILE18       0.0022
     30  CG2        5.4360   24.8840   40.1420 C.3    18  ILE18       0.0023
     31  CD1        6.0970   27.3380   37.3010 C.3    18  ILE18       0.0001
     32  N          8.3400   23.1760   40.5090 N.am   19  TYR19      -0.1974
     33  CA         8.5520   21.7580   40.7580 C.3    19  TYR19       0.1639
     34  C          7.2250   21.1220   41.1350 C.2    19  TYR19       0.2290
     35  O          6.4340   21.6900   41.8900 O.2    19  TYR19      -0.2864
     36  CB         9.6290   21.5450   41.8230 C.3    19  TYR19       0.0560
     37  CG        10.9850   22.0520   41.3740 C.ar   19  TYR19      -0.0198
     38  CD1       11.6100   21.5100   40.2480 C.ar   19  TYR19      -0.0009
     39  CD2       11.6400   23.0710   42.0560 C.ar   19  TYR19      -0.0009
     40  CE1       12.8430   21.9680   39.8160 C.ar   19  TYR19       0.0417
     41  CE2       12.8840   23.5350   41.6320 C.ar   19  TYR19       0.0417
     42  CZ        13.4780   22.9730   40.5130 C.ar   19  TYR19       0.1957
     43  OH        14.7040   23.4130   40.0800 O.3    19  TYR19      -0.2866
     44  N         15.8880   21.2040   47.2420 N.3    38  GLY38      -0.1210
     45  CA        16.0150   22.0920   48.3920 C.3    38  GLY38       0.1956
     46  C         14.7630   22.9310   48.6110 C.2    38  GLY38       0.2612
     47  O         14.8470   24.1470   48.8220 O.2    38  GLY38      -0.2717
     48  N         13.6020   22.2790   48.5430 N.am   39  ILE39      -0.1965
     49  CA        12.3090   22.9580   48.6620 C.3    39  ILE39       0.1727
     50  C         11.4270   22.2330   49.6830 C.2    39  ILE39       0.2617
     51  O         11.7610   21.1260   50.1290 O.2    39  ILE39      -0.2715
     52  CB        11.5910   23.0430   47.2960 C.3    39  ILE39       0.0290
     53  CG1       11.1970   21.6570   46.7760 C.3    39  ILE39       0.0022
     54  CG2       12.4850   23.7330   46.2780 C.3    39  ILE39       0.0023
     55  CD1       10.5350   21.6630   45.4120 C.3    39  ILE39       0.0001
     56  N         10.3060   22.8600   50.0450 N.am   40  GLY40      -0.1940
     57  CA         9.3670   22.2940   51.0160 C.3    40  GLY40       0.2014
     58  C          7.9560   22.0950   50.4930 C.2    40  GLY40       0.2639
     59  O          7.0640   21.6890   51.2490 O.2    40  GLY40      -0.2714
     60  N          7.7290   22.3700   49.2100 N.am   41  ALA41      -0.1963
     61  CA         6.4300   22.1060   48.6200 C.3    41  ALA41       0.1728
     62  C          6.5170   21.6680   47.1610 C.2    41  ALA41       0.2616
     63  O          7.5360   21.8450   46.4920 O.2    41  ALA41      -0.2715
     64  CB         5.5140   23.3160   48.7720 C.3    41  ALA41       0.0334
     65  N          5.4410   21.0420   46.7050 N.am   42  LEU42      -0.1963
     66  CA         5.2750   20.6750   45.3070 C.3    42  LEU42       0.1728
     67  C          3.8450   20.9820   44.8900 C.2    42  LEU42       0.2616
     68  O          2.9020   20.6520   45.6060 O.2    42  LEU42      -0.2715
     69  CB         5.5600   19.1850   45.0940 C.3    42  LEU42       0.0311
     70  CG         7.0090   18.7300   45.2640 C.3    42  LEU42       0.0022
     71  CD1        7.0900   17.2030   45.2490 C.3    42  LEU42       0.0001
     72  CD2        7.8900   19.3400   44.1830 C.3    42  LEU42       0.0001
     73  N          3.6960   21.6430   43.7480 N.am   43  LEU43      -0.1977
     74  CA         2.3810   21.8270   43.1430 C.3    43  LEU43       0.1596
     75  C          1.9570   20.4760   42.5970 C.2    43  LEU43       0.2287
     76  O          2.7380   19.8320   41.8990 O.2    43  LEU43      -0.2864
     77  CB         2.4330   22.8620   42.0100 C.3    43  LEU43       0.0297
     78  CG         1.0630   23.1960   41.4180 C.3    43  LEU43       0.0022
     79  CD1        0.1030   23.7920   42.4400 C.3    43  LEU43       0.0001
     80  CD2        1.2440   24.1400   40.2400 C.3    43  LEU43       0.0001
     81  N          6.0110   19.5990   53.0430 N.3    56  GLU56      -0.1245
     82  CA         6.6570   18.9580   54.1890 C.3    56  GLU56       0.1567
     83  C          5.7370   18.9310   55.4140 C.2    56  GLU56       0.2260
     84  O          5.7900   17.9860   56.1990 O.2    56  GLU56      -0.2867
     85  CB         7.9830   19.6690   54.5250 C.3    56  GLU56       0.0388
     86  CG         7.8350   21.1300   54.9240 C.3    56  GLU56       0.1160
     87  CD         9.1590   21.8900   54.9500 C.2    56  GLU56       0.3649
     88  OE1       10.1900   21.3180   55.3940 O.co2  56  GLU56      -0.2457
     89  OE2        9.1720   23.0820   54.5360 O.co2  56  GLU56      -0.2457
     90  N          2.7140   28.5400   53.7250 N.3   105  ARG105     -0.1231
     91  CA         3.9510   29.2370   53.3860 C.3   105  ARG105      0.1694
     92  C          4.2380   29.2400   51.8880 C.2   105  ARG105      0.2592
     93  O          5.3400   29.5680   51.4750 O.2   105  ARG105     -0.2718
     94  CB         5.1170   28.6090   54.1510 C.3   105  ARG105      0.0321
     95  CG         5.0570   28.9230   55.6310 C.3   105  ARG105      0.0489
     96  CD         6.0330   28.0830   56.4200 C.3   105  ARG105      0.2205
     97  NE         5.6660   26.6690   56.3690 N.pl3 105  ARG105     -0.0865
     98  CZ         6.1780   25.7180   57.1360 C.cat 105  ARG105      0.5346
     99  NH1        7.0810   26.0010   58.0590 N.pl3 105  ARG105      0.1354
    100  NH2        5.7740   24.4580   56.9700 N.pl3 105  ARG105      0.1354
    101  N          3.2450   28.8650   51.0860 N.am  106  HIS106     -0.1976
    102  CA         3.4240   28.7780   49.6530 C.3   106  HIS106      0.1656
    103  C          2.2190   29.3120   48.9520 C.2   106  HIS106      0.2291
    104  O          1.0930   29.1420   49.4350 O.2   106  HIS106     -0.2864
    105  CB         3.7110   27.3380   49.2530 C.3   106  HIS106      0.0771
    106  CG         5.0150   26.8150   49.8110 C.ar  106  HIS106      0.0820
    107  ND1        5.1070   26.2490   51.0280 N.ar  106  HIS106     -0.2267
    108  CD2        6.3020   26.8320   49.2880 C.ar  106  HIS106      0.1154
    109  CE1        6.3800   25.8870   51.2600 C.ar  106  HIS106      0.1986
    110  NE2        7.1160   26.2590   50.2000 N.ar  106  HIS106     -0.2212
    111  N          5.6520   30.1550   41.5370 N.3   118  LEU118     -0.1231
    112  CA         5.2690   29.8570   42.9140 C.3   118  LEU118      0.1693
    113  C          6.1640   30.6390   43.8580 C.2   118  LEU118      0.2592
    114  O          7.3940   30.6810   43.6710 O.2   118  LEU118     -0.2718
    115  CB         5.3760   28.3520   43.1950 C.3   118  LEU118      0.0284
    116  CG         4.9880   27.8630   44.6040 C.3   118  LEU118      0.0019
    117  CD1        4.3880   26.4630   44.5310 C.3   118  LEU118      0.0001
    118  CD2        6.1670   27.8930   45.5670 C.3   118  LEU118      0.0001
    119  N          5.5530   31.2640   44.8640 N.am  119  ILE119     -0.1966
    120  CA         6.3150   32.0190   45.8440 C.3   119  ILE119      0.1727
    121  C          6.0690   31.4710   47.2280 C.2   119  ILE119      0.2617
    122  O          5.0570   30.8050   47.4730 O.2   119  ILE119     -0.2715
    123  CB         6.0220   33.5280   45.8030 C.3   119  ILE119      0.0290
    124  CG1        4.6150   33.8530   46.2870 C.3   119  ILE119      0.0022
    125  CG2        6.2090   34.0790   44.3870 C.3   119  ILE119      0.0023
    126  CD1        4.4920   35.2900   46.7420 C.3   119  ILE119      0.0001
    127  N          7.0110   31.7600   48.1220 N.am  120  SER120     -0.1936
    128  CA         7.0230   31.1920   49.4400 C.3   120  SER120      0.2055
    129  C          7.2710   32.2810   50.4830 C.2   120  SER120      0.2643
    130  O          7.6910   33.3930   50.1530 O.2   120  SER120     -0.2714
    131  CB         8.0790   30.0740   49.5300 C.3   120  SER120      0.2130
    132  OG         9.3970   30.5760   49.5020 O.3   120  SER120     -0.2179
    133  N          6.9870   31.9570   51.7450 N.am  121  ILE121     -0.1963
    134  CA         7.1680   32.9110   52.8320 C.3   121  ILE121      0.1727
    135  C          8.6200   33.4320   52.8440 C.2   121  ILE121      0.2617
    136  O          8.8620   34.6060   53.1350 O.2   121  ILE121     -0.2715
    137  CB         6.7620   32.2810   54.1860 C.3   121  ILE121      0.0290
    138  CG1        6.5670   33.3410   55.2820 C.3   121  ILE121      0.0022
    139  CG2        7.7560   31.2100   54.6140 C.3   121  ILE121      0.0023
    140  CD1        5.5720   32.9090   56.3630 C.3   121  ILE121      0.0001
    141  N          9.5740   32.5700   52.4910 N.am  122  GLY122     -0.1940
    142  CA        10.9690   32.9750   52.3800 C.3   122  GLY122      0.2014
    143  C         11.2450   34.0360   51.3190 C.2   122  GLY122      0.2638
    144  O         12.0630   34.9520   51.5460 O.2   122  GLY122     -0.2714
    145  N         10.5880   33.9230   50.1630 N.am  123  ASP123     -0.1971
    146  CA        10.7590   34.9160   49.0950 C.3   123  ASP123      0.1709
    147  C         10.2540   36.2690   49.5860 C.2   123  ASP123      0.2293
    148  O         10.8590   37.2850   49.3170 O.2   123  ASP123     -0.2864
    149  CB        10.0220   34.5190   47.8090 C.3   123  ASP123      0.1436
    150  CG        10.4710   33.1700   47.2670 C.2   123  ASP123      0.3671
    151  OD1       11.7010   32.8790   47.2870 O.co2 123  ASP123     -0.2456
    152  OD2        9.5880   32.3930   46.8350 O.co2 123  ASP123     -0.2456
    153  N          9.8910   37.3080   52.9100 N.3   125  VAL125     -0.1231
    154  CA        10.7960   37.8290   53.9320 C.3   125  VAL125      0.1692
    155  C         12.0620   38.4380   53.2950 C.2   125  VAL125      0.2591
    156  O         12.5090   39.5130   53.6930 O.2   125  VAL125     -0.2718
    157  CB        11.1630   36.7560   54.9890 C.3   125  VAL125      0.0266
    158  CG1       12.3390   37.2280   55.8370 C.3   125  VAL125      0.0020
    159  CG2        9.9490   36.4480   55.8630 C.3   125  VAL125      0.0020
    160  N         12.6220   37.7750   52.2870 N.am  126  LYS126     -0.1980
    161  CA        13.8000   38.3210   51.6160 C.3   126  LYS126      0.1596
    162  C         13.5390   39.7290   51.0480 C.2   126  LYS126      0.2287
    163  O         14.3440   40.6400   51.2430 O.2   126  LYS126     -0.2864
    164  CB        14.2780   37.4060   50.4940 C.3   126  LYS126      0.0298
    165  CG        15.5200   37.9580   49.8030 C.3   126  LYS126      0.0038
    166  CD        16.3940   36.8630   49.2320 C.3   126  LYS126      0.0206
    167  CE        15.7780   36.2570   47.9930 C.3   126  LYS126      0.1093
    168  NZ        16.6550   35.1770   47.4700 N.3   126  LYS126     -0.1314
@<TRIPOS>BOND
     1    23    21    1
     2    17    18    1
     3    18    21    1
     4    18    19    1
     5    21    22    1
     6    31    29    1
     7    24    19   am
     8    24    25    1
     9    27    26    2
    10    19    20    2
    11    12    13    2
    12    12    11    1
    13    29    28    1
    14    28    25    1
    15    28    30    1
    16    25    26    1
    17    26    32   am
    18     4     3    2
    19    11    14    1
    20    11    10    1
    21    40    38   ar
    22    40    42   ar
    23    43    42    1
    24    80    78    1
    25    38    37   ar
    26    14    15    1
    27    32    33    1
    28    42    41   ar
    29     3    10   am
    30     3     2    1
    31    33    34    1
    32    33    36    1
    33    10    16    1
    34    34    35    2
    35    37    36    1
    36    37    39   ar
    37    78    77    1
    38    78    79    1
    39    15    16    1
    40   111   112    1
    41    41    39   ar
    42     1     2    1
    43     5     2    1
    44     5     6    1
    45    76    75    2
    46    77    74    1
    47    75    74    1
    48     8     9    1
    49     8     7    1
    50   112   115    1
    51   112   113    1
    52     6     7    1
    53    74    73    1
    54   115   116    1
    55   114   113    2
    56    73    67   am
    57   113   119   am
    58    72    70    1
    59   125   123    1
    60   117   116    1
    61   116   118    1
    62   119   120    1
    63    67    66    1
    64    67    68    2
    65    69    70    1
    66    69    66    1
    67    71    70    1
    68    66    65    1
    69    55    53    1
    70   123   120    1
    71   123   124    1
    72   120   121    1
    73    54    52    1
    74   124   126    1
    75    63    62    2
    76    65    62   am
    77    53    52    1
    78   152   150   ar
    79    62    61    1
    80   121   122    2
    81   121   127   am
    82    44    45    1
    83   150   151   ar
    84   150   149    1
    85    52    49    1
    86   168   167    1
    87   149   146    1
    88   167   166    1
    89   127   128    1
    90    45    46    1
    91    48    46   am
    92    48    49    1
    93    46    47    2
    94    61    64    1
    95    61    60    1
    96    49    50    1
    97   103   104    2
    98   103   102    1
    99   146   147    1
   100   146   145    1
   101    60    58   am
   102   166   165    1
   103   105   102    1
   104   105   106    1
   105   108   106   ar
   106   108   110   ar
   107   148   147    2
   108   128   131    1
   109   128   129    1
   110   132   131    1
   111   102   101    1
   112    50    56   am
   113    50    51    2
   114   165   164    1
   115   106   107   ar
   116    56    57    1
   117   130   129    2
   118   145   143   am
   119   110   109   ar
   120   129   133   am
   121    58    57    1
   122    58    59    2
   123   164   161    1
   124   107   109   ar
   125   162   163    2
   126   162   161    1
   127   101    92   am
   128   143   144    2
   129   143   142    1
   130    93    92    2
   131   161   160    1
   132   133   134    1
   133    92    91    1
   134   160   155   am
   135   142   141    1
   136   141   135   am
   137   134   135    1
   138   134   137    1
   139   135   136    2
   140   153   154    1
   141    81    82    1
   142   155   156    2
   143   155   154    1
   144    91    90    1
   145    91    94    1
   146   154   157    1
   147    94    95    1
   148   137   139    1
   149   137   138    1
   150    82    85    1
   151    82    83    1
   152    85    86    1
   153    89    87   ar
   154    86    87    1
   155    87    88   ar
   156   157   158    1
   157   157   159    1
   158   138   140    1
   159    83    84    2
   160    95    96    1
   161    97    96    1
   162    97    98    2
   163   100    98    1
   164    98    99    1
