@<TRIPOS>MOLECULE
tmp/4fryB02.pdb
 151 148 0 0 0
SMALL
GASTEIGER

@<TRIPOS>ATOM
      1  N         -1.8940   20.9680   46.3900 N.3    53  ILE53      -0.1245
      2  CA        -0.5310   21.2790   46.8100 C.3    53  ILE53       0.1561
      3  C         -0.1670   20.3940   48.0070 C.2    53  ILE53       0.2260
      4  O         -1.0010   20.1350   48.8900 O.2    53  ILE53      -0.2867
      5  CB        -0.3710   22.7860   47.1330 C.3    53  ILE53       0.0252
      6  CG1        1.1000   23.1610   47.3940 C.3    53  ILE53       0.0019
      7  CG2       -1.2260   23.1840   48.3290 C.3    53  ILE53       0.0019
      8  CD1        1.4250   24.5850   46.9770 C.3    53  ILE53       0.0001
      9  N          3.0280   19.5930   50.9170 N.3    55  THR55      -0.1203
     10  CA         4.2470   20.1260   51.5090 C.3    55  THR55       0.1994
     11  C          4.7990   19.2470   52.6130 C.2    55  THR55       0.2618
     12  O          4.1570   18.2800   53.0620 O.2    55  THR55      -0.2717
     13  CB         4.0050   21.5360   52.0650 C.3    55  THR55       0.1784
     14  OG1        3.3100   21.4370   53.3170 O.3    55  THR55      -0.2211
     15  CG2        3.2000   22.3620   51.0670 C.3    55  THR55       0.0376
     16  N          6.0110   19.5990   53.0430 N.am   56  GLU56      -0.1965
     17  CA         6.6570   18.9580   54.1890 C.3    56  GLU56       0.1733
     18  C          5.7370   18.9310   55.4140 C.2    56  GLU56       0.2616
     19  O          5.7900   17.9860   56.1990 O.2    56  GLU56      -0.2715
     20  CB         7.9830   19.6690   54.5250 C.3    56  GLU56       0.0429
     21  CG         7.8350   21.1300   54.9240 C.3    56  GLU56       0.1163
     22  CD         9.1590   21.8900   54.9500 C.2    56  GLU56       0.3649
     23  OE1       10.1900   21.3180   55.3940 O.co2  56  GLU56      -0.2457
     24  OE2        9.1720   23.0820   54.5360 O.co2  56  GLU56      -0.2457
     25  N          4.9070   19.9660   55.5900 N.am   57  ARG57      -0.1963
     26  CA         3.9620   19.9940   56.7070 C.3    57  ARG57       0.1729
     27  C          2.9190   18.8870   56.5640 C.2    57  ARG57       0.2616
     28  O          2.5540   18.2500   57.5560 O.2    57  ARG57      -0.2715
     29  CB         3.3010   21.3660   56.8360 C.3    57  ARG57       0.0348
     30  CG         2.2630   21.4900   57.9520 C.3    57  ARG57       0.0492
     31  CD         2.8450   21.2340   59.3310 C.3    57  ARG57       0.2205
     32  NE         3.8990   22.1710   59.7260 N.pl3  57  ARG57      -0.0865
     33  CZ         3.6960   23.3500   60.3220 C.cat  57  ARG57       0.5346
     34  NH1        2.4600   23.7740   60.6000 N.pl3  57  ARG57       0.1354
     35  NH2        4.7370   24.1250   60.6460 N.pl3  57  ARG57       0.1354
     36  N          2.4560   18.6540   55.3370 N.am   58  ASP58      -0.1971
     37  CA         1.5420   17.5420   55.0340 C.3    58  ASP58       0.1709
     38  C          2.1710   16.1870   55.3350 C.2    58  ASP58       0.2293
     39  O          1.5170   15.3040   55.8740 O.2    58  ASP58      -0.2864
     40  CB         1.1100   17.5580   53.5530 C.3    58  ASP58       0.1436
     41  CG         0.1790   18.6990   53.2270 C.2    58  ASP58       0.3671
     42  OD1       -0.8250   18.8860   53.9620 O.co2  58  ASP58      -0.2456
     43  OD2        0.4470   19.3930   52.2260 O.co2  58  ASP58      -0.2456
     44  N          0.4270   13.6760   58.2490 N.3    62  LYS62      -0.1245
     45  CA        -0.5900   12.8020   57.6610 C.3    62  LYS62       0.1561
     46  C         -0.1260   11.4180   57.1980 C.2    62  LYS62       0.2260
     47  O         -0.9020   10.7080   56.5630 O.2    62  LYS62      -0.2867
     48  CB        -1.2350   13.5090   56.4670 C.3    62  LYS62       0.0271
     49  CG        -2.0000   14.7730   56.8070 C.3    62  LYS62       0.0035
     50  CD        -2.0730   15.6880   55.5920 C.3    62  LYS62       0.0206
     51  CE        -3.2260   16.6760   55.6740 C.3    62  LYS62       0.1093
     52  NZ        -3.1970   17.6410   54.5360 N.3    62  LYS62      -0.1314
     53  N         -3.4960   19.2080   49.8860 N.3    80  THR80      -0.1218
     54  CA        -4.6130   20.1420   50.0360 C.3    80  THR80       0.1862
     55  C         -5.1650   20.4420   48.6460 C.2    80  THR80       0.2287
     56  O         -4.4110   20.8430   47.7570 O.2    80  THR80      -0.2866
     57  CB        -4.1770   21.4920   50.6490 C.3    80  THR80       0.1770
     58  OG1       -3.4350   21.2800   51.8550 O.3    80  THR80      -0.2211
     59  CG2       -5.4100   22.3800   50.9450 C.3    80  THR80       0.0375
     60  N         -8.0610   22.5070   47.8170 N.3    82  LYS82      -0.1231
     61  CA        -8.4840   23.8920   47.6280 C.3    82  LYS82       0.1693
     62  C         -7.2590   24.7780   47.7280 C.2    82  LYS82       0.2592
     63  O         -6.8940   25.2030   48.8140 O.2    82  LYS82      -0.2718
     64  CB        -9.5150   24.3020   48.6820 C.3    82  LYS82       0.0285
     65  CG       -10.0630   25.6890   48.4940 C.3    82  LYS82       0.0035
     66  CD       -10.8170   26.1670   49.7400 C.3    82  LYS82       0.0206
     67  CE       -11.1080   27.6630   49.6640 C.3    82  LYS82       0.1093
     68  NZ        -9.8480   28.4610   49.5020 N.3    82  LYS82      -0.1314
     69  N         -6.6160   25.0300   46.5910 N.am   83  VAL83      -0.1966
     70  CA        -5.3730   25.7980   46.5520 C.3    83  VAL83       0.1727
     71  C         -5.6650   27.2910   46.4310 C.2    83  VAL83       0.2616
     72  O         -6.3470   27.7300   45.5010 O.2    83  VAL83      -0.2715
     73  CB        -4.4870   25.3790   45.3640 C.3    83  VAL83       0.0290
     74  CG1       -3.2170   26.2120   45.3230 C.3    83  VAL83       0.0023
     75  CG2       -4.1340   23.9100   45.4530 C.3    83  VAL83       0.0023
     76  N         -5.1470   28.0640   47.3800 N.am   84  ARG84      -0.1977
     77  CA        -5.1750   29.5220   47.2970 C.3    84  ARG84       0.1597
     78  C         -4.0020   29.9870   46.4440 C.2    84  ARG84       0.2287
     79  O         -2.9130   29.4190   46.5130 O.2    84  ARG84      -0.2864
     80  CB        -5.1170   30.1400   48.6920 C.3    84  ARG84       0.0334
     81  CG        -6.2800   29.7100   49.5710 C.3    84  ARG84       0.0492
     82  CD        -6.1430   30.1780   51.0000 C.3    84  ARG84       0.2205
     83  NE        -7.3590   29.8860   51.7550 N.pl3  84  ARG84      -0.0865
     84  CZ        -8.4570   30.6360   51.7450 C.cat  84  ARG84       0.5346
     85  NH1       -8.5130   31.7500   51.0220 N.pl3  84  ARG84       0.1354
     86  NH2       -9.5100   30.2750   52.4710 N.pl3  84  ARG84       0.1354
     87  N         -4.0930   32.2210   56.8230 N.3   102  HIS102     -0.1226
     88  CA        -4.4450   30.8560   56.4050 C.3   102  HIS102      0.1752
     89  C         -3.4210   29.8040   56.7450 C.2   102  HIS102      0.2596
     90  O         -3.6250   28.6300   56.4360 O.2   102  HIS102     -0.2718
     91  CB        -4.7330   30.8210   54.9150 C.3   102  HIS102      0.0759
     92  CG        -5.9250   31.6390   54.5230 C.ar  102  HIS102      0.0818
     93  ND1       -7.1730   31.3340   54.9320 N.ar  102  HIS102     -0.2268
     94  CD2       -6.0320   32.7930   53.7590 C.ar  102  HIS102      0.1154
     95  CE1       -8.0330   32.2300   54.4490 C.ar  102  HIS102      0.1986
     96  NE2       -7.3410   33.1320   53.7350 N.ar  102  HIS102     -0.2212
     97  N         -2.3200   30.2130   57.3780 N.am  103  ARG103     -0.1966
     98  CA        -1.2910   29.2860   57.8820 C.3   103  ARG103      0.1729
     99  C         -0.7260   28.3850   56.7800 C.2   103  ARG103      0.2616
    100  O         -0.7330   27.1860   56.8890 O.2   103  ARG103     -0.2715
    101  CB        -1.8350   28.4660   59.0680 C.3   103  ARG103      0.0348
    102  CG        -2.1840   29.3510   60.2590 C.3   103  ARG103      0.0492
    103  CD        -2.5760   28.5520   61.4920 C.3   103  ARG103      0.2205
    104  NE        -2.7160   29.4220   62.6590 N.pl3 103  ARG103     -0.0865
    105  CZ        -1.7190   29.8340   63.4420 C.cat 103  ARG103      0.5346
    106  NH1       -0.4620   29.4580   63.2080 N.pl3 103  ARG103      0.1354
    107  NH2       -1.9850   30.6290   64.4790 N.pl3 103  ARG103      0.1354
    108  N         -0.1950   29.0260   55.7440 N.am  104  MET104     -0.1963
    109  CA         0.4370   28.3780   54.5980 C.3   104  MET104      0.1736
    110  C          1.6600   29.1990   54.2050 C.2   104  MET104      0.2616
    111  O          1.6430   30.4250   54.3150 O.2   104  MET104     -0.2715
    112  CB        -0.5360   28.3740   53.4370 C.3   104  MET104      0.0427
    113  CG        -1.2000   29.7350   53.2530 C.3   104  MET104      0.0599
    114  SD        -2.4080   29.7350   51.9660 S.3   104  MET104     -0.1393
    115  CE        -3.4450   28.3700   52.4950 C.3   104  MET104      0.0692
    116  N          2.7140   28.5400   53.7250 N.am  105  ARG105     -0.1963
    117  CA         3.9510   29.2370   53.3860 C.3   105  ARG105      0.1729
    118  C          4.2380   29.2400   51.8880 C.2   105  ARG105      0.2616
    119  O          5.3400   29.5680   51.4750 O.2   105  ARG105     -0.2715
    120  CB         5.1170   28.6090   54.1510 C.3   105  ARG105      0.0348
    121  CG         5.0570   28.9230   55.6310 C.3   105  ARG105      0.0492
    122  CD         6.0330   28.0830   56.4200 C.3   105  ARG105      0.2205
    123  NE         5.6660   26.6690   56.3690 N.pl3 105  ARG105     -0.0865
    124  CZ         6.1780   25.7180   57.1360 C.cat 105  ARG105      0.5346
    125  NH1        7.0810   26.0010   58.0590 N.pl3 105  ARG105      0.1354
    126  NH2        5.7740   24.4580   56.9700 N.pl3 105  ARG105      0.1354
    127  N          3.2450   28.8650   51.0860 N.am  106  HIS106     -0.1959
    128  CA         3.4240   28.7780   49.6530 C.3   106  HIS106      0.1787
    129  C          2.2190   29.3120   48.9520 C.2   106  HIS106      0.2620
    130  O          1.0930   29.1420   49.4350 O.2   106  HIS106     -0.2715
    131  CB         3.7110   27.3380   49.2530 C.3   106  HIS106      0.0785
    132  CG         5.0150   26.8150   49.8110 C.ar  106  HIS106      0.0821
    133  ND1        5.1070   26.2490   51.0280 N.ar  106  HIS106     -0.2267
    134  CD2        6.3020   26.8320   49.2880 C.ar  106  HIS106      0.1154
    135  CE1        6.3800   25.8870   51.2600 C.ar  106  HIS106      0.1986
    136  NE2        7.1160   26.2590   50.2000 N.ar  106  HIS106     -0.2212
    137  N          2.4570   29.9860   47.8240 N.am  107  LEU107     -0.1964
    138  CA         1.3820   30.5740   47.0200 C.3   107  LEU107      0.1713
    139  C          1.7260   30.4500   45.5310 C.2   107  LEU107      0.2458
    140  O          2.6210   31.1350   45.0530 O.2   107  LEU107     -0.2730
    141  CB         1.2010   32.0560   47.3720 C.3   107  LEU107      0.0310
    142  CG         0.4260   32.4270   48.6320 C.3   107  LEU107      0.0022
    143  CD1        0.5680   33.9150   48.9230 C.3   107  LEU107      0.0001
    144  CD2       -1.0470   32.0380   48.5240 C.3   107  LEU107      0.0001
    145  N          1.0290   29.5680   44.7960 N.am  108  PRO108     -0.2727
    146  CA         1.1880   29.5560   43.3380 C.3   108  PRO108      0.1402
    147  C          0.7660   30.8900   42.7420 C.2   108  PRO108      0.2269
    148  O         -0.0390   31.6040   43.3370 O.2   108  PRO108     -0.2865
    149  CB         0.2370   28.4440   42.8800 C.3   108  PRO108      0.0296
    150  CG         0.0410   27.5900   44.0810 C.3   108  PRO108      0.0237
    151  CD         0.0980   28.5250   45.2510 C.3   108  PRO108      0.0939
@<TRIPOS>BOND
     1   147   148    2
     2   147   146    1
     3   149   146    1
     4   149   150    1
     5   146   145    1
     6   150   151    1
     7   145   151    1
     8   145   139   am
     9   140   139    2
    10    74    73    1
    11    73    75    1
    12    73    70    1
    13    72    71    2
    14   139   138    1
    15     1     2    1
    16    71    70    1
    17    71    76   am
    18    78    79    2
    19    78    77    1
    20    70    69    1
    21    69    62   am
    22     2     5    1
    23     2     3    1
    24     8     6    1
    25   138   141    1
    26   138   137    1
    27     5     6    1
    28     5     7    1
    29    77    76    1
    30    77    80    1
    31   141   142    1
    32    61    62    1
    33    61    60    1
    34    61    64    1
    35    62    63    2
    36    56    55    2
    37   137   129   am
    38     3     4    2
    39    65    64    1
    40    65    66    1
    41   144   142    1
    42   142   143    1
    43    55    54    1
    44    80    81    1
    45   129   130    2
    46   129   128    1
    47   131   128    1
    48   131   132    1
    49   134   132   ar
    50   134   136   ar
    51    68    67    1
    52    81    82    1
    53   128   127    1
    54    67    66    1
    55   132   133   ar
    56    53    54    1
    57    54    57    1
    58   136   135   ar
    59    57    59    1
    60    57    58    1
    61     9    10    1
    62    82    83    1
    63    85    84    1
    64   133   135   ar
    65    15    13    1
    66   127   118   am
    67   119   118    2
    68    10    13    1
    69    10    11    1
    70    84    83    2
    71    84    86    1
    72   118   117    1
    73   114   115    1
    74   114   113    1
    75    13    14    1
    76    43    41   ar
    77    11    16   am
    78    11    12    2
    79    16    17    1
    80    41    40    1
    81    41    42   ar
    82   113   112    1
    83   117   116    1
    84   117   120    1
    85   112   109    1
    86    40    37    1
    87   116   110   am
    88    96    94   ar
    89    96    95   ar
    90    94    92   ar
    91   120   121    1
    92    17    20    1
    93    17    18    1
    94   110   111    2
    95   110   109    1
    96    95    93   ar
    97    92    91    1
    98    92    93   ar
    99    20    21    1
   100    52    51    1
   101    24    22   ar
   102   109   108    1
   103    91    88    1
   104    21    22    1
   105    22    23   ar
   106    37    38    1
   107    37    36    1
   108    38    39    2
   109    36    27   am
   110    18    25   am
   111    18    19    2
   112    25    26    1
   113    50    51    1
   114    50    49    1
   115   121   122    1
   116   108    99   am
   117   123   122    1
   118   123   124    2
   119    88    89    1
   120    88    87    1
   121    90    89    2
   122    48    49    1
   123    48    45    1
   124    47    46    2
   125    27    26    1
   126    27    28    2
   127    26    29    1
   128    89    97   am
   129    99   100    2
   130    99    98    1
   131    29    30    1
   132   126   124    1
   133   124   125    1
   134    46    45    1
   135    97    98    1
   136    45    44    1
   137    98   101    1
   138    30    31    1
   139   101   102    1
   140    31    32    1
   141    32    33    2
   142   102   103    1
   143    33    34    1
   144    33    35    1
   145   103   104    1
   146   104   105    2
   147   106   105    1
   148   105   107    1
