@<TRIPOS>MOLECULE
tmp/4fs3A01.pdb
 182 175 0 0 0
SMALL
GASTEIGER

@<TRIPOS>ATOM
      1  N        112.9620   59.8390   40.4220 N.3    95  ALA95      -0.1231
      2  CA       113.7820   61.0550   40.3570 C.3    95  ALA95       0.1694
      3  C        113.3030   62.0070   41.4330 C.2    95  ALA95       0.2592
      4  O        112.0980   62.0240   41.7650 O.2    95  ALA95      -0.2718
      5  CB       113.6420   61.7110   39.0010 C.3    95  ALA95       0.0304
      6  N        114.2230   62.7920   41.9810 N.am   96  PHE96      -0.1962
      7  CA       113.8300   63.8690   42.8700 C.3    96  PHE96       0.1771
      8  C        114.9120   64.9310   42.9940 C.2    96  PHE96       0.2619
      9  O        116.1010   64.6140   43.0530 O.2    96  PHE96      -0.2715
     10  CB       113.5570   63.3320   44.2740 C.3    96  PHE96       0.0574
     11  CG       112.9410   64.3530   45.1850 C.ar   96  PHE96      -0.0200
     12  CD1      111.5690   64.6620   45.0800 C.ar   96  PHE96      -0.0042
     13  CD2      113.7290   65.0430   46.1050 C.ar   96  PHE96      -0.0042
     14  CE1      110.9930   65.6210   45.9120 C.ar   96  PHE96      -0.0003
     15  CE2      113.1570   66.0050   46.9510 C.ar   96  PHE96      -0.0003
     16  CZ       111.7980   66.2950   46.8520 C.ar   96  PHE96      -0.0000
     17  N        114.4610   66.1790   43.0740 N.am   97  ALA97      -0.1977
     18  CA       115.2860   67.3050   43.5190 C.3    97  ALA97       0.1597
     19  C        114.3960   68.2000   44.3550 C.2    97  ALA97       0.2287
     20  O        113.1790   68.2310   44.1300 O.2    97  ALA97      -0.2864
     21  CB       115.8230   68.0780   42.3120 C.3    97  ALA97       0.0319
     22  N        112.3850   71.3380   45.2210 N.3    99  MET99      -0.1245
     23  CA       111.7080   72.2580   44.3120 C.3    99  MET99       0.1570
     24  C        112.4510   73.5760   44.1230 C.2    99  MET99       0.2261
     25  O        112.4450   74.1440   43.0250 O.2    99  MET99      -0.2867
     26  CB       110.2640   72.5040   44.7700 C.3    99  MET99       0.0387
     27  CG       109.4050   73.1620   43.7100 C.3    99  MET99       0.0595
     28  SD       109.1200   72.0560   42.2990 S.3    99  MET99      -0.1393
     29  CE       109.3330   73.2330   40.9770 C.3    99  MET99       0.0692
     30  N        114.7110   73.7030   41.1660 N.3   102  LEU102     -0.1245
     31  CA       114.1250   73.5880   39.8250 C.3   102  LEU102      0.1561
     32  C        113.5510   74.9060   39.3080 C.2   102  LEU102      0.2260
     33  O        112.6920   74.9380   38.4170 O.2   102  LEU102     -0.2867
     34  CB       113.0600   72.4820   39.8220 C.3   102  LEU102      0.0270
     35  CG       113.5640   71.0800   40.1830 C.3   102  LEU102      0.0019
     36  CD1      112.4200   70.0710   40.2550 C.3   102  LEU102      0.0001
     37  CD2      114.6420   70.6150   39.1970 C.3   102  LEU102      0.0001
     38  N        115.3130   62.3250   30.5310 N.3   147  TYR147     -0.1241
     39  CA       114.7300   63.4630   29.8480 C.3   147  TYR147      0.1605
     40  C        115.8450   64.1790   29.0940 C.2   147  TYR147      0.2264
     41  O        117.0080   64.1320   29.5230 O.2   147  TYR147     -0.2867
     42  CB       114.0880   64.3930   30.8880 C.3   147  TYR147      0.0534
     43  CG       113.4100   65.6000   30.2890 C.ar  147  TYR147     -0.0201
     44  CD1      112.3520   65.4470   29.3820 C.ar  147  TYR147     -0.0009
     45  CD2      113.8250   66.8970   30.6310 C.ar  147  TYR147     -0.0009
     46  CE1      111.7130   66.5650   28.8370 C.ar  147  TYR147      0.0417
     47  CE2      113.2140   68.0060   30.0730 C.ar  147  TYR147      0.0417
     48  CZ       112.1590   67.8350   29.1960 C.ar  147  TYR147      0.1957
     49  OH       111.5580   68.9540   28.6510 O.3   147  TYR147     -0.2866
     50  N        118.3270   72.7240   29.5460 N.3   154  VAL154     -0.1231
     51  CA       116.9290   73.1640   29.3950 C.3   154  VAL154      0.1692
     52  C        116.6140   74.1580   30.5420 C.2   154  VAL154      0.2592
     53  O        117.0280   73.9600   31.6830 O.2   154  VAL154     -0.2718
     54  CB       116.0160   71.8960   29.4480 C.3   154  VAL154      0.0266
     55  CG1      114.5480   72.2290   29.6220 C.3   154  VAL154      0.0020
     56  CG2      116.2140   71.0440   28.1960 C.3   154  VAL154      0.0020
     57  N        115.8880   75.2400   30.2600 N.am  155  GLN155     -0.1966
     58  CA       115.6570   76.2510   31.2960 C.3   155  GLN155      0.1733
     59  C        114.9130   75.6630   32.5040 C.2   155  GLN155      0.2616
     60  O        114.0190   74.8250   32.3450 O.2   155  GLN155     -0.2715
     61  CB       114.9920   77.5280   30.7210 C.3   155  GLN155      0.0408
     62  CG       113.7640   77.3110   29.8940 C.3   155  GLN155      0.0908
     63  CD       113.4950   78.4550   28.8820 C.2   155  GLN155      0.2608
     64  OE1      113.1830   78.1920   27.7030 O.2   155  GLN155     -0.2717
     65  NE2      113.6280   79.7090   29.3350 N.am  155  GLN155     -0.0878
     66  N        115.3630   76.0400   33.6980 N.am  156  ASN156     -0.1958
     67  CA       114.8130   75.5780   34.9780 C.3   156  ASN156      0.1819
     68  C        115.1040   74.1520   35.3960 C.2   156  ASN156      0.2621
     69  O        115.0250   73.8480   36.5840 O.2   156  ASN156     -0.2715
     70  CB       113.2940   75.8380   35.0750 C.3   156  ASN156      0.1195
     71  CG       112.9690   77.3030   35.0360 C.2   156  ASN156      0.2630
     72  OD1      113.5820   78.1000   35.7510 O.2   156  ASN156     -0.2716
     73  ND2      112.0100   77.6760   34.1900 N.am  156  ASN156     -0.0877
     74  N        115.4480   73.2740   34.4590 N.am  157  TYR157     -0.1974
     75  CA       115.6430   71.8590   34.8380 C.3   157  TYR157      0.1639
     76  C        116.8370   71.6900   35.7730 C.2   157  TYR157      0.2290
     77  O        116.8630   70.7760   36.5980 O.2   157  TYR157     -0.2864
     78  CB       115.8040   70.9780   33.6090 C.3   157  TYR157      0.0560
     79  CG       115.5000   69.5140   33.8340 C.ar  157  TYR157     -0.0198
     80  CD1      114.2800   69.1020   34.3740 C.ar  157  TYR157     -0.0009
     81  CD2      116.4090   68.5290   33.4220 C.ar  157  TYR157     -0.0009
     82  CE1      113.9860   67.7440   34.5480 C.ar  157  TYR157      0.0417
     83  CE2      116.1260   67.1800   33.5870 C.ar  157  TYR157      0.0417
     84  CZ       114.9260   66.7880   34.1520 C.ar  157  TYR157      0.1957
     85  OH       114.6630   65.4470   34.2800 O.3   157  TYR157     -0.2866
     86  N        118.3490   68.7880   38.1200 N.3   160  MET160     -0.1245
     87  CA       117.8290   67.5300   37.5510 C.3   160  MET160      0.1570
     88  C        118.4680   67.1950   36.2030 C.2   160  MET160      0.2261
     89  O        118.5900   66.0200   35.8390 O.2   160  MET160     -0.2867
     90  CB       116.2970   67.5370   37.4110 C.3   160  MET160      0.0387
     91  CG       115.5410   67.1310   38.6880 C.3   160  MET160      0.0595
     92  SD       116.0130   65.5240   39.3820 S.3   160  MET160     -0.1393
     93  CE       116.0340   64.4540   37.9460 C.3   160  MET160      0.0692
     94  N        120.1890   63.7950   35.5250 N.3   164  LYS164     -0.1245
     95  CA       119.8810   62.9200   34.3820 C.3   164  LYS164      0.1561
     96  C        121.1170   62.6000   33.5180 C.2   164  LYS164      0.2260
     97  O        121.2370   61.4950   32.9900 O.2   164  LYS164     -0.2867
     98  CB       118.7680   63.4850   33.4920 C.3   164  LYS164      0.0271
     99  CG       117.3840   63.4810   34.1370 C.3   164  LYS164      0.0035
    100  CD       116.9650   62.0600   34.6410 C.3   164  LYS164      0.0206
    101  CE       115.4620   62.0610   35.0300 C.3   164  LYS164      0.1093
    102  NZ       114.9550   60.6970   35.4560 N.3   164  LYS164     -0.1314
    103  N        108.0790   65.5280   27.4600 N.3   192  PRO192     -0.2102
    104  CA       107.3210   66.0210   28.6130 C.3   192  PRO192      0.1504
    105  C        105.9060   65.4530   28.6390 C.2   192  PRO192      0.2575
    106  O        105.2370   65.3670   27.5960 O.2   192  PRO192     -0.2718
    107  CB       107.3190   67.5540   28.4090 C.3   192  PRO192      0.0282
    108  CG       107.4220   67.7140   26.9310 C.3   192  PRO192      0.0208
    109  CD       108.4320   66.6150   26.5300 C.3   192  PRO192      0.0893
    110  N        105.4950   65.0460   29.8310 N.am  193  ILE193     -0.1980
    111  CA       104.1700   64.5000   30.0810 C.3   193  ILE193      0.1595
    112  C        103.6430   65.1160   31.3650 C.2   193  ILE193      0.2287
    113  O        104.3610   65.2030   32.3630 O.2   193  ILE193     -0.2864
    114  CB       104.2150   62.9500   30.2040 C.3   193  ILE193      0.0276
    115  CG1      104.8190   62.3140   28.9400 C.3   193  ILE193      0.0022
    116  CG2      102.7960   62.3770   30.4430 C.3   193  ILE193      0.0022
    117  CD1      105.0600   60.7790   29.0390 C.3   193  ILE193      0.0001
    118  N        102.3740   64.9020   34.5720 N.3   195  THR195     -0.1203
    119  CA       102.2730   63.9400   35.6640 C.3   195  THR195      0.1994
    120  C        102.4580   64.7330   36.9680 C.2   195  THR195      0.2618
    121  O        102.6410   65.9580   36.9410 O.2   195  THR195     -0.2717
    122  CB       103.4110   62.8680   35.5650 C.3   195  THR195      0.1784
    123  OG1      104.6670   63.4810   35.8960 O.3   195  THR195     -0.2211
    124  CG2      103.6020   62.3310   34.1190 C.3   195  THR195      0.0376
    125  N        102.4680   64.0240   38.0980 N.am  196  LEU196     -0.1965
    126  CA       102.7930   64.6170   39.3950 C.3   196  LEU196      0.1728
    127  C        104.1640   65.3160   39.4100 C.2   196  LEU196      0.2617
    128  O        104.3770   66.2720   40.1600 O.2   196  LEU196     -0.2715
    129  CB       102.7590   63.5330   40.4700 C.3   196  LEU196      0.0311
    130  CG       102.4000   63.8650   41.9170 C.3   196  LEU196      0.0022
    131  CD1      101.0330   64.5520   42.0320 C.3   196  LEU196      0.0001
    132  CD2      102.4030   62.5410   42.7060 C.3   196  LEU196      0.0001
    133  N        105.0960   64.8550   38.5850 N.am  197  SER197     -0.1936
    134  CA       106.4160   65.5030   38.5490 C.3   197  SER197      0.2055
    135  C        106.4230   66.8140   37.7360 C.2   197  SER197      0.2643
    136  O        107.4460   67.4950   37.6450 O.2   197  SER197     -0.2714
    137  CB       107.4950   64.5190   38.1100 C.3   197  SER197      0.2130
    138  OG       107.5950   63.4820   39.0760 O.3   197  SER197     -0.2179
    139  N        105.2780   67.1690   37.1600 N.am  198  ALA198     -0.1963
    140  CA       105.1340   68.4560   36.4860 C.3   198  ALA198      0.1728
    141  C        104.5290   69.4930   37.4290 C.2   198  ALA198      0.2616
    142  O        104.4840   70.6910   37.1020 O.2   198  ALA198     -0.2715
    143  CB       104.2890   68.3110   35.2220 C.3   198  ALA198      0.0334
    144  N        104.0870   69.0350   38.6050 N.am  199  LYS199     -0.1977
    145  CA       103.3800   69.9030   39.5600 C.3   199  LYS199      0.1596
    146  C        104.3220   70.9390   40.1770 C.2   199  LYS199      0.2287
    147  O        105.3780   70.5970   40.7290 O.2   199  LYS199     -0.2864
    148  CB       102.6580   69.0780   40.6390 C.3   199  LYS199      0.0298
    149  CG       101.5270   69.8360   41.3810 C.3   199  LYS199      0.0038
    150  CD       100.7820   68.9280   42.3830 C.3   199  LYS199      0.0206
    151  CE       100.3720   69.6940   43.6350 C.3   199  LYS199      0.1093
    152  NZ       100.1460   68.7710   44.8040 N.3   199  LYS199     -0.1314
    153  N        105.9560   73.0890   38.4020 N.3   201  VAL201     -0.1231
    154  CA       106.8690   73.4840   37.3240 C.3   201  VAL201      0.1692
    155  C        106.2350   74.5860   36.4790 C.2   201  VAL201      0.2592
    156  O        105.3060   74.3400   35.7070 O.2   201  VAL201     -0.2718
    157  CB       107.2600   72.2750   36.4200 C.3   201  VAL201      0.0266
    158  CG1      108.1050   72.7220   35.2170 C.3   201  VAL201      0.0020
    159  CG2      107.9940   71.2040   37.2360 C.3   201  VAL201      0.0020
    160  N        106.7390   75.8070   36.6340 N.am  202  GLY202     -0.1957
    161  CA       106.1940   76.9420   35.8880 C.3   202  GLY202      0.1869
    162  C        106.4400   76.8000   34.4010 C.2   202  GLY202      0.2309
    163  O        107.4850   76.2920   33.9720 O.2   202  GLY202     -0.2863
    164  N        104.9820   74.8810   32.3060 N.3   204  PHE204     -0.1241
    165  CA       104.8950   73.5160   31.7830 C.3   204  PHE204      0.1605
    166  C        104.0190   73.4540   30.5210 C.2   204  PHE204      0.2264
    167  O        104.3520   72.7450   29.5540 O.2   204  PHE204     -0.2867
    168  CB       104.4310   72.5090   32.8430 C.3   204  PHE204      0.0534
    169  CG       104.7440   71.0770   32.4810 C.ar  204  PHE204     -0.0203
    170  CD1      103.8090   70.3000   31.8120 C.ar  204  PHE204     -0.0042
    171  CD2      105.9860   70.5150   32.8050 C.ar  204  PHE204     -0.0042
    172  CE1      104.0960   68.9700   31.4530 C.ar  204  PHE204     -0.0003
    173  CE2      106.2870   69.1830   32.4630 C.ar  204  PHE204     -0.0003
    174  CZ       105.3380   68.4190   31.7720 C.ar  204  PHE204     -0.0000
    175  N        106.0750   74.3580   27.5650 N.3   207  ILE207     -0.1245
    176  CA       106.9100   73.2290   27.1090 C.3   207  ILE207      0.1561
    177  C        106.0860   72.3030   26.2000 C.2   207  ILE207      0.2260
    178  O        106.5310   71.9340   25.0930 O.2   207  ILE207     -0.2867
    179  CB       107.4550   72.4600   28.3210 C.3   207  ILE207      0.0252
    180  CG1      108.3010   73.4040   29.2010 C.3   207  ILE207      0.0019
    181  CG2      108.2390   71.2000   27.8790 C.3   207  ILE207      0.0019
    182  CD1      108.7940   72.7860   30.5080 C.3   207  ILE207      0.0001
@<TRIPOS>BOND
     1   178   177    2
     2   177   176    1
     3   109   108    1
     4   109   103    1
     5   108   107    1
     6   176   175    1
     7   176   179    1
     8   103   104    1
     9   106   105    2
    10    64    63    2
    11   181   179    1
    12    56    54    1
    13   179   180    1
    14   107   104    1
    15   104   105    1
    16   105   110   am
    17    49    48    1
    18    46    48   ar
    19    46    44   ar
    20    63    65   am
    21    63    62    1
    22   115   117    1
    23   115   114    1
    24    40    41    2
    25    40    39    1
    26    48    47   ar
    27   180   182    1
    28    44    43   ar
    29    51    54    1
    30    51    50    1
    31    51    52    1
    32    54    55    1
    33   167   166    2
    34   110   111    1
    35    39    38    1
    36    39    42    1
    37    62    61    1
    38    47    45   ar
    39   111   114    1
    40   111   112    1
    41   114   116    1
    42    57    52   am
    43    57    58    1
    44    43    45   ar
    45    43    42    1
    46   166   165    1
    47    52    53    2
    48    61    58    1
    49    58    59    1
    50   112   113    2
    51   172   174   ar
    52   172   170   ar
    53   174   173   ar
    54   165   164    1
    55   165   168    1
    56   170   169   ar
    57    60    59    2
    58   173   171   ar
    59   169   171   ar
    60   169   168    1
    61    59    66   am
    62    97    96    2
    63    81    83   ar
    64    81    79   ar
    65    98    99    1
    66    98    95    1
    67    96    95    1
    68    83    84   ar
    69    78    79    1
    70    78    75    1
    71    66    67    1
    72    79    80   ar
    73   163   162    2
    74   124   122    1
    75    99   100    1
    76    84    85    1
    77    84    82   ar
    78    73    71   am
    79    80    82   ar
    80    95    94    1
    81   162   161    1
    82    74    75    1
    83    74    68   am
    84   118   119    1
    85   100   101    1
    86    75    76    1
    87    67    70    1
    88    67    68    1
    89   101   102    1
    90    71    70    1
    91    71    72    2
    92   158   157    1
    93   143   140    1
    94    68    69    2
    95   122   119    1
    96   122   123    1
    97   119   120    1
    98   156   155    2
    99    76    77    2
   100    89    88    2
   101   161   160    1
   102    88    87    1
   103   157   159    1
   104   157   154    1
   105   155   160   am
   106   155   154    1
   107   140   139    1
   108   140   141    1
   109   121   120    2
   110   120   125   am
   111   142   141    2
   112   139   135   am
   113   154   153    1
   114    90    87    1
   115    90    91    1
   116   141   144   am
   117    87    86    1
   118   136   135    2
   119   135   134    1
   120    93    92    1
   121   125   126    1
   122   137   134    1
   123   137   138    1
   124    33    32    2
   125   134   133    1
   126   133   127   am
   127   144   145    1
   128    91    92    1
   129     5     2    1
   130    37    35    1
   131    32    31    1
   132   126   127    1
   133   126   129    1
   134   127   128    2
   135   145   146    1
   136   145   148    1
   137    34    31    1
   138    34    35    1
   139    31    30    1
   140   146   147    2
   141    35    36    1
   142     2     1    1
   143     2     3    1
   144   129   130    1
   145   148   149    1
   146    29    28    1
   147   149   150    1
   148     3     4    2
   149     3     6   am
   150   130   131    1
   151   130   132    1
   152     6     7    1
   153    28    27    1
   154    21    18    1
   155   150   151    1
   156     7     8    1
   157     7    10    1
   158     8     9    2
   159     8    17   am
   160    25    24    2
   161    17    18    1
   162    18    19    1
   163   151   152    1
   164    27    26    1
   165    24    23    1
   166    20    19    2
   167    10    11    1
   168    23    26    1
   169    23    22    1
   170    12    11   ar
   171    12    14   ar
   172    11    13   ar
   173    14    16   ar
   174    13    15   ar
   175    16    15   ar
