@<TRIPOS>MOLECULE
tmp/4fs9B00.pdb
 168 157 0 0 0
SMALL
GASTEIGER

@<TRIPOS>ATOM
      1  N        -40.3220   33.0470  -13.9070 N.3    48  VAL48      -0.1245
      2  CA       -40.7100   31.7250  -14.4510 C.3    48  VAL48       0.1561
      3  C        -39.9830   30.6180  -13.6620 C.2    48  VAL48       0.2260
      4  O        -38.8010   30.3560  -13.8840 O.2    48  VAL48      -0.2867
      5  CB       -40.4020   31.6360  -15.9810 C.3    48  VAL48       0.0252
      6  CG1      -40.6990   30.2480  -16.5300 C.3    48  VAL48       0.0019
      7  CG2      -41.1820   32.7160  -16.7430 C.3    48  VAL48       0.0019
      8  N        -40.7840   27.2660  -13.1410 N.3    50  LYS50      -0.1245
      9  CA       -41.2760   25.9320  -13.4540 C.3    50  LYS50       0.1561
     10  C        -40.1600   24.8900  -13.5420 C.2    50  LYS50       0.2260
     11  O        -38.9850   25.2290  -13.6350 O.2    50  LYS50      -0.2867
     12  CB       -42.0220   25.9750  -14.7550 C.3    50  LYS50       0.0271
     13  CG       -41.1330   26.3300  -15.8940 C.3    50  LYS50       0.0035
     14  CD       -41.9190   26.4820  -17.1330 C.3    50  LYS50       0.0206
     15  CE       -41.0960   27.1870  -18.1190 C.3    50  LYS50       0.1093
     16  NZ       -41.4230   26.7190  -19.4500 N.3    50  LYS50      -0.1314
     17  N        -36.4050   25.5180  -12.7100 N.3    54  TYR54      -0.1241
     18  CA       -35.3780   25.1020  -13.6820 C.3    54  TYR54       0.1605
     19  C        -34.3560   24.1520  -13.0600 C.2    54  TYR54       0.2264
     20  O        -33.1660   24.1640  -13.4190 O.2    54  TYR54      -0.2867
     21  CB       -34.6750   26.3220  -14.2490 C.3    54  TYR54       0.0534
     22  CG       -35.4110   27.0210  -15.3720 C.ar   54  TYR54      -0.0201
     23  CD1      -36.7850   27.2750  -15.2930 C.ar   54  TYR54      -0.0009
     24  CD2      -34.7100   27.4710  -16.5200 C.ar   54  TYR54      -0.0009
     25  CE1      -37.4530   27.9310  -16.3300 C.ar   54  TYR54       0.0417
     26  CE2      -35.3620   28.1360  -17.5620 C.ar   54  TYR54       0.0417
     27  CZ       -36.7280   28.3600  -17.4610 C.ar   54  TYR54       0.1957
     28  OH       -37.3640   29.0250  -18.4660 O.3    54  TYR54      -0.2866
     29  N        -47.7960   28.5580  -16.9980 N.3    96  VAL96      -0.1245
     30  CA       -47.3860   28.7870  -18.4180 C.3    96  VAL96       0.1561
     31  C        -47.5190   27.5840  -19.3620 C.2    96  VAL96       0.2260
     32  O        -46.7680   27.4740  -20.3370 O.2    96  VAL96      -0.2867
     33  CB       -45.9280   29.3970  -18.6000 C.3    96  VAL96       0.0252
     34  CG1      -45.9220   30.9570  -18.4840 C.3    96  VAL96       0.0019
     35  CG2      -44.8900   28.7050  -17.6690 C.3    96  VAL96       0.0019
     36  N        -53.6880   28.9840  -18.1900 N.3   115  LEU115     -0.1245
     37  CA       -53.4610   29.2510  -19.6100 C.3   115  LEU115      0.1561
     38  C        -54.5190   28.5360  -20.4830 C.2   115  LEU115      0.2260
     39  O        -54.9160   27.3830  -20.1900 O.2   115  LEU115     -0.2867
     40  CB       -52.0460   28.8450  -20.0130 C.3   115  LEU115      0.0270
     41  CG       -51.5530   29.3380  -21.3570 C.3   115  LEU115      0.0019
     42  CD1      -51.3220   30.8250  -21.2990 C.3   115  LEU115      0.0001
     43  CD2      -50.2850   28.6280  -21.7200 C.3   115  LEU115      0.0001
     44  N        -48.6560   25.4890  -29.9780 N.3   149  ARG149     -0.1231
     45  CA       -48.3520   24.7950  -28.7620 C.3   149  ARG149      0.1694
     46  C        -49.4200   24.9730  -27.6800 C.2   149  ARG149      0.2592
     47  O        -49.9480   24.0030  -27.1540 O.2   149  ARG149     -0.2718
     48  CB       -46.9690   25.2300  -28.2650 C.3   149  ARG149      0.0321
     49  CG       -46.4690   24.4520  -27.0610 C.3   149  ARG149      0.0489
     50  CD       -45.1080   24.9310  -26.6010 C.3   149  ARG149      0.2205
     51  NE       -45.1190   25.5300  -25.2630 N.pl3 149  ARG149     -0.0865
     52  CZ       -44.1030   26.2400  -24.7590 C.cat 149  ARG149      0.5346
     53  NH1      -42.9970   26.4450  -25.4790 N.pl3 149  ARG149      0.1354
     54  NH2      -44.1800   26.7460  -23.5360 N.pl3 149  ARG149      0.1354
     55  N        -49.6890   26.2210  -27.3180 N.am  150  ASN150     -0.1974
     56  CA       -50.7270   26.5590  -26.3460 C.3   150  ASN150      0.1688
     57  C        -51.6150   27.5770  -26.9850 C.2   150  ASN150      0.2292
     58  O        -52.7430   27.7770  -26.5390 O.2   150  ASN150     -0.2864
     59  CB       -50.1260   27.1680  -25.0640 C.3   150  ASN150      0.1181
     60  CG       -49.2810   26.1880  -24.2980 C.2   150  ASN150      0.2629
     61  OD1      -49.7630   25.5130  -23.3800 O.2   150  ASN150     -0.2716
     62  ND2      -48.0140   26.0790  -24.6810 N.am  150  ASN150     -0.0877
     63  N        -51.2270   36.5960  -24.1450 N.3   178  MET178     -0.1245
     64  CA       -49.7920   36.3630  -24.2690 C.3   178  MET178      0.1570
     65  C        -49.4370   35.4650  -25.4530 C.2   178  MET178      0.2261
     66  O        -50.3100   34.8360  -26.0680 O.2   178  MET178     -0.2867
     67  CB       -49.2260   35.8040  -22.9650 C.3   178  MET178      0.0387
     68  CG       -49.9650   34.5990  -22.4060 C.3   178  MET178      0.0595
     69  SD       -49.5680   33.0190  -23.2190 S.3   178  MET178     -0.1393
     70  CE       -47.7690   33.0120  -23.3080 C.3   178  MET178      0.0692
     71  N        -45.6220   33.1900  -26.8760 N.3   180  HIS180     -0.1241
     72  CA       -44.2350   32.9280  -26.6310 C.3   180  HIS180      0.1621
     73  C        -43.4280   32.7820  -27.9530 C.2   180  HIS180      0.2264
     74  O        -43.9820   32.4030  -29.0200 O.2   180  HIS180     -0.2867
     75  CB       -44.1050   31.7090  -25.7640 C.3   180  HIS180      0.0745
     76  CG       -42.7760   31.5810  -25.1370 C.ar  180  HIS180      0.0817
     77  ND1      -42.0990   30.3770  -25.0680 N.ar  180  HIS180     -0.2268
     78  CD2      -41.9590   32.5140  -24.5940 C.ar  180  HIS180      0.1154
     79  CE1      -40.9350   30.5690  -24.4720 C.ar  180  HIS180      0.1986
     80  NE2      -40.8250   31.8570  -24.1770 N.ar  180  HIS180     -0.2212
     81  N        -34.6990   32.3240  -30.7010 N.3   184  GLU184     -0.1245
     82  CA       -33.8720   33.2990  -30.0100 C.3   184  GLU184      0.1567
     83  C        -33.0550   34.0370  -31.0610 C.2   184  GLU184      0.2260
     84  O        -31.9590   33.5990  -31.4380 O.2   184  GLU184     -0.2867
     85  CB       -32.9850   32.6200  -28.9820 C.3   184  GLU184      0.0388
     86  CG       -33.7750   31.7600  -28.0090 C.3   184  GLU184      0.1160
     87  CD       -33.1520   31.7010  -26.6280 C.2   184  GLU184      0.3649
     88  OE1      -31.9170   31.5240  -26.5300 O.co2 184  GLU184     -0.2457
     89  OE2      -33.8980   31.8290  -25.6390 O.co2 184  GLU184     -0.2457
     90  N        -39.9920   36.2050  -23.2950 N.3   220  ASN220     -0.1225
     91  CA       -39.2060   35.3410  -22.4150 C.3   220  ASN220      0.1785
     92  C        -37.9900   36.1120  -21.8600 C.2   220  ASN220      0.2598
     93  O        -37.9470   37.3430  -21.9090 O.2   220  ASN220     -0.2718
     94  CB       -38.7400   34.0870  -23.1910 C.3   220  ASN220      0.1169
     95  CG       -38.0170   34.4300  -24.5460 C.2   220  ASN220      0.2627
     96  OD1      -37.2660   35.4040  -24.6480 O.2   220  ASN220     -0.2716
     97  ND2      -38.2440   33.6070  -25.5570 N.am  220  ASN220     -0.0877
     98  N        -36.9830   35.3760  -21.3900 N.am  221  SER221     -0.1938
     99  CA       -35.6640   35.9450  -21.1110 C.3   221  SER221      0.2055
    100  C        -34.9750   36.5260  -22.3610 C.2   221  SER221      0.2643
    101  O        -34.9690   37.7230  -22.5320 O.2   221  SER221     -0.2714
    102  CB       -34.7770   34.9220  -20.4500 C.3   221  SER221      0.2130
    103  OG       -34.1120   35.5130  -19.3790 O.3   221  SER221     -0.2179
    104  N        -34.4240   35.6990  -23.2480 N.am  222  PHE222     -0.1973
    105  CA       -33.7710   36.2600  -24.4700 C.3   222  PHE222      0.1639
    106  C        -34.4730   37.4940  -25.0860 C.2   222  PHE222      0.2290
    107  O        -33.8020   38.4480  -25.5500 O.2   222  PHE222     -0.2864
    108  CB       -33.5940   35.2200  -25.5830 C.3   222  PHE222      0.0560
    109  CG       -33.1550   35.8270  -26.9130 C.ar  222  PHE222     -0.0200
    110  CD1      -34.0700   36.4300  -27.7540 C.ar  222  PHE222     -0.0042
    111  CD2      -31.8130   35.8210  -27.2960 C.ar  222  PHE222     -0.0042
    112  CE1      -33.6470   37.0070  -28.9620 C.ar  222  PHE222     -0.0003
    113  CE2      -31.3970   36.3810  -28.5260 C.ar  222  PHE222     -0.0003
    114  CZ       -32.3030   36.9710  -29.3370 C.ar  222  PHE222     -0.0000
    115  N        -41.4420   37.3920  -18.7320 N.3   236  ARG236     -0.1231
    116  CA       -41.5260   36.0550  -18.2390 C.3   236  ARG236      0.1694
    117  C        -40.1690   35.4340  -18.3960 C.2   236  ARG236      0.2593
    118  O        -39.8130   34.9280  -19.4820 O.2   236  ARG236     -0.2718
    119  CB       -42.5690   35.2780  -19.0480 C.3   236  ARG236      0.0321
    120  CG       -43.9010   35.0370  -18.3350 C.3   236  ARG236      0.0489
    121  CD       -44.7910   34.0920  -19.1750 C.3   236  ARG236      0.2205
    122  NE       -45.3090   34.7720  -20.3680 N.pl3 236  ARG236     -0.0865
    123  CZ       -44.8860   34.5770  -21.6110 C.cat 236  ARG236      0.5346
    124  NH1      -43.9470   33.6910  -21.8810 N.pl3 236  ARG236      0.1354
    125  NH2      -45.4360   35.2660  -22.5830 N.pl3 236  ARG236      0.1354
    126  N        -39.4010   35.4780  -17.3200 N.am  237  THR237     -0.1939
    127  CA       -38.0160   35.0570  -17.3670 C.3   237  THR237      0.2028
    128  C        -37.6900   33.8800  -16.4190 C.2   237  THR237      0.2643
    129  O        -38.1410   33.8430  -15.2470 O.2   237  THR237     -0.2714
    130  CB       -37.0780   36.2500  -17.1350 C.3   237  THR237      0.1808
    131  OG1      -37.2840   36.7830  -15.8380 O.3   237  THR237     -0.2208
    132  CG2      -37.3910   37.3460  -18.1100 C.3   237  THR237      0.0379
    133  N        -36.9800   32.8890  -16.9540 N.am  238  GLY238     -0.1939
    134  CA       -36.3680   31.8480  -16.1390 C.3   238  GLY238      0.2014
    135  C        -34.8470   31.9610  -16.2630 C.2   238  GLY238      0.2639
    136  O        -34.1670   32.4520  -15.3480 O.2   238  GLY238     -0.2714
    137  N        -34.3290   31.5610  -17.4330 N.am  239  GLY239     -0.1954
    138  CA       -32.8840   31.5410  -17.7310 C.3   239  GLY239      0.1869
    139  C        -32.0810   32.6520  -17.1080 C.2   239  GLY239      0.2309
    140  O        -31.1000   32.4050  -16.4070 O.2   239  GLY239     -0.2863
    141  N        -28.6670   31.3560  -16.9300 N.3   244  ASP244     -0.1225
    142  CA       -28.5720   30.6140  -18.1860 C.3   244  ASP244      0.1805
    143  C        -29.4220   31.2930  -19.2390 C.2   244  ASP244      0.2598
    144  O        -30.5940   30.9600  -19.4290 O.2   244  ASP244     -0.2718
    145  CB       -28.9980   29.1440  -18.0360 C.3   244  ASP244      0.1424
    146  CG       -29.1470   28.4440  -19.3770 C.2   244  ASP244      0.3668
    147  OD1      -28.8790   29.1010  -20.3960 O.co2 244  ASP244     -0.2456
    148  OD2      -29.5420   27.2550  -19.4260 O.co2 244  ASP244     -0.2456
    149  N        -28.8140   32.2430  -19.9260 N.am  245  THR245     -0.1953
    150  CA       -29.4980   33.0180  -20.9340 C.3   245  THR245      0.1897
    151  C        -28.4490   33.3720  -22.0110 C.2   245  THR245      0.2313
    152  O        -27.4730   32.6390  -22.1580 O.2   245  THR245     -0.2863
    153  CB       -30.2350   34.2530  -20.2900 C.3   245  THR245      0.1794
    154  OG1      -30.7590   35.0900  -21.3190 O.3   245  THR245     -0.2208
    155  CG2      -29.3180   35.0610  -19.3680 C.3   245  THR245      0.0378
    156  N        -30.0100   21.5560  -25.4400 N.3   366  LEU366     -0.1245
    157  CA       -29.6850   22.6120  -24.4800 C.3   366  LEU366      0.1561
    158  C        -29.3640   22.0510  -23.0710 C.2   366  LEU366      0.2260
    159  O        -29.8490   20.9840  -22.6860 O.2   366  LEU366     -0.2867
    160  CB       -30.8090   23.6440  -24.4160 C.3   366  LEU366      0.0270
    161  CG       -31.9310   23.4300  -23.4000 C.3   366  LEU366      0.0019
    162  CD1      -32.9460   24.5970  -23.4670 C.3   366  LEU366      0.0001
    163  CD2      -32.6390   22.0880  -23.5810 C.3   366  LEU366      0.0001
    164  N        -30.4000   22.8580  -20.1350 N.3   368  ALA368     -0.1245
    165  CA       -31.6260   22.5770  -19.3840 C.3   368  ALA368      0.1562
    166  C        -32.1680   21.1140  -19.5650 C.2   368  ALA368      0.2260
    167  O        -32.9140   20.5960  -18.7500 O.2   368  ALA368     -0.2867
    168  CB       -32.6950   23.6180  -19.7140 C.3   368  ALA368      0.0290
@<TRIPOS>BOND
     1    84    83    2
     2    83    82    1
     3    81    82    1
     4    82    85    1
     5    44    45    1
     6   114   112   ar
     7   114   113   ar
     8    74    73    2
     9    85    86    1
    10   112   110   ar
    11    45    48    1
    12    45    46    1
    13   113   111   ar
    14    48    49    1
    15    86    87    1
    16    73    72    1
    17   110   109   ar
    18    46    55   am
    19    46    47    2
    20    55    56    1
    21   111   109   ar
    22    49    50    1
    23    57    58    2
    24    57    56    1
    25   109   108    1
    26    71    72    1
    27    72    75    1
    28    87    88   ar
    29    87    89   ar
    30    50    51    1
    31    56    59    1
    32    66    65    2
    33    75    76    1
    34   108   105    1
    35    97    95   am
    36   107   106    2
    37    53    52    1
    38    65    64    1
    39   156   157    1
    40    51    52    2
    41    76    77   ar
    42    76    78   ar
    43   106   105    1
    44    77    79   ar
    45    59    60    1
    46    52    54    1
    47    62    60   am
    48    96    95    2
    49    78    80   ar
    50    95    94    1
    51   157   160    1
    52   157   158    1
    53    79    80   ar
    54   105   104    1
    55   160   161    1
    56    60    61    2
    57    64    63    1
    58    64    67    1
    59   163   161    1
    60   162   161    1
    61    70    69    1
    62    90    91    1
    63   104   100   am
    64    69    68    1
    65    94    91    1
    66   158   159    2
    67    67    68    1
    68   125   123    1
    69   101   100    2
    70    91    92    1
    71   100    99    1
    72   152   151    2
    73   151   150    1
    74    93    92    2
    75   124   123    1
    76    92    98   am
    77    43    41    1
    78   123   122    2
    79    98    99    1
    80    41    42    1
    81    41    40    1
    82   154   153    1
    83    99   102    1
    84   150   153    1
    85   150   149    1
    86    38    39    2
    87    38    37    1
    88   102   103    1
    89   147   146   ar
    90   122   121    1
    91    32    31    2
    92   153   155    1
    93   164   165    1
    94    40    37    1
    95   149   143   am
    96   168   165    1
    97    37    36    1
    98   166   165    1
    99   166   167    2
   100   118   117    2
   101    16    15    1
   102   144   143    2
   103   148   146   ar
   104   146   145    1
   105    31    30    1
   106   143   142    1
   107   121   120    1
   108   119   120    1
   109   119   116    1
   110   115   116    1
   111    33    34    1
   112    33    30    1
   113    33    35    1
   114    28    27    1
   115    30    29    1
   116   117   116    1
   117   117   126   am
   118   142   145    1
   119   142   141    1
   120    15    14    1
   121   132   130    1
   122   138   137    1
   123   138   139    1
   124    26    27   ar
   125    26    24   ar
   126    27    25   ar
   127   137   135   am
   128   127   126    1
   129   127   130    1
   130   127   128    1
   131   130   131    1
   132    14    13    1
   133   139   140    2
   134   133   128   am
   135   133   134    1
   136     7     5    1
   137     6     5    1
   138    24    22   ar
   139   128   129    2
   140    25    23   ar
   141   135   134    1
   142   135   136    2
   143     5     2    1
   144    13    12    1
   145    22    23   ar
   146    22    21    1
   147    12     9    1
   148     2     1    1
   149     2     3    1
   150    21    18    1
   151     4     3    2
   152    18    19    1
   153    18    17    1
   154    11    10    2
   155    10     9    1
   156     9     8    1
   157    20    19    2
