@<TRIPOS>MOLECULE
tmp/4fsaA00.pdb
 156 146 0 0 0
SMALL
GASTEIGER

@<TRIPOS>ATOM
      1  N         10.3980    9.6410   12.0120 N.3    35  VAL35      -0.1245
      2  CA         9.6830   10.5890   12.8500 C.3    35  VAL35       0.1561
      3  C          8.2530   10.8130   12.4030 C.2    35  VAL35       0.2260
      4  O          7.9810   11.0680   11.2290 O.2    35  VAL35      -0.2867
      5  CB        10.4590   11.9190   12.8210 C.3    35  VAL35       0.0252
      6  CG1        9.6810   13.0260   13.5040 C.3    35  VAL35       0.0019
      7  CG2       11.8110   11.7260   13.4990 C.3    35  VAL35       0.0019
      8  N          9.1510    7.4530   16.0510 N.3    56  LEU56      -0.1245
      9  CA         9.1140    8.4640   17.1270 C.3    56  LEU56       0.1561
     10  C          7.8460    9.2900   17.0230 C.2    56  LEU56       0.2260
     11  O          7.3980    9.6670   15.9430 O.2    56  LEU56      -0.2867
     12  CB        10.3960    9.2840   17.0700 C.3    56  LEU56       0.0270
     13  CG        10.6630   10.4120   18.0560 C.3    56  LEU56       0.0019
     14  CD1       12.1450   10.6510   18.2050 C.3    56  LEU56       0.0001
     15  CD2       10.0040   11.7050   17.5870 C.3    56  LEU56       0.0001
     16  N          5.8630   12.9390   19.0380 N.3    58  ASN58      -0.1240
     17  CA         6.3080   14.1090   19.8010 C.3    58  ASN58       0.1653
     18  C          5.3840   14.5280   20.9320 C.2    58  ASN58       0.2266
     19  O          4.1750   14.5850   20.7160 O.2    58  ASN58      -0.2867
     20  CB         6.4490   15.2740   18.8160 C.3    58  ASN58       0.1155
     21  CG         7.8350   15.3520   18.1910 C.2    58  ASN58       0.2627
     22  OD1        8.8400   15.0750   18.8440 O.2    58  ASN58      -0.2716
     23  ND2        7.8940   15.7410   16.9250 N.am   58  ASN58      -0.0877
     24  N          9.5470   11.9610   22.2500 N.3    90  ASP90      -0.1225
     25  CA        10.4390   12.9700   22.8430 C.3    90  ASP90       0.1805
     26  C          9.6010   13.7160   23.8780 C.2    90  ASP90       0.2598
     27  O          8.3690   13.6190   23.9070 O.2    90  ASP90      -0.2718
     28  CB        11.0510   13.8830   21.8060 C.3    90  ASP90       0.1424
     29  CG        12.2570   14.6500   22.3110 C.2    90  ASP90       0.3668
     30  OD1       12.6720   14.5420   23.4850 O.co2  90  ASP90      -0.2456
     31  OD2       12.8120   15.4250   21.5060 O.co2  90  ASP90      -0.2456
     32  N         10.2920   14.4350   24.7370 N.am   91  SER91      -0.1952
     33  CA         9.6870   14.9730   25.9510 C.3    91  SER91       0.1924
     34  C          9.0390   16.3390   25.7900 C.2    91  SER91       0.2314
     35  O          8.3570   16.7830   26.7260 O.2    91  SER91      -0.2863
     36  CB        10.7630   15.0030   27.0440 C.3    91  SER91       0.2116
     37  OG        11.9080   15.7690   26.7090 O.3    91  SER91      -0.2180
     38  N         12.7350   20.3030   23.4910 N.3    93  TYR93      -0.1241
     39  CA        13.2440   20.7100   22.1860 C.3    93  TYR93       0.1605
     40  C         12.1270   21.3390   21.3600 C.2    93  TYR93       0.2264
     41  O         10.9870   20.8770   21.3560 O.2    93  TYR93      -0.2867
     42  CB        13.8750   19.5300   21.4350 C.3    93  TYR93       0.0534
     43  CG        14.7050   19.9390   20.2370 C.ar   93  TYR93      -0.0201
     44  CD1       14.1540   19.9360   18.9580 C.ar   93  TYR93      -0.0009
     45  CD2       16.0320   20.3320   20.3600 C.ar   93  TYR93      -0.0009
     46  CE1       14.8980   20.3090   17.8500 C.ar   93  TYR93       0.0417
     47  CE2       16.7810   20.7080   19.2560 C.ar   93  TYR93       0.0417
     48  CZ        16.2120   20.6960   18.0040 C.ar   93  TYR93       0.1957
     49  OH        16.9520   21.0660   16.9020 O.3    93  TYR93      -0.2866
     50  N         14.0980   17.5980   29.4930 N.3   122  ASP122     -0.1225
     51  CA        15.3780   18.2380   29.5730 C.3   122  ASP122      0.1805
     52  C         15.3300   19.6620   29.0430 C.2   122  ASP122      0.2597
     53  O         14.3560   20.0920   28.4590 O.2   122  ASP122     -0.2718
     54  CB        16.4180   17.4190   28.8010 C.3   122  ASP122      0.1424
     55  CG        16.1450   17.3320   27.3170 C.2   122  ASP122      0.3668
     56  OD1       14.9700   17.2840   26.8850 O.co2 122  ASP122     -0.2456
     57  OD2       17.1130   17.2670   26.5390 O.co2 122  ASP122     -0.2456
     58  N         16.4110   20.4080   29.2990 N.am  123  GLU123     -0.1979
     59  CA        16.4630   21.7620   28.7410 C.3   123  GLU123      0.1602
     60  C         17.3720   21.7650   27.5140 C.2   123  GLU123      0.2287
     61  O         18.4880   21.2290   27.6210 O.2   123  GLU123     -0.2864
     62  CB        16.9580   22.7240   29.8140 C.3   123  GLU123      0.0415
     63  CG        16.6620   24.1870   29.5300 C.3   123  GLU123      0.1163
     64  CD        17.1550   25.0920   30.6420 C.2   123  GLU123      0.3649
     65  OE1       16.3410   25.8740   31.1680 O.co2 123  GLU123     -0.2457
     66  OE2       18.3550   25.0200   30.9710 O.co2 123  GLU123     -0.2457
     67  N         18.8050   11.9480   29.3180 N.3   166  ILE166     -0.1245
     68  CA        19.4740   12.6800   28.2440 C.3   166  ILE166      0.1561
     69  C         20.6670   13.4570   28.7710 C.2   166  ILE166      0.2260
     70  O         20.5470   14.3230   29.6510 O.2   166  ILE166     -0.2867
     71  CB        18.4990   13.6440   27.5360 C.3   166  ILE166      0.0252
     72  CG1       17.2070   12.9530   27.0700 C.3   166  ILE166      0.0019
     73  CG2       19.2460   14.3700   26.4340 C.3   166  ILE166      0.0019
     74  CD1       16.1880   13.9180   26.5010 C.3   166  ILE166      0.0001
     75  N         23.4120   16.2790   28.5820 N.3   168  GLN168     -0.1245
     76  CA        23.7260   17.6220   28.2250 C.3   168  GLN168      0.1566
     77  C         25.1630   17.9560   28.5840 C.2   168  GLN168      0.2260
     78  O         25.9930   17.0800   28.8700 O.2   168  GLN168     -0.2867
     79  CB        22.6680   18.5310   28.8700 C.3   168  GLN168      0.0367
     80  CG        21.2630   18.1650   28.3960 C.3   168  GLN168      0.0905
     81  CD        21.0410   18.4600   26.9310 C.2   168  GLN168      0.2608
     82  OE1       21.8670   19.1320   26.2990 O.2   168  GLN168     -0.2717
     83  NE2       19.9370   17.9910   26.3740 N.am  168  GLN168     -0.0878
     84  N         22.1220   14.3200   24.2550 N.3   194  GLY194     -0.1210
     85  CA        21.3850   15.5020   23.8830 C.3   194  GLY194      0.1956
     86  C         22.3370   16.6040   23.4630 C.2   194  GLY194      0.2612
     87  O         23.5610   16.5430   23.5850 O.2   194  GLY194     -0.2717
     88  N         21.7340   17.6660   22.9450 N.am  195  GLY195     -0.1942
     89  CA        22.4550   18.9140   22.7930 C.3   195  GLY195      0.2014
     90  C         23.4110   18.9200   21.6220 C.2   195  GLY195      0.2639
     91  O         24.2870   19.7820   21.5360 O.2   195  GLY195     -0.2714
     92  N         23.2730   17.9850   20.6900 N.am  196  LEU196     -0.1963
     93  CA        24.0800   18.0150   19.4690 C.3   196  LEU196      0.1728
     94  C         23.1690   18.1530   18.2540 C.2   196  LEU196      0.2616
     95  O         21.9430   18.1840   18.3210 O.2   196  LEU196     -0.2715
     96  CB        24.9960   16.7970   19.3830 C.3   196  LEU196      0.0311
     97  CG        26.1070   16.7000   20.4400 C.3   196  LEU196      0.0022
     98  CD1       26.8090   15.3510   20.4400 C.3   196  LEU196      0.0001
     99  CD2       27.1290   17.8120   20.2200 C.3   196  LEU196      0.0001
    100  N         23.8020   18.2520   17.0980 N.am  197  ALA197     -0.1963
    101  CA        23.0580   18.5830   15.8850 C.3   197  ALA197      0.1728
    102  C         22.2440   19.8480   16.0990 C.2   197  ALA197      0.2616
    103  O         21.0740   19.9500   15.7370 O.2   197  ALA197     -0.2715
    104  CB        22.1830   17.4080   15.4720 C.3   197  ALA197      0.0334
    105  N         22.8500   20.8620   16.7290 N.am  198  VAL198     -0.1977
    106  CA        22.1660   22.1200   16.9590 C.3   198  VAL198      0.1596
    107  C         22.9320   23.3020   16.3560 C.2   198  VAL198      0.2287
    108  O         22.6410   24.4460   16.7060 O.2   198  VAL198     -0.2864
    109  CB        22.0160   22.4320   18.4630 C.3   198  VAL198      0.0276
    110  CG1       21.0980   21.4420   19.1370 C.3   198  VAL198      0.0022
    111  CG2       23.4140   22.4330   19.0480 C.3   198  VAL198      0.0022
    112  N         21.4340    6.7700   22.5170 N.3   223  TYR223     -0.1241
    113  CA        20.5810    7.3650   21.4830 C.3   223  TYR223      0.1605
    114  C         21.0990    8.7530   21.1280 C.2   223  TYR223      0.2264
    115  O         21.1730    9.5990   22.0020 O.2   223  TYR223     -0.2867
    116  CB        19.1570    7.3300   22.0180 C.3   223  TYR223      0.0534
    117  CG        18.1040    8.1420   21.3410 C.ar  223  TYR223     -0.0201
    118  CD1       18.0620    8.4810   20.0020 C.ar  223  TYR223     -0.0009
    119  CD2       17.0380    8.6020   22.1170 C.ar  223  TYR223     -0.0009
    120  CE1       17.0720    9.2290   19.4100 C.ar  223  TYR223      0.0417
    121  CE2       16.0330    9.3590   21.5320 C.ar  223  TYR223      0.0417
    122  CZ        16.0440    9.6710   20.2140 C.ar  223  TYR223      0.1957
    123  OH        15.0350   10.4200   19.6820 O.3   223  TYR223     -0.2866
    124  N         20.0920   12.0310   19.5880 N.3   225  MET225     -0.1230
    125  CA        18.8610   12.7130   19.2070 C.3   225  MET225      0.1702
    126  C         19.0410   13.6580   18.0230 C.2   225  MET225      0.2592
    127  O         19.9350   14.5080   18.0150 O.2   225  MET225     -0.2718
    128  CB        18.3130   13.4790   20.4320 C.3   225  MET225      0.0401
    129  CG        18.2020   12.5420   21.6400 C.3   225  MET225      0.0596
    130  SD        17.3330   13.3510   23.0200 S.3   225  MET225     -0.1393
    131  CE        15.6520   13.1070   22.5090 C.3   225  MET225      0.0692
    132  N         18.1720   13.4900   17.0450 N.am  226  GLY226     -0.1957
    133  CA        18.0840   14.3340   15.8700 C.3   226  GLY226      0.1869
    134  C         19.1380   14.1610   14.8000 C.2   226  GLY226      0.2309
    135  O         19.3030   14.9950   13.9110 O.2   226  GLY226     -0.2863
    136  N         17.1640    9.2560   15.3910 N.3   245  ASP245     -0.1225
    137  CA        15.9390    9.7470   14.7950 C.3   245  ASP245      0.1805
    138  C         16.2600   11.0170   14.0130 C.2   245  ASP245      0.2598
    139  O         17.1460   11.7690   14.4080 O.2   245  ASP245     -0.2718
    140  CB        14.8410   10.1160   15.7770 C.3   245  ASP245      0.1424
    141  CG        15.0760   11.4770   16.4070 C.2   245  ASP245      0.3668
    142  OD1       15.8640   11.5770   17.3760 O.co2 245  ASP245     -0.2456
    143  OD2       14.4850   12.4770   15.9460 O.co2 245  ASP245     -0.2456
    144  N         15.5360   11.2750   12.9190 N.am  246  CYS246     -0.1956
    145  CA        15.8070   12.5150   12.1940 C.3   246  CYS246      0.1843
    146  C         14.6850   12.7930   11.2100 C.2   246  CYS246      0.2625
    147  O         14.1760   11.8390   10.6240 O.2   246  CYS246     -0.2714
    148  CB        17.1600   12.3810   11.5020 C.3   246  CYS246      0.0997
    149  SG        17.7150   13.8570   10.6230 S.3   246  CYS246     -0.0797
    150  N         14.3310   14.0540   10.9800 N.am  247  VAL247     -0.1977
    151  CA        13.2910   14.3050    9.9860 C.3   247  VAL247      0.1596
    152  C         13.8000   14.3730    8.5640 C.2   247  VAL247      0.2287
    153  O         12.9910   14.5110    7.6490 O.2   247  VAL247     -0.2864
    154  CB        12.5470   15.6240   10.2680 C.3   247  VAL247      0.0276
    155  CG1       11.8350   15.5400   11.6060 C.3   247  VAL247      0.0022
    156  CG2       13.5380   16.7830   10.2110 C.3   247  VAL247      0.0022
@<TRIPOS>BOND
     1   153   152    2
     2   152   151    1
     3   151   154    1
     4   151   150    1
     5   156   154    1
     6   154   155    1
     7   149   148    1
     8   147   146    2
     9   150   146   am
    10   146   145    1
    11     4     3    2
    12   148   145    1
    13     1     2    1
    14   145   144    1
    15     3     2    1
    16     5     2    1
    17     5     7    1
    18     5     6    1
    19   144   138   am
    20   135   134    2
    21   138   139    2
    22   138   137    1
    23   137   136    1
    24   137   140    1
    25   134   133    1
    26   104   101    1
    27   103   102    2
    28   140   141    1
    29   133   132    1
    30   101   102    1
    31   101   100    1
    32    11    10    2
    33   143   141   ar
    34     8     9    1
    35   102   105   am
    36   107   108    2
    37   107   106    1
    38   141   142   ar
    39   105   106    1
    40    49    48    1
    41    23    21   am
    42   106   109    1
    43    10     9    1
    44   132   126   am
    45    12     9    1
    46    12    13    1
    47   100    94   am
    48    15    13    1
    49    46    48   ar
    50    46    44   ar
    51    48    47   ar
    52   127   126    2
    53   126   125    1
    54    13    14    1
    55    21    20    1
    56    21    22    2
    57    94    95    2
    58    94    93    1
    59   109   111    1
    60   109   110    1
    61    20    17    1
    62    44    43   ar
    63    16    17    1
    64   125   124    1
    65   125   128    1
    66    47    45   ar
    67    96    93    1
    68    96    97    1
    69   120   118   ar
    70   120   122   ar
    71    93    92    1
    72   123   122    1
    73    17    18    1
    74   118   117   ar
    75   122   121   ar
    76    99    97    1
    77    43    45   ar
    78    43    42    1
    79   128   129    1
    80    97    98    1
    81    92    90   am
    82    19    18    2
    83   114   113    1
    84   114   115    2
    85   117   116    1
    86   117   119   ar
    87    41    40    2
    88    40    39    1
    89    42    39    1
    90   113   116    1
    91   113   112    1
    92    31    29   ar
    93   121   119   ar
    94    91    90    2
    95    90    89    1
    96   129   130    1
    97    28    29    1
    98    28    25    1
    99    39    38    1
   100    24    25    1
   101    29    30   ar
   102   131   130    1
   103    89    88    1
   104    25    26    1
   105    88    86   am
   106    86    87    2
   107    86    85    1
   108    26    27    2
   109    26    32   am
   110    85    84    1
   111    32    33    1
   112    34    33    1
   113    34    35    2
   114    33    36    1
   115    82    81    2
   116    83    81   am
   117    73    71    1
   118    74    72    1
   119    57    55   ar
   120    37    36    1
   121    56    55   ar
   122    81    80    1
   123    72    71    1
   124    55    54    1
   125    60    61    2
   126    60    59    1
   127    71    68    1
   128    76    75    1
   129    76    77    1
   130    76    79    1
   131    68    69    1
   132    68    67    1
   133    80    79    1
   134    53    52    2
   135    77    78    2
   136    59    58    1
   137    59    62    1
   138    69    70    2
   139    54    51    1
   140    52    58   am
   141    52    51    1
   142    50    51    1
   143    63    62    1
   144    63    64    1
   145    64    66   ar
   146    64    65   ar
