@<TRIPOS>MOLECULE
tmp/4fseA00.pdb
 210 198 0 0 0
SMALL
GASTEIGER

@<TRIPOS>ATOM
      1  N          6.2480   11.2260   34.0670 N.3    14  GLN14      -0.1231
      2  CA         5.4500   10.0390   34.3660 C.3    14  GLN14       0.1698
      3  C          4.6150   10.1960   35.6310 C.2    14  GLN14       0.2592
      4  O          3.9030    9.2720   36.0270 O.2    14  GLN14      -0.2718
      5  CB         6.3390    8.8030   34.4710 C.3    14  GLN14       0.0381
      6  CG         6.9220    8.3490   33.1290 C.3    14  GLN14       0.0905
      7  CD         7.9780    7.2580   33.2890 C.2    14  GLN14       0.2608
      8  OE1        8.8670    7.3510   34.1450 O.2    14  GLN14      -0.2717
      9  NE2        7.8800    6.2160   32.4690 N.am   14  GLN14      -0.0878
     10  N          4.7060   11.3700   36.2520 N.am   15  GLY15      -0.1957
     11  CA         3.9220   11.7060   37.4400 C.3    15  GLY15       0.1869
     12  C          4.5680   11.3100   38.7570 C.2    15  GLY15       0.2309
     13  O          5.3950   10.4010   38.7950 O.2    15  GLY15      -0.2863
     14  N         -0.6540    7.6340   41.7110 N.3    32  LEU32      -0.1245
     15  CA        -0.3540    8.9450   41.1630 C.3    32  LEU32       0.1561
     16  C         -1.1320   10.0440   41.8850 C.2    32  LEU32       0.2260
     17  O         -2.3620    9.9910   41.9720 O.2    32  LEU32      -0.2867
     18  CB        -0.6650    8.9800   39.6590 C.3    32  LEU32       0.0270
     19  CG        -0.7420   10.3690   39.0150 C.3    32  LEU32       0.0019
     20  CD1        0.6290   11.0170   38.9180 C.3    32  LEU32       0.0001
     21  CD2       -1.3530   10.2470   37.6490 C.3    32  LEU32       0.0001
     22  N         -2.7910   13.4240   42.0000 N.3    34  ASP34      -0.1239
     23  CA        -3.3630   14.2310   40.9300 C.3    34  ASP34       0.1674
     24  C         -4.3480   15.3210   41.3800 C.2    34  ASP34       0.2266
     25  O         -5.4910   15.0260   41.7210 O.2    34  ASP34      -0.2867
     26  CB        -4.0090   13.3320   39.8840 C.3    34  ASP34       0.1410
     27  CG        -4.5670   14.1170   38.7440 C.2    34  ASP34       0.3668
     28  OD1       -4.0500   15.2230   38.5060 O.co2  34  ASP34      -0.2456
     29  OD2       -5.5210   13.6580   38.0860 O.co2  34  ASP34      -0.2456
     30  N         -5.6150   17.5440   39.4860 N.3    36  GLY36      -0.1210
     31  CA        -6.4020   17.9230   38.3150 C.3    36  GLY36       0.1956
     32  C         -7.5670   17.0040   37.9850 C.2    36  GLY36       0.2612
     33  O         -8.1790   17.1320   36.9200 O.2    36  GLY36      -0.2717
     34  N         -7.8700   16.0690   38.8890 N.am   37  SER37      -0.1952
     35  CA        -9.0610   15.2070   38.7790 C.3    37  SER37       0.1924
     36  C         -9.6100   14.8980   40.1730 C.2    37  SER37       0.2314
     37  O         -9.0370   15.3490   41.1770 O.2    37  SER37      -0.2863
     38  CB        -8.7620   13.9180   38.0110 C.3    37  SER37       0.2116
     39  OG        -7.8660   13.0930   38.7250 O.3    37  SER37      -0.2180
     40  N        -10.3760   11.5040   28.6780 N.3    73  TYR73      -0.1227
     41  CA        -9.6150   12.7450   28.4830 C.3    73  TYR73       0.1736
     42  C         -9.1580   12.8100   27.0290 C.2    73  TYR73       0.2596
     43  O         -9.2550   11.8180   26.2900 O.2    73  TYR73      -0.2718
     44  CB        -8.3820   12.7970   29.3850 C.3    73  TYR73       0.0548
     45  CG        -8.6310   12.5130   30.8380 C.ar   73  TYR73      -0.0200
     46  CD1       -8.9670   13.5340   31.7100 C.ar   73  TYR73      -0.0009
     47  CD2       -8.5140   11.2220   31.3450 C.ar   73  TYR73      -0.0009
     48  CE1       -9.1920   13.2820   33.0540 C.ar   73  TYR73       0.0417
     49  CE2       -8.7330   10.9550   32.6930 C.ar   73  TYR73       0.0417
     50  CZ        -9.0680   11.9940   33.5400 C.ar   73  TYR73       0.1957
     51  OH        -9.2870   11.7600   34.8730 O.3    73  TYR73      -0.2866
     52  N         -8.6550   13.9800   26.6360 N.am   74  THR74      -0.1939
     53  CA        -8.0260   14.2140   25.3260 C.3    74  THR74       0.2028
     54  C         -6.9070   13.2080   25.0270 C.2    74  THR74       0.2642
     55  O         -6.8080   12.6860   23.9090 O.2    74  THR74      -0.2714
     56  CB        -7.4020   15.6560   25.2860 C.3    74  THR74       0.1808
     57  OG1       -8.4420   16.6430   25.2290 O.3    74  THR74      -0.2208
     58  CG2       -6.4510   15.8550   24.0920 C.3    74  THR74       0.0379
     59  N         -6.0730   12.9540   26.0370 N.am   75  GLN75      -0.1963
     60  CA        -4.8450   12.1530   25.8990 C.3    75  GLN75       0.1733
     61  C         -5.0150   10.6580   26.1990 C.2    75  GLN75       0.2617
     62  O         -4.2250    9.8390   25.7190 O.2    75  GLN75      -0.2715
     63  CB        -3.7100   12.7360   26.7660 C.3    75  GLN75       0.0408
     64  CG        -3.8930   12.5740   28.2870 C.3    75  GLN75       0.0908
     65  CD        -4.8090   13.6340   28.9170 C.2    75  GLN75       0.2608
     66  OE1       -5.8000   14.0790   28.3140 O.2    75  GLN75      -0.2717
     67  NE2       -4.4740   14.0420   30.1420 N.am   75  GLN75      -0.0878
     68  N         -6.0270   10.3110   26.9950 N.am   76  GLY76      -0.1940
     69  CA        -6.3060    8.9170   27.3460 C.3    76  GLY76       0.2014
     70  C         -7.6370    8.7500   28.0680 C.2    76  GLY76       0.2638
     71  O         -8.3930    9.7130   28.2180 O.2    76  GLY76      -0.2714
     72  N         -7.9230    7.5290   28.5200 N.am   77  LYS77      -0.1977
     73  CA        -9.2070    7.2220   29.1490 C.3    77  LYS77       0.1596
     74  C         -9.1910    5.9000   29.9090 C.2    77  LYS77       0.2287
     75  O         -8.3860    5.0070   29.6270 O.2    77  LYS77      -0.2864
     76  CB       -10.3360    7.2080   28.1070 C.3    77  LYS77       0.0298
     77  CG       -10.1380    6.1970   27.0000 C.3    77  LYS77       0.0038
     78  CD       -11.1180    6.3780   25.8540 C.3    77  LYS77       0.0206
     79  CE       -10.7700    5.4120   24.7150 C.3    77  LYS77       0.1093
     80  NZ       -11.9510    4.9720   23.9190 N.3    77  LYS77      -0.1314
     81  N         -4.1830    4.1830   26.9670 N.3   109  LYS109     -0.1231
     82  CA        -3.1070    5.1780   27.1570 C.3   109  LYS109      0.1693
     83  C         -3.2050    5.9190   28.4920 C.2   109  LYS109      0.2592
     84  O         -2.9620    7.1280   28.5720 O.2   109  LYS109     -0.2718
     85  CB        -3.0540    6.1620   25.9820 C.3   109  LYS109      0.0285
     86  CG        -2.7140    5.5200   24.6520 C.3   109  LYS109      0.0035
     87  CD        -2.8430    6.5270   23.5340 C.3   109  LYS109      0.0206
     88  CE        -2.4860    5.9160   22.1890 C.3   109  LYS109      0.1093
     89  NZ        -2.3530    6.9850   21.1520 N.3   109  LYS109     -0.1314
     90  N         -3.5700    5.1850   29.5350 N.am  110  PHE110     -0.1976
     91  CA        -3.6750    5.7620   30.8560 C.3   110  PHE110      0.1639
     92  C         -2.4750    5.3340   31.6700 C.2   110  PHE110      0.2290
     93  O         -1.7210    6.1710   32.1610 O.2   110  PHE110     -0.2864
     94  CB        -4.9810    5.3340   31.5350 C.3   110  PHE110      0.0560
     95  CG        -5.1550    5.8840   32.9280 C.ar  110  PHE110     -0.0200
     96  CD1       -5.4120    7.2340   33.1300 C.ar  110  PHE110     -0.0042
     97  CD2       -5.0670    5.0470   34.0320 C.ar  110  PHE110     -0.0042
     98  CE1       -5.5720    7.7430   34.4020 C.ar  110  PHE110     -0.0003
     99  CE2       -5.2290    5.5460   35.3190 C.ar  110  PHE110     -0.0003
    100  CZ        -5.4850    6.8960   35.5050 C.ar  110  PHE110     -0.0000
    101  N          1.0710    4.3180   32.2290 N.3   112  ILE112     -0.1245
    102  CA         2.2940    4.5410   31.4720 C.3   112  ILE112      0.1561
    103  C          3.3530    3.4960   31.8290 C.2   112  ILE112      0.2260
    104  O          3.5640    3.1720   33.0060 O.2   112  ILE112     -0.2867
    105  CB         2.8390    5.9900   31.5960 C.3   112  ILE112      0.0252
    106  CG1        1.6940    6.9860   31.8310 C.3   112  ILE112      0.0019
    107  CG2        3.6340    6.3520   30.3260 C.3   112  ILE112      0.0019
    108  CD1        2.1360    8.4280   32.0480 C.3   112  ILE112      0.0001
    109  N          3.3430    3.4590   39.0370 N.3   117  TRP117     -0.1241
    110  CA         2.0670    3.6240   39.7510 C.3   117  TRP117      0.1605
    111  C          0.9600    2.7800   39.1300 C.2   117  TRP117      0.2264
    112  O          0.9910    2.4700   37.9360 O.2   117  TRP117     -0.2867
    113  CB         1.6480    5.0940   39.9130 C.3   117  TRP117      0.0550
    114  CG         1.6650    5.8970   38.6430 C.ar  117  TRP117      0.0003
    115  CD1        2.6960    6.6540   38.1710 C.ar  117  TRP117      0.0946
    116  CD2        0.6020    6.0270   37.6910 C.ar  117  TRP117      0.0152
    117  NE1        2.3470    7.2370   36.9830 N.ar  117  TRP117     -0.2442
    118  CE2        1.0650    6.8730   36.6650 C.ar  117  TRP117      0.0810
    119  CE3       -0.7000    5.5110   37.6070 C.ar  117  TRP117      0.0012
    120  CZ2        0.2730    7.2240   35.5650 C.ar  117  TRP117      0.0191
    121  CZ3       -1.4840    5.8510   36.5120 C.ar  117  TRP117      0.0001
    122  CH2       -0.9930    6.6990   35.5030 C.ar  117  TRP117      0.0015
    123  N         -4.6630    6.2710   40.4800 N.3   120  ILE120     -0.1245
    124  CA        -4.6740    7.7280   40.4890 C.3   120  ILE120      0.1561
    125  C         -5.4880    8.2330   41.6870 C.2   120  ILE120      0.2260
    126  O         -6.5430    7.6790   42.0000 O.2   120  ILE120     -0.2867
    127  CB        -5.2280    8.2730   39.1440 C.3   120  ILE120      0.0252
    128  CG1       -5.1000    9.7910   39.0720 C.3   120  ILE120      0.0019
    129  CG2       -6.6740    7.8100   38.9060 C.3   120  ILE120      0.0019
    130  CD1       -5.3100   10.3520   37.6940 C.3   120  ILE120      0.0001
    131  N        -11.9440   22.1870   39.6650 N.3   200  TYR200     -0.1241
    132  CA       -10.5010   22.0580   39.6210 C.3   200  TYR200      0.1605
    133  C         -9.9730   23.0120   40.6990 C.2   200  TYR200      0.2264
    134  O        -10.7470   23.7780   41.2880 O.2   200  TYR200     -0.2867
    135  CB        -9.9560   22.4780   38.2610 C.3   200  TYR200      0.0534
    136  CG       -10.4540   21.6710   37.1030 C.ar  200  TYR200     -0.0201
    137  CD1       -9.8430   20.4740   36.7550 C.ar  200  TYR200     -0.0009
    138  CD2      -11.5210   22.1130   36.3340 C.ar  200  TYR200     -0.0009
    139  CE1      -10.2970   19.7220   35.6760 C.ar  200  TYR200      0.0417
    140  CE2      -11.9840   21.3690   35.2490 C.ar  200  TYR200      0.0417
    141  CZ       -11.3630   20.1750   34.9290 C.ar  200  TYR200      0.1957
    142  OH       -11.8060   19.4270   33.8610 O.3   200  TYR200     -0.2866
    143  N         -9.9180   28.5790   31.5500 N.3   226  LYS226     -0.1245
    144  CA        -9.6510   28.4430   32.9850 C.3   226  LYS226      0.1561
    145  C         -8.1500   28.3930   33.2650 C.2   226  LYS226      0.2260
    146  O         -7.3450   28.2890   32.3350 O.2   226  LYS226     -0.2867
    147  CB       -10.3370   27.1890   33.5520 C.3   226  LYS226      0.0271
    148  CG        -9.8450   25.8760   32.9780 C.3   226  LYS226      0.0035
    149  CD       -10.5790   24.7070   33.6030 C.3   226  LYS226      0.0206
    150  CE       -10.1340   23.3920   32.9960 C.3   226  LYS226      0.1093
    151  NZ       -10.4880   23.3190   31.5500 N.3   226  LYS226     -0.1314
    152  N         -5.6320   26.3190   36.1230 N.3   228  ILE228     -0.1245
    153  CA        -5.6470   25.2990   37.1690 C.3   228  ILE228      0.1561
    154  C         -4.2420   24.8840   37.6180 C.2   228  ILE228      0.2260
    155  O         -3.2810   24.9580   36.8520 O.2   228  ILE228     -0.2867
    156  CB        -6.4370   24.0520   36.7130 C.3   228  ILE228      0.0252
    157  CG1       -5.7230   23.3690   35.5430 C.3   228  ILE228      0.0019
    158  CG2       -7.8480   24.4400   36.3040 C.3   228  ILE228      0.0019
    159  CD1       -6.2400   21.9970   35.2130 C.3   228  ILE228      0.0001
    160  N         -2.2630   21.6940   38.4410 N.3   230  ASP230     -0.1239
    161  CA        -2.5110   20.3050   38.0680 C.3   230  ASP230      0.1674
    162  C         -1.2920   19.3780   38.1820 C.2   230  ASP230      0.2266
    163  O         -0.4430   19.2910   37.2970 O.2   230  ASP230     -0.2867
    164  CB        -3.1840   20.2330   36.6970 C.3   230  ASP230      0.1410
    165  CG        -3.3870   18.8120   36.2120 C.2   230  ASP230      0.3668
    166  OD1       -3.2110   17.8570   37.0060 O.co2 230  ASP230     -0.2456
    167  OD2       -3.7280   18.6580   35.0200 O.co2 230  ASP230     -0.2456
    168  N         -1.1000   16.1550   37.9310 N.3   232  GLY232     -0.1210
    169  CA        -1.0330   15.0260   37.0070 C.3   232  GLY232      0.1956
    170  C         -0.8000   15.3880   35.5470 C.2   232  GLY232      0.2613
    171  O         -0.9730   14.5570   34.6600 O.2   232  GLY232     -0.2717
    172  N         -0.4220   16.6350   35.3030 N.am  233  THR233     -0.1938
    173  CA        -0.0110   17.0760   33.9820 C.3   233  THR233      0.2028
    174  C          1.4690   17.4290   34.0440 C.2   233  THR233      0.2642
    175  O          1.9280   18.0570   35.0070 O.2   233  THR233     -0.2714
    176  CB        -0.8540   18.2870   33.5030 C.3   233  THR233      0.1808
    177  OG1       -2.2130   17.8690   33.3240 O.3   233  THR233     -0.2208
    178  CG2       -0.3390   18.8500   32.1760 C.3   233  THR233      0.0379
    179  N          2.2110   17.0070   33.0240 N.am  234  THR234     -0.1950
    180  CA         3.6500   17.2330   32.9770 C.3   234  THR234      0.1897
    181  C          3.9980   18.7030   32.7400 C.2   234  THR234      0.2313
    182  O          4.6520   19.3250   33.5800 O.2   234  THR234     -0.2863
    183  CB         4.3330   16.3500   31.9110 C.3   234  THR234      0.1794
    184  OG1        4.0960   14.9690   32.2080 O.3   234  THR234     -0.2208
    185  CG2        5.8290   16.6040   31.8860 C.3   234  THR234      0.0378
    186  N          0.8020   24.1930   30.3710 N.3   237  ARG237     -0.1245
    187  CA        -0.0340   24.2810   29.1860 C.3   237  ARG237      0.1563
    188  C         -0.6760   25.6530   29.0750 C.2   237  ARG237      0.2260
    189  O         -1.2770   26.1500   30.0310 O.2   237  ARG237     -0.2867
    190  CB        -1.0550   23.1540   29.1600 C.3   237  ARG237      0.0307
    191  CG        -0.4010   21.7960   28.9640 C.3   237  ARG237      0.0489
    192  CD        -1.3990   20.6660   28.9570 C.3   237  ARG237      0.2205
    193  NE        -2.1840   20.6550   27.7280 N.pl3 237  ARG237     -0.0865
    194  CZ        -1.8520   19.9940   26.6220 C.cat 237  ARG237      0.5346
    195  NH1       -2.6470   20.0640   25.5700 N.pl3 237  ARG237      0.1354
    196  NH2       -0.7390   19.2670   26.5600 N.pl3 237  ARG237      0.1354
    197  N         -7.7780   23.9380   26.3940 N.3   331  THR331     -0.1218
    198  CA        -8.6690   24.0080   27.5450 C.3   331  THR331      0.1862
    199  C         -8.1100   24.7620   28.7530 C.2   331  THR331      0.2287
    200  O         -8.2840   24.3470   29.9030 O.2   331  THR331     -0.2866
    201  CB        -9.2310   22.6120   27.9100 C.3   331  THR331      0.1770
    202  OG1      -10.2860   22.7660   28.8720 O.3   331  THR331     -0.2211
    203  CG2       -8.1240   21.6770   28.4370 C.3   331  THR331      0.0375
    204  N         -2.7670   25.2670   32.2440 N.3   334  VAL334     -0.1245
    205  CA        -2.4840   24.1950   33.1800 C.3   334  VAL334      0.1561
    206  C         -1.0890   24.3850   33.7800 C.2   334  VAL334      0.2260
    207  O         -0.0730   24.2480   33.0940 O.2   334  VAL334     -0.2867
    208  CB        -2.6240   22.8060   32.5180 C.3   334  VAL334      0.0252
    209  CG1       -2.5430   21.7160   33.5620 C.3   334  VAL334      0.0019
    210  CG2       -3.9280   22.7030   31.7790 C.3   334  VAL334      0.0019
@<TRIPOS>BOND
     1    89    88    1
     2    88    87    1
     3    87    86    1
     4    55    54    2
     5    80    79    1
     6    58    56    1
     7    86    85    1
     8    79    78    1
     9    54    53    1
    10    54    59   am
    11    57    56    1
    12    56    53    1
    13    53    52    1
    14   195   194    1
    15    62    61    2
    16    78    77    1
    17    60    59    1
    18    60    61    1
    19    60    63    1
    20    85    82    1
    21    61    68   am
    22    43    42    2
    23   197   198    1
    24   196   194    1
    25   194   193    2
    26    52    42   am
    27    63    64    1
    28    81    82    1
    29    68    69    1
    30    77    76    1
    31    42    41    1
    32    82    83    1
    33    69    70    1
    34   198   201    1
    35   198   199    1
    36   193   192    1
    37   201   203    1
    38   201   202    1
    39    70    71    2
    40    70    72   am
    41    76    73    1
    42    64    65    1
    43    66    65    2
    44    41    40    1
    45    41    44    1
    46    83    84    2
    47    83    90   am
    48    72    73    1
    49   199   200    2
    50    65    67   am
    51   192   191    1
    52   191   190    1
    53   188   187    1
    54   188   189    2
    55    73    74    1
    56   190   187    1
    57   187   186    1
    58    44    45    1
    59    90    91    1
    60    75    74    2
    61   107   105    1
    62    45    47   ar
    63    45    46   ar
    64    91    94    1
    65    91    92    1
    66    47    49   ar
    67   102   105    1
    68   102   103    1
    69   102   101    1
    70    94    95    1
    71   143   144    1
    72   151   150    1
    73   105   106    1
    74    92    93    2
    75    46    48   ar
    76   210   208    1
    77   103   104    2
    78   106   108    1
    79   185   183    1
    80   183   184    1
    81   183   180    1
    82   178   176    1
    83   204   205    1
    84   146   145    2
    85     9     7   am
    86   208   205    1
    87   208   209    1
    88    49    50   ar
    89   181   180    1
    90   181   182    2
    91    95    96   ar
    92    95    97   ar
    93   180   179    1
    94   148   147    1
    95   148   149    1
    96   144   145    1
    97   144   147    1
    98   150   149    1
    99   179   174   am
   100    48    50   ar
   101   207   206    2
   102     6     7    1
   103     6     5    1
   104    96    98   ar
   105   205   206    1
   106     7     8    2
   107   177   176    1
   108   176   173    1
   109    50    51    1
   110   142   141    1
   111   173   174    1
   112   173   172    1
   113    97    99   ar
   114   174   175    2
   115     1     2    1
   116     2     5    1
   117     2     3    1
   118    98   100   ar
   119   171   170    2
   120   141   140   ar
   121   141   139   ar
   122   167   165   ar
   123   159   157    1
   124   140   138   ar
   125   172   170   am
   126    99   100   ar
   127   122   120   ar
   128   122   121   ar
   129   157   156    1
   130   170   169    1
   131   120   118   ar
   132     3     4    2
   133     3    10   am
   134   139   137   ar
   135   152   153    1
   136   165   164    1
   137   165   166   ar
   138    10    11    1
   139   158   156    1
   140   138   136   ar
   141   121   119   ar
   142   118   117   ar
   143   118   116   ar
   144   164   161    1
   145   156   153    1
   146   137   136   ar
   147   155   154    2
   148    33    32    2
   149   117   115   ar
   150   169   168    1
   151   136   135    1
   152   153   154    1
   153   163   162    2
   154    11    12    1
   155   119   116   ar
   156    21    19    1
   157   116   114   ar
   158   130   128    1
   159   112   111    2
   160    32    31    1
   161    32    34   am
   162    38    39    1
   163    38    35    1
   164   161   162    1
   165   161   160    1
   166    29    27   ar
   167   115   114   ar
   168   135   132    1
   169    31    30    1
   170    28    27   ar
   171   114   113    1
   172    27    26    1
   173    12    13    2
   174    35    34    1
   175    35    36    1
   176   129   127    1
   177    20    19    1
   178    19    18    1
   179   109   110    1
   180   128   127    1
   181   111   110    1
   182   127   124    1
   183   132   131    1
   184   132   133    1
   185    18    15    1
   186   110   113    1
   187    26    23    1
   188    36    37    2
   189   123   124    1
   190   124   125    1
   191   133   134    2
   192    23    24    1
   193    23    22    1
   194    15    14    1
   195    15    16    1
   196    24    25    2
   197   125   126    2
   198    16    17    2
