@<TRIPOS>MOLECULE
tmp/4fsfA00.pdb
 177 172 0 0 0
SMALL
GASTEIGER

@<TRIPOS>ATOM
      1  N         11.8590   -8.0810    8.7730 N.3   239  GLU239     -0.1245
      2  CA        11.9670   -7.9430   10.2190 C.3   239  GLU239      0.1567
      3  C         10.5800   -8.2700   10.7930 C.2   239  GLU239      0.2260
      4  O          9.5960   -7.5960   10.4540 O.2   239  GLU239     -0.2867
      5  CB        12.3840   -6.5250   10.5840 C.3   239  GLU239      0.0388
      6  CG        13.7890   -6.1550   10.1440 C.3   239  GLU239      0.1160
      7  CD        14.3330   -4.8890   10.7800 C.2   239  GLU239      0.3649
      8  OE1       13.5450   -3.9400   10.9970 O.co2 239  GLU239     -0.2457
      9  OE2       15.5600   -4.8350   11.0310 O.co2 239  GLU239     -0.2457
     10  N          9.4000   -8.0200   13.8300 N.3   241  GLY241     -0.1210
     11  CA         8.9640   -7.0870   14.8570 C.3   241  GLY241      0.1956
     12  C          8.1970   -7.7890   15.9610 C.2   241  GLY241      0.2612
     13  O          8.5720   -8.8980   16.3640 O.2   241  GLY241     -0.2717
     14  N          7.0890   -7.1690   16.4180 N.am  242  SER242     -0.1952
     15  CA         6.2530   -7.6730   17.5210 C.3   242  SER242      0.1924
     16  C          5.6750   -9.0950   17.3820 C.2   242  SER242      0.2314
     17  O          5.2610   -9.6550   18.3910 O.2   242  SER242     -0.2863
     18  CB         5.1440   -6.6960   17.8710 C.3   242  SER242      0.2116
     19  OG         5.5770   -5.3490   17.9050 O.3   242  SER242     -0.2180
     20  N          7.4810  -11.4570   19.9220 N.3   245  LYS245     -0.1245
     21  CA         7.2360  -11.3000   21.3860 C.3   245  LYS245      0.1561
     22  C          6.6190  -12.5930   22.0320 C.2   245  LYS245      0.2260
     23  O          7.0400  -12.9350   23.1320 O.2   245  LYS245     -0.2867
     24  CB         6.3450  -10.0950   21.6650 C.3   245  LYS245      0.0271
     25  CG         7.0190   -8.7390   21.4410 C.3   245  LYS245      0.0035
     26  CD         6.0130   -7.6210   21.6820 C.3   245  LYS245      0.0206
     27  CE         6.5970   -6.2150   21.7220 C.3   245  LYS245      0.1093
     28  NZ         7.2780   -5.8460   20.4730 N.3   245  LYS245     -0.1314
     29  N          4.7080    2.8570   21.2590 N.3   281  VAL281     -0.1231
     30  CA         3.8410    3.8130   20.5360 C.3   281  VAL281      0.1692
     31  C          2.8910    4.5350   21.5240 C.2   281  VAL281      0.2592
     32  O          2.8580    5.7570   21.5560 O.2   281  VAL281     -0.2718
     33  CB         3.0950    3.1390   19.3380 C.3   281  VAL281      0.0266
     34  CG1        2.0380    4.0750   18.7350 C.3   281  VAL281      0.0020
     35  CG2        4.0900    2.6860   18.2710 C.3   281  VAL281      0.0020
     36  N          2.1290    3.7660   22.3140 N.am  282  SER282     -0.1952
     37  CA         1.2370    4.3330   23.3190 C.3   282  SER282      0.1924
     38  C          2.0700    4.4050   24.5950 C.2   282  SER282      0.2314
     39  O          2.7570    3.4480   24.9620 O.2   282  SER282     -0.2863
     40  CB        -0.0060    3.4630   23.4980 C.3   282  SER282      0.2116
     41  OG        -1.0900    4.2040   24.0350 O.3   282  SER282     -0.2180
     42  N         -0.5960   -4.5110   24.4800 N.3   296  LYS296     -0.1231
     43  CA        -0.1700   -3.1430   24.1720 C.3   296  LYS296      0.1693
     44  C          1.0320   -3.1140   23.2350 C.2   296  LYS296      0.2592
     45  O          1.4380   -2.0410   22.7860 O.2   296  LYS296     -0.2718
     46  CB         0.1370   -2.3640   25.4730 C.3   296  LYS296      0.0285
     47  CG        -1.0440   -2.2620   26.4480 C.3   296  LYS296      0.0035
     48  CD        -1.8290   -0.9820   26.3260 C.3   296  LYS296      0.0206
     49  CE        -2.9090   -0.9650   27.3760 C.3   296  LYS296      0.1093
     50  NZ        -3.7900    0.2260   27.2400 N.3   296  LYS296     -0.1314
     51  N          1.5780   -4.2940   22.9340 N.am  297  SER297     -0.1952
     52  CA         2.7910   -4.5260   22.1500 C.3   297  SER297      0.1924
     53  C          3.8400   -3.5710   22.6600 C.2   297  SER297      0.2314
     54  O          4.2320   -2.6360   21.9600 O.2   297  SER297     -0.2863
     55  CB         2.5510   -4.4000   20.6500 C.3   297  SER297      0.2116
     56  OG         3.5300   -5.1940   20.0030 O.3   297  SER297     -0.2180
     57  N          7.4050   -2.6160   23.6730 N.3   299  ASN299     -0.1240
     58  CA         8.8180   -2.8620   23.3940 C.3   299  ASN299      0.1653
     59  C          9.5950   -2.6660   24.6960 C.2   299  ASN299      0.2266
     60  O         10.4560   -3.4660   25.0240 O.2   299  ASN299     -0.2867
     61  CB         9.3160   -1.9200   22.2530 C.3   299  ASN299      0.1155
     62  CG         8.6900   -2.2200   20.8820 C.2   299  ASN299      0.2627
     63  OD1        8.3500   -3.3560   20.5200 O.2   299  ASN299     -0.2716
     64  ND2        8.4750   -1.2090   20.0990 N.am  299  ASN299     -0.0877
     65  N         12.1640   -7.7420   20.7930 N.3   355  TYR355     -0.1227
     66  CA        11.0480   -7.1540   20.0480 C.3   355  TYR355      0.1736
     67  C         11.0360   -7.2880   18.5130 C.2   355  TYR355      0.2596
     68  O         10.1460   -6.7280   17.8450 O.2   355  TYR355     -0.2718
     69  CB        10.6160   -5.7610   20.5540 C.3   355  TYR355      0.0548
     70  CG        11.6350   -4.6550   20.4040 C.ar  355  TYR355     -0.0200
     71  CD1       12.3410   -4.1770   21.5080 C.ar  355  TYR355     -0.0009
     72  CD2       11.7870   -3.9800   19.1970 C.ar  355  TYR355     -0.0009
     73  CE1       13.2360   -3.1100   21.3940 C.ar  355  TYR355      0.0417
     74  CE2       12.7090   -2.9360   19.0610 C.ar  355  TYR355      0.0417
     75  CZ        13.4110   -2.4890   20.1710 C.ar  355  TYR355      0.1957
     76  OH        14.3060   -1.4470   20.0620 O.3   355  TYR355     -0.2866
     77  N         11.9610   -8.0670   17.9810 N.am  356  GLY356     -0.1942
     78  CA        12.0020   -8.4000   16.5530 C.3   356  GLY356      0.2014
     79  C         12.6260   -7.4420   15.5580 C.2   356  GLY356      0.2638
     80  O         12.4230   -7.6040   14.3520 O.2   356  GLY356     -0.2714
     81  N         13.3950   -6.4540   16.0300 N.am  357  TYR357     -0.1973
     82  CA        14.0450   -5.4980   15.1340 C.3   357  TYR357      0.1639
     83  C         15.3530   -6.1310   14.6370 C.2   357  TYR357      0.2290
     84  O         15.6510   -6.0920   13.4400 O.2   357  TYR357     -0.2864
     85  CB        14.2600   -4.1450   15.8310 C.3   357  TYR357      0.0560
     86  CG        15.0200   -3.1250   15.0110 C.ar  357  TYR357     -0.0198
     87  CD1       14.3890   -2.3960   14.0040 C.ar  357  TYR357     -0.0009
     88  CD2       16.3700   -2.8790   15.2480 C.ar  357  TYR357     -0.0009
     89  CE1       15.0910   -1.4700   13.2310 C.ar  357  TYR357      0.0417
     90  CE2       17.0740   -1.9290   14.5050 C.ar  357  TYR357      0.0417
     91  CZ        16.4260   -1.2150   13.5070 C.ar  357  TYR357      0.1957
     92  OH        17.1230   -0.2730   12.7880 O.3   357  TYR357     -0.2866
     93  N         -0.9410  -12.4460   17.3050 N.3   432  LYS432     -0.1231
     94  CA        -0.1870  -11.2570   17.6290 C.3   432  LYS432      0.1693
     95  C          0.0730  -10.5000   16.3430 C.2   432  LYS432      0.2593
     96  O          0.4890  -11.0680   15.3290 O.2   432  LYS432     -0.2718
     97  CB         1.1450  -11.6400   18.3290 C.3   432  LYS432      0.0285
     98  CG         2.0440  -10.4670   18.7610 C.3   432  LYS432      0.0035
     99  CD         1.4320   -9.5640   19.8560 C.3   432  LYS432      0.0206
    100  CE         2.2190   -8.2830   20.0500 C.3   432  LYS432      0.1093
    101  NZ         2.0330   -7.3120   18.9270 N.3   432  LYS432     -0.1314
    102  N         -0.1580   -9.2220   16.4160 N.am  433  SER433     -0.1938
    103  CA         0.0590   -8.2540   15.3640 C.3   433  SER433      0.2055
    104  C          1.5340   -7.7850   15.3780 C.2   433  SER433      0.2644
    105  O          2.2570   -7.9760   16.3640 O.2   433  SER433     -0.2714
    106  CB        -0.9280   -7.0970   15.5460 C.3   433  SER433      0.2130
    107  OG        -0.4550   -5.8760   15.0090 O.3   433  SER433     -0.2179
    108  N          1.9590   -7.2100   14.2590 N.am  434  GLY434     -0.1939
    109  CA         3.2860   -6.6490   14.0540 C.3   434  GLY434      0.2014
    110  C          3.2070   -5.5000   13.0640 C.2   434  GLY434      0.2640
    111  O          2.3460   -5.4970   12.1720 O.2   434  GLY434     -0.2714
    112  N          4.0780   -4.4930   13.2260 N.am  435  THR435     -0.1936
    113  CA         4.1570   -3.3550   12.3010 C.3   435  THR435      0.2028
    114  C          5.6240   -3.0110   12.2020 C.2   435  THR435      0.2642
    115  O          6.2400   -2.7060   13.2130 O.2   435  THR435     -0.2714
    116  CB         3.2560   -2.1550   12.6920 C.3   435  THR435      0.1808
    117  OG1        1.9250   -2.6030   12.9520 O.3   435  THR435     -0.2208
    118  CG2        3.1720   -1.1150   11.5810 C.3   435  THR435      0.0379
    119  N          6.2020   -3.0860   11.0080 N.am  436  ALA436     -0.1963
    120  CA         7.6340   -2.8100   10.8860 C.3   436  ALA436      0.1728
    121  C          7.8940   -1.6800    9.9400 C.2   436  ALA436      0.2616
    122  O          7.5060   -1.7430    8.7670 O.2   436  ALA436     -0.2715
    123  CB         8.4000   -4.0640   10.4480 C.3   436  ALA436      0.0334
    124  N          8.5560   -0.6450   10.4620 N.am  437  ARG437     -0.1977
    125  CA         9.0120    0.5210    9.7180 C.3   437  ARG437      0.1597
    126  C         10.2550    0.0580    8.9560 C.2   437  ARG437      0.2287
    127  O         11.2050   -0.4300    9.5610 O.2   437  ARG437     -0.2864
    128  CB         9.3420    1.6640   10.6940 C.3   437  ARG437      0.0334
    129  CG         9.9150    2.9160   10.0560 C.3   437  ARG437      0.0492
    130  CD        10.1490    3.9860   11.1040 C.3   437  ARG437      0.2205
    131  NE         8.9330    4.7570   11.3540 N.pl3 437  ARG437     -0.0865
    132  CZ         8.9140    6.0490   11.6550 C.cat 437  ARG437      0.5346
    133  NH1       10.0490    6.7320   11.7560 N.pl3 437  ARG437      0.1354
    134  NH2        7.7600    6.6720   11.8490 N.pl3 437  ARG437      0.1354
    135  N          6.2730    1.0360    5.3670 N.3   441  TYR441     -0.1241
    136  CA         5.8790    0.0530    6.3880 C.3   441  TYR441      0.1605
    137  C          5.5540   -1.3500    5.8530 C.2   441  TYR441      0.2264
    138  O          5.2100   -1.5110    4.6780 O.2   441  TYR441     -0.2867
    139  CB         4.6580    0.5870    7.1820 C.3   441  TYR441      0.0534
    140  CG         4.9010    1.9000    7.9030 C.ar  441  TYR441     -0.0201
    141  CD1        5.4920    1.9260    9.1610 C.ar  441  TYR441     -0.0009
    142  CD2        4.5630    3.1170    7.3140 C.ar  441  TYR441     -0.0009
    143  CE1        5.7740    3.1270    9.8040 C.ar  441  TYR441      0.0417
    144  CE2        4.8220    4.3260    7.9580 C.ar  441  TYR441      0.0417
    145  CZ         5.4090    4.3240    9.2150 C.ar  441  TYR441      0.1957
    146  OH         5.6640    5.4920    9.8880 O.3   441  TYR441     -0.2866
    147  N         -1.7580    2.0080    8.8900 N.3   470  TYR470     -0.1227
    148  CA        -0.7510    1.0670    8.3810 C.3   470  TYR470      0.1736
    149  C         -0.4250   -0.0800    9.3490 C.2   470  TYR470      0.2595
    150  O          0.3340   -0.9890    8.9960 O.2   470  TYR470     -0.2718
    151  CB         0.5380    1.8160    8.0180 C.3   470  TYR470      0.0548
    152  CG         1.0430    2.7480    9.0980 C.ar  470  TYR470     -0.0200
    153  CD1        1.9000    2.2910   10.0960 C.ar  470  TYR470     -0.0009
    154  CD2        0.7040    4.1030    9.0950 C.ar  470  TYR470     -0.0009
    155  CE1        2.3980    3.1500   11.0720 C.ar  470  TYR470      0.0417
    156  CE2        1.2100    4.9780   10.0590 C.ar  470  TYR470      0.0417
    157  CZ         2.0560    4.4950   11.0470 C.ar  470  TYR470      0.1957
    158  OH         2.5560    5.3350   12.0170 O.3   470  TYR470     -0.2866
    159  N         -0.9760   -0.0200   10.5650 N.am  471  PHE471     -0.1962
    160  CA        -0.7410   -1.0030   11.6160 C.3   471  PHE471      0.1771
    161  C         -1.2520   -2.3980   11.2500 C.2   471  PHE471      0.2620
    162  O         -2.3330   -2.5260   10.6600 O.2   471  PHE471     -0.2715
    163  CB        -1.3650   -0.5360   12.9380 C.3   471  PHE471      0.0574
    164  CG        -0.8370    0.7790   13.4650 C.ar  471  PHE471     -0.0200
    165  CD1        0.3670    0.8370   14.1640 C.ar  471  PHE471     -0.0042
    166  CD2       -1.5540    1.9570   13.2850 C.ar  471  PHE471     -0.0042
    167  CE1        0.8470    2.0530   14.6620 C.ar  471  PHE471     -0.0003
    168  CE2       -1.0780    3.1720   13.8040 C.ar  471  PHE471     -0.0003
    169  CZ         0.1180    3.2090   14.4890 C.ar  471  PHE471     -0.0000
    170  N         -0.4690   -3.4170   11.6300 N.am  472  GLY472     -0.1940
    171  CA        -0.8000   -4.8240   11.4260 C.3   472  GLY472      0.2014
    172  C         -2.1880   -5.1690   11.9360 C.2   472  GLY472      0.2639
    173  O         -2.9840   -5.7870   11.2250 O.2   472  GLY472     -0.2714
    174  N         -2.5020   -4.6730   13.1320 N.am  473  GLY473     -0.1954
    175  CA        -3.7950   -4.8800   13.7780 C.3   473  GLY473      0.1869
    176  C         -4.9650   -4.2670   13.0510 C.2   473  GLY473      0.2309
    177  O         -6.1180   -4.5920   13.3280 O.2   473  GLY473     -0.2863
@<TRIPOS>BOND
     1   138   137    2
     2   135   136    1
     3   137   136    1
     4   136   139    1
     5   139   140    1
     6   142   140   ar
     7   142   144   ar
     8   140   141   ar
     9   144   145   ar
    10   151   148    1
    11   151   152    1
    12   148   147    1
    13   148   149    1
    14   122   121    2
    15     1     2    1
    16   126   127    2
    17   126   125    1
    18   150   149    2
    19   154   152   ar
    20   154   156   ar
    21   152   153   ar
    22   141   143   ar
    23   145   143   ar
    24   145   146    1
    25   149   159   am
    26   125   124    1
    27   125   128    1
    28   121   124   am
    29   121   120    1
    30   129   128    1
    31   129   130    1
    32   156   157   ar
    33   153   155   ar
    34     6     5    1
    35     6     7    1
    36     2     5    1
    37     2     3    1
    38   123   120    1
    39     4     3    2
    40   159   160    1
    41   162   161    2
    42     7     8   ar
    43     7     9   ar
    44   120   119    1
    45   119   114   am
    46   157   155   ar
    47   157   158    1
    48   130   131    1
    49   173   172    2
    50   161   160    1
    51   161   170   am
    52   131   132    2
    53   171   170    1
    54   171   172    1
    55   118   116    1
    56   160   163    1
    57   132   133    1
    58   132   134    1
    59   172   174   am
    60   111   110    2
    61   114   113    1
    62   114   115    2
    63   113   116    1
    64   113   112    1
    65   116   117    1
    66    92    91    1
    67   163   164    1
    68   176   177    2
    69   176   175    1
    70   110   112   am
    71   110   109    1
    72   174   175    1
    73    89    91   ar
    74    89    87   ar
    75   166   164   ar
    76   166   168   ar
    77    84    83    2
    78   164   165   ar
    79    91    90   ar
    80   168   169   ar
    81    10    11    1
    82    87    86   ar
    83   109   108    1
    84   165   167   ar
    85   108   104   am
    86    80    79    2
    87   169   167   ar
    88    90    88   ar
    89    83    82    1
    90    11    12    1
    91   107   106    1
    92    86    88   ar
    93    86    85    1
    94    82    85    1
    95    82    81    1
    96    96    95    2
    97   103   104    1
    98   103   106    1
    99   103   102    1
   100   104   105    2
   101    79    81   am
   102    79    78    1
   103    12    13    2
   104    12    14   am
   105    95   102   am
   106    95    94    1
   107    14    15    1
   108    78    77    1
   109    93    94    1
   110    16    15    1
   111    16    17    2
   112    15    18    1
   113    94    97    1
   114    68    67    2
   115    18    19    1
   116    77    67   am
   117    35    33    1
   118    97    98    1
   119    67    66    1
   120    34    33    1
   121    98    99    1
   122   101   100    1
   123    74    72   ar
   124    74    75   ar
   125    72    70   ar
   126    33    30    1
   127    99   100    1
   128    20    21    1
   129    56    55    1
   130    66    69    1
   131    66    65    1
   132    76    75    1
   133    64    62   am
   134    75    73   ar
   135    70    69    1
   136    70    71   ar
   137    28    27    1
   138    63    62    2
   139    30    29    1
   140    30    31    1
   141    55    52    1
   142    62    61    1
   143    21    24    1
   144    21    22    1
   145    73    71   ar
   146    25    24    1
   147    25    26    1
   148    31    32    2
   149    31    36   am
   150    26    27    1
   151    54    53    2
   152    22    23    2
   153    52    53    1
   154    52    51    1
   155    61    58    1
   156    36    37    1
   157    45    44    2
   158    51    44   am
   159    44    43    1
   160    37    40    1
   161    37    38    1
   162    58    57    1
   163    58    59    1
   164    40    41    1
   165    43    42    1
   166    43    46    1
   167    38    39    2
   168    59    60    2
   169    46    47    1
   170    48    47    1
   171    48    49    1
   172    50    49    1
