@<TRIPOS>MOLECULE
tmp/4fslA00.pdb
 205 195 0 0 0
SMALL
GASTEIGER

@<TRIPOS>ATOM
      1  N          6.5340   10.9130   34.9600 N.3    14  GLN14      -0.1231
      2  CA         5.7320    9.7230   35.2750 C.3    14  GLN14       0.1698
      3  C          4.7920    9.9680   36.4540 C.2    14  GLN14       0.2592
      4  O          3.9240    9.1390   36.7460 O.2    14  GLN14      -0.2718
      5  CB         6.6310    8.5240   35.5890 C.3    14  GLN14       0.0381
      6  CG         7.9520    8.4820   34.8410 C.3    14  GLN14       0.0905
      7  CD         7.8510    7.8050   33.4990 C.2    14  GLN14       0.2608
      8  OE1        8.2050    6.6310   33.3560 O.2    14  GLN14      -0.2717
      9  NE2        7.3670    8.5390   32.4980 N.am   14  GLN14      -0.0878
     10  N          4.9790   11.1010   37.1320 N.am   15  GLY15      -0.1957
     11  CA         4.1290   11.4960   38.2500 C.3    15  GLY15       0.1869
     12  C          4.6750   11.0660   39.5950 C.2    15  GLY15       0.2309
     13  O          5.4970   10.1540   39.6800 O.2    15  GLY15      -0.2863
     14  N         -0.6270    7.4340   42.5770 N.3    32  LEU32      -0.1245
     15  CA        -0.3490    8.7520   42.0190 C.3    32  LEU32       0.1561
     16  C         -1.0690    9.8600   42.7860 C.2    32  LEU32       0.2260
     17  O         -2.2750    9.7790   43.0290 O.2    32  LEU32      -0.2867
     18  CB        -0.7450    8.7960   40.5360 C.3    32  LEU32       0.0270
     19  CG        -0.6220   10.1430   39.8140 C.3    32  LEU32       0.0019
     20  CD1        0.8340   10.5380   39.6210 C.3    32  LEU32       0.0001
     21  CD2       -1.3350   10.0850   38.4840 C.3    32  LEU32       0.0001
     22  N         -2.6040   13.3350   42.7170 N.3    34  ASP34      -0.1239
     23  CA        -3.1700   14.1610   41.6470 C.3    34  ASP34       0.1674
     24  C         -4.1710   15.2230   42.1110 C.2    34  ASP34       0.2266
     25  O         -5.2990   14.9020   42.4860 O.2    34  ASP34      -0.2867
     26  CB        -3.8240   13.2690   40.5890 C.3    34  ASP34       0.1410
     27  CG        -4.3530   14.0590   39.4010 C.2    34  ASP34       0.3668
     28  OD1       -3.9290   15.2200   39.2130 O.co2  34  ASP34      -0.2456
     29  OD2       -5.1560   13.5080   38.6230 O.co2  34  ASP34      -0.2456
     30  N         -5.4470   17.3650   40.1180 N.3    36  GLY36      -0.1210
     31  CA        -6.2470   17.6760   38.9340 C.3    36  GLY36       0.1956
     32  C         -7.4620   16.7950   38.6920 C.2    36  GLY36       0.2612
     33  O         -8.1820   16.9850   37.7080 O.2    36  GLY36      -0.2717
     34  N         -7.6910   15.8310   39.5820 N.am   37  SER37      -0.1952
     35  CA        -8.8580   14.9490   39.4990 C.3    37  SER37       0.1924
     36  C         -9.4380   14.6860   40.8920 C.2    37  SER37       0.2314
     37  O         -8.8960   15.1720   41.8870 O.2    37  SER37      -0.2863
     38  CB        -8.5040   13.6480   38.7810 C.3    37  SER37       0.2116
     39  OG        -7.4370   12.9760   39.4240 O.3    37  SER37      -0.2180
     40  N        -10.2840   11.1730   29.3280 N.3    73  TYR73      -0.1227
     41  CA        -9.5220   12.4160   29.2470 C.3    73  TYR73       0.1736
     42  C         -9.1630   12.5960   27.7780 C.2    73  TYR73       0.2596
     43  O         -9.5140   11.7490   26.9520 O.2    73  TYR73      -0.2718
     44  CB        -8.2580   12.3380   30.1110 C.3    73  TYR73       0.0548
     45  CG        -8.5370   12.1780   31.5890 C.ar   73  TYR73      -0.0200
     46  CD1       -8.7590   13.2890   32.4000 C.ar   73  TYR73      -0.0009
     47  CD2       -8.5870   10.9120   32.1760 C.ar   73  TYR73      -0.0009
     48  CE1       -9.0220   13.1470   33.7540 C.ar   73  TYR73       0.0417
     49  CE2       -8.8460   10.7600   33.5310 C.ar   73  TYR73       0.0417
     50  CZ        -9.0650   11.8830   34.3130 C.ar   73  TYR73       0.1957
     51  OH        -9.3250   11.7420   35.6570 O.3    73  TYR73      -0.2866
     52  N         -8.4740   13.6830   27.4440 N.am   74  THR74      -0.1939
     53  CA        -8.0180   13.8900   26.0680 C.3    74  THR74       0.2028
     54  C         -6.9110   12.9030   25.7040 C.2    74  THR74       0.2642
     55  O         -6.8840   12.3790   24.5900 O.2    74  THR74      -0.2714
     56  CB        -7.4790   15.3210   25.8280 C.3    74  THR74       0.1808
     57  OG1       -7.8900   16.1950   26.8900 O.3    74  THR74      -0.2208
     58  CG2       -7.9750   15.8590   24.4880 C.3    74  THR74       0.0379
     59  N         -6.0120   12.6450   26.6530 N.am   75  GLN75      -0.1963
     60  CA        -4.8060   11.8530   26.3940 C.3    75  GLN75       0.1733
     61  C         -4.9790   10.3570   26.6600 C.2    75  GLN75       0.2616
     62  O         -4.2080    9.5390   26.1510 O.2    75  GLN75      -0.2715
     63  CB        -3.6040   12.4080   27.1860 C.3    75  GLN75       0.0408
     64  CG        -3.6710   12.2500   28.7210 C.3    75  GLN75       0.0908
     65  CD        -4.4700   13.3440   29.4310 C.2    75  GLN75       0.2608
     66  OE1       -5.3520   13.9790   28.8480 O.2    75  GLN75      -0.2717
     67  NE2       -4.1660   13.5550   30.7030 N.am   75  GLN75      -0.0878
     68  N         -5.9850   10.0100   27.4610 N.am   76  GLY76      -0.1955
     69  CA        -6.2500    8.6230   27.8340 C.3    76  GLY76       0.1869
     70  C         -7.5940    8.4710   28.5180 C.2    76  GLY76       0.2309
     71  O         -8.3410    9.4430   28.6540 O.2    76  GLY76      -0.2863
     72  N         -4.2010    3.8840   27.6920 N.3   109  LYS109     -0.1231
     73  CA        -3.1800    4.9350   27.8390 C.3   109  LYS109      0.1693
     74  C         -3.2780    5.7470   29.1370 C.2   109  LYS109      0.2592
     75  O         -2.7640    6.8650   29.2140 O.2   109  LYS109     -0.2718
     76  CB        -3.1790    5.8770   26.6240 C.3   109  LYS109      0.0285
     77  CG        -2.5150    5.2970   25.3860 C.3   109  LYS109      0.0035
     78  CD        -2.9420    6.0350   24.1260 C.3   109  LYS109      0.0206
     79  CE        -2.2510    5.4490   22.8990 C.3   109  LYS109      0.1093
     80  NZ        -2.9020    5.8720   21.6250 N.3   109  LYS109     -0.1314
     81  N         -3.9370    5.1890   30.1500 N.am  110  PHE110     -0.1962
     82  CA        -4.0010    5.8290   31.4580 C.3   110  PHE110      0.1771
     83  C         -2.7340    5.5290   32.2640 C.2   110  PHE110      0.2620
     84  O         -2.0840    6.4450   32.7770 O.2   110  PHE110     -0.2715
     85  CB        -5.2590    5.3950   32.2200 C.3   110  PHE110      0.0574
     86  CG        -5.3540    5.9540   33.6180 C.ar  110  PHE110     -0.0200
     87  CD1       -5.5990    7.3080   33.8300 C.ar  110  PHE110     -0.0042
     88  CD2       -5.2110    5.1230   34.7220 C.ar  110  PHE110     -0.0042
     89  CE1       -5.6920    7.8250   35.1210 C.ar  110  PHE110     -0.0003
     90  CE2       -5.3020    5.6300   36.0170 C.ar  110  PHE110     -0.0003
     91  CZ        -5.5430    6.9810   36.2150 C.ar  110  PHE110     -0.0000
     92  N         -2.3870    4.2490   32.3650 N.am  111  PHE111     -0.1960
     93  CA        -1.2030    3.8360   33.1020 C.3   111  PHE111      0.1771
     94  C          0.0810    4.1650   32.3440 C.2   111  PHE111      0.2619
     95  O          0.0790    4.2890   31.1140 O.2   111  PHE111     -0.2715
     96  CB        -1.2750    2.3460   33.4420 C.3   111  PHE111      0.0574
     97  CG        -2.4120    1.9910   34.3590 C.ar  111  PHE111     -0.0200
     98  CD1       -3.5180    1.2910   33.8780 C.ar  111  PHE111     -0.0042
     99  CD2       -2.3880    2.3690   35.6990 C.ar  111  PHE111     -0.0042
    100  CE1       -4.5830    0.9600   34.7240 C.ar  111  PHE111     -0.0003
    101  CE2       -3.4450    2.0440   36.5540 C.ar  111  PHE111     -0.0003
    102  CZ        -4.5450    1.3370   36.0650 C.ar  111  PHE111     -0.0000
    103  N          1.1690    4.3270   33.0940 N.am  112  ILE112     -0.1977
    104  CA         2.4670    4.6910   32.5240 C.3   112  ILE112      0.1596
    105  C          3.4990    3.5950   32.8140 C.2   112  ILE112      0.2287
    106  O          3.6620    3.1670   33.9600 O.2   112  ILE112     -0.2864
    107  CB         2.9580    6.0730   33.0550 C.3   112  ILE112      0.0276
    108  CG1        1.8990    7.1570   32.8130 C.3   112  ILE112      0.0022
    109  CG2        4.2870    6.4740   32.4120 C.3   112  ILE112      0.0022
    110  CD1        2.2060    8.5160   33.4530 C.3   112  ILE112      0.0001
    111  N          3.4320    3.2090   39.9480 N.3   117  TRP117     -0.1241
    112  CA         2.1550    3.3940   40.6350 C.3   117  TRP117      0.1605
    113  C          1.0280    2.6190   39.9530 C.2   117  TRP117      0.2264
    114  O          1.0590    2.3930   38.7410 O.2   117  TRP117     -0.2867
    115  CB         1.8030    4.8770   40.8300 C.3   117  TRP117      0.0550
    116  CG         1.8330    5.7130   39.5910 C.ar  117  TRP117      0.0003
    117  CD1        2.8770    6.4680   39.1390 C.ar  117  TRP117      0.0946
    118  CD2        0.7670    5.9000   38.6530 C.ar  117  TRP117      0.0152
    119  NE1        2.5310    7.1070   37.9750 N.ar  117  TRP117     -0.2442
    120  CE2        1.2410    6.7760   37.6520 C.ar  117  TRP117      0.0810
    121  CE3       -0.5430    5.4080   38.5570 C.ar  117  TRP117      0.0012
    122  CZ2        0.4540    7.1710   36.5710 C.ar  117  TRP117      0.0191
    123  CZ3       -1.3250    5.8030   37.4800 C.ar  117  TRP117      0.0001
    124  CH2       -0.8210    6.6760   36.5010 C.ar  117  TRP117      0.0015
    125  N         -4.6890    6.0740   41.2350 N.3   120  ILE120     -0.1245
    126  CA        -4.6950    7.5360   41.2780 C.3   120  ILE120      0.1561
    127  C         -5.4660    8.0540   42.4960 C.2   120  ILE120      0.2260
    128  O         -6.5230    7.5250   42.8440 O.2   120  ILE120     -0.2867
    129  CB        -5.2470    8.1480   39.9530 C.3   120  ILE120      0.0252
    130  CG1       -5.0970    9.6710   39.9450 C.3   120  ILE120      0.0019
    131  CG2       -6.7060    7.7300   39.7010 C.3   120  ILE120      0.0019
    132  CD1       -5.3300   10.3010   38.5880 C.3   120  ILE120      0.0001
    133  N        -11.8500   22.1210   40.3780 N.3   200  TYR200     -0.1241
    134  CA       -10.4070   21.9540   40.3140 C.3   200  TYR200      0.1605
    135  C         -9.8540   22.8700   41.3950 C.2   200  TYR200      0.2264
    136  O        -10.6210   23.5430   42.0920 O.2   200  TYR200     -0.2867
    137  CB        -9.8700   22.3850   38.9490 C.3   200  TYR200      0.0534
    138  CG       -10.3540   21.5460   37.7960 C.ar  200  TYR200     -0.0201
    139  CD1       -9.7850   20.3020   37.5310 C.ar  200  TYR200     -0.0009
    140  CD2      -11.3760   21.9940   36.9640 C.ar  200  TYR200     -0.0009
    141  CE1      -10.2290   19.5200   36.4720 C.ar  200  TYR200      0.0417
    142  CE2      -11.8230   21.2210   35.8960 C.ar  200  TYR200      0.0417
    143  CZ       -11.2410   19.9840   35.6590 C.ar  200  TYR200      0.1957
    144  OH       -11.6760   19.2060   34.6100 O.3   200  TYR200     -0.2866
    145  N         -9.7700   28.2430   32.1590 N.3   226  LYS226     -0.1245
    146  CA        -9.5220   28.1540   33.5990 C.3   226  LYS226      0.1561
    147  C         -8.0170   28.1500   33.8550 C.2   226  LYS226      0.2260
    148  O         -7.2270   28.0020   32.9250 O.2   226  LYS226     -0.2867
    149  CB       -10.1710   26.8960   34.2000 C.3   226  LYS226      0.0271
    150  CG        -9.6820   25.5830   33.5950 C.3   226  LYS226      0.0035
    151  CD       -10.3490   24.3760   34.2370 C.3   226  LYS226      0.0206
    152  CE        -9.9320   23.0910   33.5430 C.3   226  LYS226      0.1093
    153  NZ       -10.4390   23.0260   32.1400 N.3   226  LYS226     -0.1314
    154  N         -5.4750   26.1240   36.6300 N.3   228  ILE228     -0.1245
    155  CA        -5.5010   25.0960   37.6710 C.3   228  ILE228      0.1561
    156  C         -4.1230   24.6070   38.1170 C.2   228  ILE228      0.2260
    157  O         -3.1600   24.6180   37.3410 O.2   228  ILE228     -0.2867
    158  CB        -6.3600   23.8720   37.2480 C.3   228  ILE228      0.0252
    159  CG1       -5.7060   23.1260   36.0780 C.3   228  ILE228      0.0019
    160  CG2       -7.7880   24.3020   36.9070 C.3   228  ILE228      0.0019
    161  CD1       -6.1780   21.6970   35.9130 C.3   228  ILE228      0.0001
    162  N         -2.2610   21.3220   39.0410 N.3   230  ASP230     -0.1239
    163  CA        -2.5280   19.9520   38.6080 C.3   230  ASP230      0.1674
    164  C         -1.2640   19.0850   38.6790 C.2   230  ASP230      0.2266
    165  O         -0.4410   19.1040   37.7690 O.2   230  ASP230     -0.2867
    166  CB        -3.0890   20.0110   37.1800 C.3   230  ASP230      0.1410
    167  CG        -3.5130   18.6570   36.6320 C.2   230  ASP230      0.3668
    168  OD1       -3.3720   17.6210   37.3240 O.co2 230  ASP230     -0.2456
    169  OD2       -3.9900   18.6440   35.4750 O.co2 230  ASP230     -0.2456
    170  N         -0.9840   15.8570   38.5290 N.3   232  GLY232     -0.1210
    171  CA        -1.0730   14.6650   37.6840 C.3   232  GLY232      0.1956
    172  C         -0.7610   14.9180   36.2190 C.2   232  GLY232      0.2612
    173  O         -0.7830   13.9930   35.4020 O.2   232  GLY232     -0.2717
    174  N         -0.4800   16.1740   35.8890 N.am  233  THR233     -0.1952
    175  CA        -0.0120   16.5530   34.5610 C.3   233  THR233      0.1897
    176  C          1.4570   16.9610   34.6570 C.2   233  THR233      0.2313
    177  O          1.8650   17.6170   35.6230 O.2   233  THR233     -0.2863
    178  CB        -0.8440   17.7180   33.9980 C.3   233  THR233      0.1794
    179  OG1       -2.2320   17.3630   34.0210 O.3   233  THR233     -0.2208
    180  CG2       -0.4400   18.0470   32.5670 C.3   233  THR233      0.0378
    181  N          0.8310   23.8240   30.9000 N.3   237  ARG237     -0.1245
    182  CA        -0.0220   23.9030   29.7210 C.3   237  ARG237      0.1563
    183  C         -0.6340   25.2970   29.6240 C.2   237  ARG237      0.2260
    184  O         -1.2150   25.8000   30.5840 O.2   237  ARG237     -0.2867
    185  CB        -1.0840   22.8030   29.7290 C.3   237  ARG237      0.0307
    186  CG        -0.4990   21.3940   29.8180 C.3   237  ARG237      0.0489
    187  CD        -1.5650   20.3050   29.6750 C.3   237  ARG237      0.2205
    188  NE        -2.1610   20.2850   28.3370 N.pl3 237  ARG237     -0.0865
    189  CZ        -1.6370   19.6670   27.2790 C.cat 237  ARG237      0.5346
    190  NH1       -2.2680   19.7190   26.1140 N.pl3 237  ARG237      0.1354
    191  NH2       -0.4960   18.9900   27.3760 N.pl3 237  ARG237      0.1354
    192  N         -7.6190   23.4920   27.1810 N.3   331  THR331     -0.1218
    193  CA        -8.4420   23.4000   28.3920 C.3   331  THR331      0.1862
    194  C         -7.9730   24.3250   29.5180 C.2   331  THR331      0.2287
    195  O         -8.2650   24.0790   30.6910 O.2   331  THR331     -0.2866
    196  CB        -8.5500   21.9330   28.9180 C.3   331  THR331      0.1770
    197  OG1       -7.2420   21.3570   29.0540 O.3   331  THR331     -0.2211
    198  CG2       -9.3920   21.0760   27.9720 C.3   331  THR331      0.0375
    199  N         -2.6530   25.0740   32.8720 N.3   334  VAL334     -0.1245
    200  CA        -2.4460   23.9280   33.7370 C.3   334  VAL334      0.1561
    201  C         -1.0380   23.9860   34.3150 C.2   334  VAL334      0.2260
    202  O         -0.0510   23.7670   33.6080 O.2   334  VAL334     -0.2867
    203  CB        -2.6610   22.6050   32.9780 C.3   334  VAL334      0.0252
    204  CG1       -2.6040   21.4290   33.9350 C.3   334  VAL334      0.0019
    205  CG2       -3.9870   22.6220   32.2390 C.3   334  VAL334      0.0019
@<TRIPOS>BOND
     1    80    79    1
     2    79    78    1
     3    78    77    1
     4    58    56    1
     5    55    54    2
     6    77    76    1
     7    54    53    1
     8    54    59   am
     9    56    53    1
    10    56    57    1
    11    53    52    1
    12   190   189    1
    13    62    61    2
    14    60    59    1
    15    60    61    1
    16    60    63    1
    17    76    73    1
    18    61    68   am
    19    43    42    2
    20   192   193    1
    21    63    64    1
    22   189   191    1
    23   189   188    2
    24    52    42   am
    25    68    69    1
    26    72    73    1
    27    42    41    1
    28    69    70    1
    29    73    74    1
    30   198   196    1
    31   188   187    1
    32   193   196    1
    33   193   194    1
    34    70    71    2
    35    64    65    1
    36    66    65    2
    37   196   197    1
    38    74    75    2
    39    74    81   am
    40    41    40    1
    41    41    44    1
    42    65    67   am
    43   194   195    2
    44   183   182    1
    45   183   184    2
    46   187   186    1
    47   182   185    1
    48   182   181    1
    49   185   186    1
    50    44    45    1
    51    81    82    1
    52    95    94    2
    53    82    85    1
    54    82    83    1
    55    45    47   ar
    56    45    46   ar
    57   153   152    1
    58   145   146    1
    59    47    49   ar
    60    85    86    1
    61   205   203    1
    62    83    92   am
    63    83    84    2
    64    94   103   am
    65    94    93    1
    66    92    93    1
    67    46    48   ar
    68   109   107    1
    69     9     7   am
    70   104   105    1
    71   104   107    1
    72   104   103    1
    73   180   178    1
    74   108   107    1
    75   108   110    1
    76   105   106    2
    77   199   200    1
    78   148   147    2
    79   203   200    1
    80   203   204    1
    81    93    96    1
    82     8     7    2
    83    96    97    1
    84     7     6    1
    85    49    50   ar
    86   152   151    1
    87   150   149    1
    88   150   151    1
    89   146   147    1
    90   146   149    1
    91   202   201    2
    92    86    87   ar
    93    86    88   ar
    94   200   201    1
    95    48    50   ar
    96    87    89   ar
    97    98    97   ar
    98    98   100   ar
    99   178   179    1
   100   178   175    1
   101    50    51    1
   102    97    99   ar
   103   175   176    1
   104   175   174    1
   105   144   143    1
   106   176   177    2
   107    88    90   ar
   108   100   102   ar
   109     6     5    1
   110     1     2    1
   111    89    91   ar
   112     2     5    1
   113     2     3    1
   114   173   172    2
   115   169   167   ar
   116   143   142   ar
   117   143   141   ar
   118    99   101   ar
   119   174   172   am
   120   142   140   ar
   121   161   159    1
   122    90    91   ar
   123   102   101   ar
   124   159   158    1
   125   172   171    1
   126     3     4    2
   127     3    10   am
   128   141   139   ar
   129   124   122   ar
   130   124   123   ar
   131   122   120   ar
   132   154   155    1
   133   167   166    1
   134   167   168   ar
   135   160   158    1
   136   140   138   ar
   137    10    11    1
   138   166   163    1
   139   158   155    1
   140   157   156    2
   141   123   121   ar
   142   139   138   ar
   143   120   119   ar
   144   120   118   ar
   145   155   156    1
   146   171   170    1
   147    33    32    2
   148   165   164    2
   149   138   137    1
   150   119   117   ar
   151    11    12    1
   152    21    19    1
   153   121   118   ar
   154   132   130    1
   155   163   164    1
   156   163   162    1
   157    29    27   ar
   158   118   116   ar
   159    32    31    1
   160    32    34   am
   161   114   113    2
   162    38    39    1
   163    38    35    1
   164    31    30    1
   165   137   134    1
   166   117   116   ar
   167    28    27   ar
   168    27    26    1
   169    35    34    1
   170    35    36    1
   171   116   115    1
   172    12    13    2
   173    20    19    1
   174   131   129    1
   175    19    18    1
   176   130   129    1
   177   111   112    1
   178   113   112    1
   179   129   126    1
   180   134   133    1
   181   134   135    1
   182    18    15    1
   183    26    23    1
   184   112   115    1
   185    36    37    2
   186   125   126    1
   187   126   127    1
   188   135   136    2
   189    23    24    1
   190    23    22    1
   191    15    14    1
   192    15    16    1
   193    24    25    2
   194   127   128    2
   195    16    17    2
