@<TRIPOS>MOLECULE
tmp/4fsmA00.pdb
 146 136 0 0 0
SMALL
GASTEIGER

@<TRIPOS>ATOM
      1  N         18.5180   -9.1520    0.0990 N.3    11  GLN11      -0.1245
      2  CA        19.3300   -9.7780    1.1670 C.3    11  GLN11       0.1566
      3  C         18.5720   -9.8830    2.5000 C.2    11  GLN11       0.2260
      4  O         17.6710   -9.0810    2.7710 O.2    11  GLN11      -0.2867
      5  CB        20.6970   -9.0880    1.3800 C.3    11  GLN11       0.0367
      6  CG        20.6680   -7.6470    1.8860 C.3    11  GLN11       0.0905
      7  CD        22.0500   -7.0300    1.9610 C.2    11  GLN11       0.2608
      8  OE1       23.0070   -7.4730    1.3130 O.2    11  GLN11      -0.2717
      9  NE2       22.1790   -5.9580    2.7290 N.am   11  GLN11      -0.0878
     10  N         18.2020   -9.4260    6.3930 N.3    13  LEU13      -0.1231
     11  CA        18.6510   -8.4900    7.4230 C.3    13  LEU13       0.1693
     12  C         18.5990   -9.1120    8.8230 C.2    13  LEU13       0.2592
     13  O         19.3770   -8.7260    9.6920 O.2    13  LEU13      -0.2718
     14  CB        17.8030   -7.2050    7.3850 C.3    13  LEU13       0.0284
     15  CG        17.8490   -6.4030    6.0910 C.3    13  LEU13       0.0019
     16  CD1       16.8240   -5.2930    6.1110 C.3    13  LEU13       0.0001
     17  CD2       19.2600   -5.8680    5.8060 C.3    13  LEU13       0.0001
     18  N         17.6770  -10.0420    9.0280 N.am   14  GLY14      -0.1957
     19  CA        17.4960  -10.7130   10.3070 C.3    14  GLY14       0.1869
     20  C         16.4960  -11.8450   10.2370 C.2    14  GLY14       0.2309
     21  O         15.7020  -11.9080    9.2900 O.2    14  GLY14      -0.2863
     22  N         13.3680  -10.8090    8.1540 N.3    18  VAL18      -0.1245
     23  CA        13.3510   -9.4270    7.6700 C.3    18  VAL18       0.1561
     24  C         14.2820   -9.3850    6.4600 C.2    18  VAL18       0.2260
     25  O         15.4460   -9.7880    6.5600 O.2    18  VAL18      -0.2867
     26  CB        13.7080   -8.3570    8.7470 C.3    18  VAL18       0.0252
     27  CG1       13.7240   -6.9550    8.1440 C.3    18  VAL18       0.0019
     28  CG2       12.7380   -8.4150    9.9240 C.3    18  VAL18       0.0019
     29  N         12.6560   -2.3810    4.4800 N.3    31  ALA31      -0.1245
     30  CA        12.8440   -3.6680    5.1370 C.3    31  ALA31       0.1562
     31  C         11.4840   -4.3590    5.1800 C.2    31  ALA31       0.2260
     32  O         10.4890   -3.7350    5.5790 O.2    31  ALA31      -0.2867
     33  CB        13.4110   -3.4770    6.5370 C.3    31  ALA31       0.0290
     34  N          9.2620   -7.4270    6.6720 N.3    33  LYS33      -0.1245
     35  CA         9.1380   -8.4420    7.7100 C.3    33  LYS33       0.1561
     36  C          8.1420   -9.4830    7.2360 C.2    33  LYS33       0.2260
     37  O          6.9900   -9.1410    6.9390 O.2    33  LYS33      -0.2867
     38  CB         8.7150   -7.8170    9.0600 C.3    33  LYS33       0.0271
     39  CG         8.8450   -8.7670   10.2480 C.3    33  LYS33       0.0035
     40  CD         8.6910   -8.0540   11.5790 C.3    33  LYS33       0.0206
     41  CE         8.7850   -9.0120   12.7440 C.3    33  LYS33       0.1093
     42  NZ         8.7640   -8.3060   14.0530 N.3    33  LYS33      -0.1314
     43  N          0.8590   -6.0600   16.4900 N.3    40  GLU40      -0.1245
     44  CA         2.0650   -5.4320   15.9420 C.3    40  GLU40       0.1567
     45  C          1.7170   -4.4470   14.8470 C.2    40  GLU40       0.2260
     46  O          2.2740   -3.3470   14.8170 O.2    40  GLU40      -0.2867
     47  CB         3.0540   -6.4790   15.4040 C.3    40  GLU40       0.0388
     48  CG         4.4000   -5.8870   15.0060 C.3    40  GLU40       0.1160
     49  CD         5.5130   -6.8520   14.6450 C.2    40  GLU40       0.3649
     50  OE1        5.3680   -8.0650   14.9150 O.co2  40  GLU40      -0.2457
     51  OE2        6.5540   -6.3830   14.1300 O.co2  40  GLU40      -0.2457
     52  N         11.1460    3.3600   14.0370 N.3    53  VAL53      -0.1245
     53  CA        11.1800    2.7850   12.6940 C.3    53  VAL53       0.1561
     54  C          9.7940    2.9860   12.0350 C.2    53  VAL53       0.2260
     55  O          8.7700    2.6080   12.6070 O.2    53  VAL53      -0.2867
     56  CB        11.6160    1.2960   12.7440 C.3    53  VAL53       0.0252
     57  CG1       11.3060    0.5650   11.4420 C.3    53  VAL53       0.0019
     58  CG2       13.0950    1.1790   13.0890 C.3    53  VAL53       0.0019
     59  N          8.5380   -1.9750    6.3240 N.3    69  LEU69      -0.1231
     60  CA         9.1200   -1.1180    7.3460 C.3    69  LEU69       0.1693
     61  C         10.3770   -0.4220    6.8480 C.2    69  LEU69       0.2592
     62  O         10.8970   -0.7410    5.7770 O.2    69  LEU69      -0.2718
     63  CB         9.4150   -1.9570    8.6120 C.3    69  LEU69       0.0284
     64  CG         8.1820   -2.5910    9.2860 C.3    69  LEU69       0.0019
     65  CD1        8.4910   -3.9750    9.8040 C.3    69  LEU69       0.0001
     66  CD2        7.6120   -1.6960   10.3570 C.3    69  LEU69       0.0001
     67  N         10.8390    0.5570    7.6320 N.am   70  GLU70      -0.1966
     68  CA        11.9840    1.3930    7.3290 C.3    70  GLU70       0.1733
     69  C         13.2840    0.5970    7.2880 C.2    70  GLU70       0.2616
     70  O         13.5640   -0.2050    8.1900 O.2    70  GLU70      -0.2715
     71  CB        12.0890    2.5230    8.3680 C.3    70  GLU70       0.0429
     72  CG        13.2050    3.5310    8.1120 C.3    70  GLU70       0.1163
     73  CD        13.1940    4.7390    9.0290 C.2    70  GLU70       0.3649
     74  OE1       12.3520    4.7920    9.9560 O.co2  70  GLU70      -0.2457
     75  OE2       14.0400    5.6380    8.8180 O.co2  70  GLU70      -0.2457
     76  N         14.0740    0.8410    6.2400 N.am   71  TYR71      -0.1960
     77  CA        15.3950    0.2490    6.1180 C.3    71  TYR71       0.1771
     78  C         16.3580    1.2070    6.7630 C.2    71  TYR71       0.2620
     79  O         16.3720    2.3970    6.4390 O.2    71  TYR71      -0.2715
     80  CB        15.7830   -0.0660    4.6590 C.3    71  TYR71       0.0574
     81  CG        17.2270   -0.4970    4.4940 C.ar   71  TYR71      -0.0198
     82  CD1       17.6880   -1.6920    5.0440 C.ar   71  TYR71      -0.0009
     83  CD2       18.1330    0.2890    3.7910 C.ar   71  TYR71      -0.0009
     84  CE1       19.0120   -2.1030    4.8760 C.ar   71  TYR71       0.0417
     85  CE2       19.4590   -0.1030    3.6300 C.ar   71  TYR71       0.0417
     86  CZ        19.8930   -1.3050    4.1660 C.ar   71  TYR71       0.1957
     87  OH        21.1960   -1.7000    3.9950 O.3    71  TYR71      -0.2866
     88  N         17.1180    0.7070    7.7280 N.am   72  CYS72      -0.1954
     89  CA        18.0700    1.5240    8.4560 C.3    72  CYS72       0.1843
     90  C         19.4690    1.0360    8.0620 C.2    72  CYS72       0.2626
     91  O         19.8970   -0.0230    8.4950 O.2    72  CYS72      -0.2714
     92  CB        17.7900    1.4530    9.9580 C.3    72  CYS72       0.0997
     93  SG        16.0800    1.8780   10.4120 S.3    72  CYS72      -0.0797
     94  N         20.1130    1.7590    7.1210 N.am   73  SER73      -0.1936
     95  CA        21.3970    1.4080    6.4790 C.3    73  SER73       0.2055
     96  C         22.5910    1.3980    7.4480 C.2    73  SER73       0.2644
     97  O         23.5990    0.7500    7.1530 O.2    73  SER73      -0.2714
     98  CB        21.6860    2.3350    5.3000 C.3    73  SER73       0.2130
     99  OG        21.8910    3.6720    5.7230 O.3    73  SER73      -0.2179
    100  N         22.4670    2.0740    8.5910 N.am   74  GLY74      -0.1939
    101  CA        23.4890    2.0620    9.6320 C.3    74  GLY74       0.2014
    102  C         23.4910    0.7590   10.4180 C.2    74  GLY74       0.2639
    103  O         24.4230    0.4810   11.1780 O.2    74  GLY74      -0.2714
    104  N         22.4430   -0.0390   10.2490 N.am   75  GLY75      -0.1939
    105  CA        22.2910   -1.3320   10.9110 C.3    75  GLY75       0.2014
    106  C         21.9190   -1.2470   12.3770 C.2    75  GLY75       0.2638
    107  O         21.2430   -0.3100   12.7930 O.2    75  GLY75      -0.2714
    108  N         22.3610   -2.2260   13.1710 N.am   76  GLU76      -0.1977
    109  CA        22.0490   -2.3060   14.5850 C.3    76  GLU76       0.1602
    110  C         23.0530   -1.5800   15.4680 C.2    76  GLU76       0.2287
    111  O         24.2460   -1.6140   15.1890 O.2    76  GLU76      -0.2864
    112  CB        22.0030   -3.7800   15.0460 C.3    76  GLU76       0.0415
    113  CG        21.0080   -4.6730   14.3270 C.3    76  GLU76       0.1163
    114  CD        21.0120   -6.1180   14.7950 C.2    76  GLU76       0.3649
    115  OE1       21.7710   -6.4500   15.7360 O.co2  76  GLU76      -0.2457
    116  OE2       20.2210   -6.9140   14.2440 O.co2  76  GLU76      -0.2457
    117  N         25.9650   -3.7490   16.7620 N.3    79  ASP79      -0.1239
    118  CA        27.2180   -3.8480   15.9860 C.3    79  ASP79       0.1674
    119  C         28.0960   -2.6110   16.0900 C.2    79  ASP79       0.2266
    120  O         29.1150   -2.5480   15.4190 O.2    79  ASP79      -0.2867
    121  CB        26.9460   -4.1850   14.5220 C.3    79  ASP79       0.1410
    122  CG        26.2650   -5.5370   14.3720 C.2    79  ASP79       0.3668
    123  OD1       26.7380   -6.5200   15.0010 O.co2  79  ASP79      -0.2456
    124  OD2       25.2230   -5.5960   13.7020 O.co2  79  ASP79      -0.2456
    125  N         18.0350    0.4130   15.8510 N.3   122  LEU122     -0.1245
    126  CA        18.6220    0.5090   14.5190 C.3   122  LEU122      0.1561
    127  C         19.1060    1.9060   14.2280 C.2   122  LEU122      0.2260
    128  O         18.7580    2.8470   14.9410 O.2   122  LEU122     -0.2867
    129  CB        17.6390    0.0420   13.4370 C.3   122  LEU122      0.0270
    130  CG        16.9430   -1.3230   13.6670 C.3   122  LEU122      0.0019
    131  CD1       15.9250   -1.5580   12.6110 C.3   122  LEU122      0.0001
    132  CD2       17.9350   -2.5020   13.7370 C.3   122  LEU122      0.0001
    133  N         12.9180   -0.2830   17.1060 N.3   132  SER132     -0.1202
    134  CA        12.2060   -1.2270   16.2430 C.3   132  SER132      0.2020
    135  C         11.6460   -2.4280   17.0220 C.2   132  SER132      0.2618
    136  O         11.9950   -2.6380   18.2030 O.2   132  SER132     -0.2717
    137  CB        13.1340   -1.7160   15.1330 C.3   132  SER132      0.2103
    138  OG        14.0200   -2.7220   15.5900 O.3   132  SER132     -0.2182
    139  N         10.8170   -3.2520   16.3060 N.am  133  ASP133     -0.1973
    140  CA        10.1490   -4.4750   16.7440 C.3   133  ASP133      0.1709
    141  C          9.1110   -4.1870   17.8350 C.2   133  ASP133      0.2293
    142  O          9.4400   -4.0520   19.0210 O.2   133  ASP133     -0.2864
    143  CB        11.1570   -5.5550   17.1910 C.3   133  ASP133      0.1436
    144  CG        10.5930   -6.9630   17.3640 C.2   133  ASP133      0.3671
    145  OD1        9.3710   -7.1630   17.1160 O.co2 133  ASP133     -0.2456
    146  OD2       11.3640   -7.8600   17.7670 O.co2 133  ASP133     -0.2456
@<TRIPOS>BOND
     1     1     2    1
     2     2     5    1
     3     2     3    1
     4     8     7    2
     5     5     6    1
     6     6     7    1
     7     7     9   am
     8     3     4    2
     9    85    83   ar
    10    85    86   ar
    11    83    81   ar
    12    87    86    1
    13    86    84   ar
    14    29    30    1
    15    81    80    1
    16    81    82   ar
    17    80    77    1
    18    84    82   ar
    19    30    31    1
    20    30    33    1
    21    31    32    2
    22    98    99    1
    23    98    95    1
    24    62    61    2
    25    17    15    1
    26    15    16    1
    27    15    14    1
    28    77    76    1
    29    77    78    1
    30    76    69   am
    31    59    60    1
    32    10    11    1
    33    79    78    2
    34    24    25    2
    35    24    23    1
    36    95    94    1
    37    95    96    1
    38    34    35    1
    39    78    88   am
    40    61    60    1
    41    61    67   am
    42    37    36    2
    43    94    90   am
    44    97    96    2
    45    36    35    1
    46    69    68    1
    47    69    70    2
    48    68    67    1
    49    68    71    1
    50    60    63    1
    51    14    11    1
    52    11    12    1
    53    96   100   am
    54    23    22    1
    55    23    26    1
    56    35    38    1
    57    88    89    1
    58    90    89    1
    59    90    91    2
    60    72    71    1
    61    72    73    1
    62    27    26    1
    63    89    92    1
    64   100   101    1
    65    63    64    1
    66    26    28    1
    67    75    73   ar
    68    12    18   am
    69    12    13    2
    70    18    19    1
    71    73    74   ar
    72    38    39    1
    73    64    65    1
    74    64    66    1
    75    21    20    2
    76   101   102    1
    77    92    93    1
    78    20    19    1
    79    39    40    1
    80   104   102   am
    81   104   105    1
    82   102   103    2
    83   105   106    1
    84    57    56    1
    85    40    41    1
    86    54    55    2
    87    54    53    1
    88   106   107    2
    89   106   108   am
    90   131   130    1
    91    53    56    1
    92    53    52    1
    93    41    42    1
    94    56    58    1
    95   108   109    1
    96   129   130    1
    97   129   126    1
    98   130   132    1
    99   124   122   ar
   100    51    49   ar
   101   127   126    1
   102   127   128    2
   103   116   114   ar
   104   113   114    1
   105   113   112    1
   106   122   121    1
   107   122   123   ar
   108   126   125    1
   109   121   118    1
   110   109   112    1
   111   109   110    1
   112    49    50   ar
   113    49    48    1
   114   114   115   ar
   115    46    45    2
   116    45    44    1
   117    48    47    1
   118   137   138    1
   119   137   134    1
   120   111   110    2
   121    47    44    1
   122   120   119    2
   123    44    43    1
   124   118   119    1
   125   118   117    1
   126   134   135    1
   127   134   133    1
   128   139   140    1
   129   139   135   am
   130   140   143    1
   131   140   141    1
   132   135   136    2
   133   145   144   ar
   134   143   144    1
   135   144   146   ar
   136   141   142    2
