@<TRIPOS>MOLECULE
tmp/4fsoA03.pdb
 85 78 0 0 0
SMALL
GASTEIGER

@<TRIPOS>ATOM
      1  N          7.7420   25.2540   46.8690 N.3   153  GLY153     -0.1210
      2  CA         8.7920   25.7660   46.0100 C.3   153  GLY153      0.1956
      3  C         10.0980   26.1510   46.6890 C.2   153  GLY153      0.2611
      4  O         10.9740   26.7180   46.0410 O.2   153  GLY153     -0.2717
      5  N         10.2560   25.8510   47.9770 N.am  154  LEU154     -0.1979
      6  CA        11.4320   26.3560   48.6720 C.3   154  LEU154      0.1596
      7  C         11.8900   25.5930   49.9130 C.2   154  LEU154      0.2287
      8  O         11.1350   25.3760   50.8530 O.2   154  LEU154     -0.2864
      9  CB        11.2450   27.8280   49.0100 C.3   154  LEU154      0.0297
     10  CG        12.3310   28.4530   49.8840 C.3   154  LEU154      0.0022
     11  CD1       13.6900   28.5120   49.1600 C.3   154  LEU154      0.0001
     12  CD2       11.8820   29.8330   50.3900 C.3   154  LEU154      0.0001
     13  N         19.8430   26.8550   50.0860 N.3   174  ALA174     -0.1231
     14  CA        18.4850   27.1860   49.6780 C.3   174  ALA174      0.1694
     15  C         18.2500   26.6910   48.2570 C.2   174  ALA174      0.2592
     16  O         18.9550   27.0790   47.3380 O.2   174  ALA174     -0.2718
     17  CB        18.2170   28.6960   49.7960 C.3   174  ALA174      0.0304
     18  N         17.2730   25.8050   48.0940 N.am  175  VAL175     -0.1966
     19  CA        16.9080   25.2660   46.7850 C.3   175  VAL175      0.1730
     20  C         15.4540   25.5460   46.5070 C.2   175  VAL175      0.2656
     21  O         14.6680   25.8010   47.4220 O.2   175  VAL175     -0.2711
     22  CB        17.0630   23.7210   46.6800 C.3   175  VAL175      0.0290
     23  CG1       18.0330   23.3460   45.5830 C.3   175  VAL175      0.0023
     24  CG2       17.4280   23.0760   48.0220 C.3   175  VAL175      0.0023
     25  N         15.0860   25.4580   45.2370 N.am  176  GLY176     -0.1716
     26  CA        13.7030   25.6500   44.8530 C.2   176  GLY176      0.1480
     27  C         13.4540   25.7380   43.3590 C.2   176  GLY176      0.2820
     28  O         14.3160   26.1400   42.5800 O.2   176  GLY176     -0.2669
     29  N         12.2500   25.3480   42.9670 N.am  177  LYS177     -0.1929
     30  CA        11.8330   25.4100   41.5820 C.3   177  LYS177      0.1731
     31  C         10.5540   26.2420   41.4950 C.2   177  LYS177      0.2616
     32  O          9.7760   26.3180   42.4390 O.2   177  LYS177     -0.2715
     33  CB        11.6240   23.9960   41.0280 C.3   177  LYS177      0.0312
     34  CG        12.9310   23.3130   40.7580 C.3   177  LYS177      0.0038
     35  CD        12.4560   22.1150   39.9800 C.3   177  LYS177      0.0206
     36  CE        13.2060   20.8630   40.2920 C.3   177  LYS177      0.1093
     37  NZ        14.6320   20.9870   40.0830 N.3   177  LYS177     -0.1314
     38  N         10.3480   26.8900   40.3630 N.am  178  ARG178     -0.1977
     39  CA         9.1740   27.7320   40.1870 C.3   178  ARG178      0.1597
     40  C          8.7560   27.6860   38.7240 C.2   178  ARG178      0.2287
     41  O          9.5980   27.7910   37.8220 O.2   178  ARG178     -0.2864
     42  CB         9.4770   29.1690   40.6310 C.3   178  ARG178      0.0334
     43  CG         8.4920   30.2290   40.1440 C.3   178  ARG178      0.0492
     44  CD         8.7850   31.6040   40.7630 C.3   178  ARG178      0.2205
     45  NE        10.1460   32.1050   40.5130 N.pl3 178  ARG178     -0.0865
     46  CZ        11.1120   32.1710   41.4310 C.cat 178  ARG178      0.5346
     47  NH1       10.8910   31.7550   42.6730 N.pl3 178  ARG178      0.1354
     48  NH2       12.2880   32.6940   41.1160 N.pl3 178  ARG178      0.1354
     49  N         11.7960   27.2550   36.4820 N.3   185  LEU185     -0.1245
     50  CA        13.0100   27.9760   36.8500 C.3   185  LEU185      0.1561
     51  C         13.5860   27.5240   38.1960 C.2   185  LEU185      0.2260
     52  O         12.8650   27.4080   39.1750 O.2   185  LEU185     -0.2867
     53  CB        12.7240   29.4630   36.8940 C.3   185  LEU185      0.0270
     54  CG        13.9050   30.2350   37.4530 C.3   185  LEU185      0.0019
     55  CD1       14.9000   30.4820   36.3280 C.3   185  LEU185      0.0001
     56  CD2       13.4710   31.5210   38.1430 C.3   185  LEU185      0.0001
     57  N         16.7900   27.5750   41.2790 N.3   187  ALA187     -0.1245
     58  CA        17.9070   28.2460   41.9270 C.3   187  ALA187      0.1562
     59  C         18.4630   27.3790   43.0540 C.2   187  ALA187      0.2260
     60  O         17.7180   26.8070   43.8380 O.2   187  ALA187     -0.2867
     61  CB        17.4630   29.5960   42.4620 C.3   187  ALA187      0.0290
     62  N         21.3410   27.6180   46.0340 N.3   189  LEU189     -0.1245
     63  CA        22.3020   28.4150   46.7760 C.3   189  LEU189      0.1561
     64  C         22.9670   27.6100   47.8830 C.2   189  LEU189      0.2260
     65  O         22.2870   27.0500   48.7330 O.2   189  LEU189     -0.2867
     66  CB        21.6130   29.6300   47.3780 C.3   189  LEU189      0.0270
     67  CG        22.6000   30.5450   48.0920 C.3   189  LEU189      0.0019
     68  CD1       23.6770   31.0100   47.1290 C.3   189  LEU189      0.0001
     69  CD2       21.8680   31.7320   48.6680 C.3   189  LEU189      0.0001
     70  N         26.3270   29.2290   43.4900 N.3   212  LEU212     -0.1245
     71  CA        24.9750   29.5150   43.0770 C.3   212  LEU212      0.1561
     72  C         24.7650   28.9310   41.6810 C.2   212  LEU212      0.2260
     73  O         25.5230   29.2020   40.7370 O.2   212  LEU212     -0.2867
     74  CB        24.7430   31.0170   43.0890 C.3   212  LEU212      0.0270
     75  CG        23.4570   31.5270   42.4520 C.3   212  LEU212      0.0019
     76  CD1       22.2270   31.0460   43.2240 C.3   212  LEU212      0.0001
     77  CD2       23.5320   33.0290   42.4230 C.3   212  LEU212      0.0001
     78  N         21.7310   28.4410   38.7400 N.3   214  LEU214     -0.1245
     79  CA        20.4130   28.8020   38.2250 C.3   214  LEU214      0.1561
     80  C         20.0840   27.9900   36.9680 C.2   214  LEU214      0.2260
     81  O         20.9220   27.8740   36.0640 O.2   214  LEU214     -0.2867
     82  CB        20.3930   30.2810   37.8600 C.3   214  LEU214      0.0270
     83  CG        19.8510   31.2810   38.8670 C.3   214  LEU214      0.0019
     84  CD1       20.1950   30.8740   40.2890 C.3   214  LEU214      0.0001
     85  CD2       20.4400   32.6340   38.5270 C.3   214  LEU214      0.0001
@<TRIPOS>BOND
     1    81    80    2
     2    55    54    1
     3    49    50    1
     4    50    53    1
     5    50    51    1
     6    53    54    1
     7    80    79    1
     8    54    56    1
     9    41    40    2
    10    82    79    1
    11    82    83    1
    12    51    52    2
    13    79    78    1
    14    85    83    1
    15    40    39    1
    16    83    84    1
    17    35    36    1
    18    35    34    1
    19    37    36    1
    20    43    42    1
    21    43    44    1
    22    39    38    1
    23    39    42    1
    24    38    31   am
    25    45    44    1
    26    45    46    2
    27    73    72    2
    28    34    33    1
    29    33    30    1
    30    48    46    1
    31    57    58    1
    32    46    47    1
    33    31    30    1
    34    31    32    2
    35    30    29    1
    36    72    71    1
    37    58    61    1
    38    58    59    1
    39    77    75    1
    40    75    74    1
    41    75    76    1
    42    28    27    2
    43    29    27   am
    44    59    60    2
    45    71    74    1
    46    71    70    1
    47    27    26    1
    48    26    25    2
    49    25    20    1
    50    23    22    1
    51     2     3    1
    52     2     1    1
    53    62    63    1
    54     4     3    2
    55    20    19    1
    56    20    21    2
    57    22    19    1
    58    22    24    1
    59     3     5   am
    60    63    66    1
    61    63    64    1
    62    19    18    1
    63    68    67    1
    64    16    15    2
    65    66    67    1
    66    64    65    2
    67     5     6    1
    68    67    69    1
    69    18    15   am
    70    15    14    1
    71     6     9    1
    72     6     7    1
    73     9    10    1
    74    11    10    1
    75    14    17    1
    76    14    13    1
    77    10    12    1
    78     7     8    2
