@<TRIPOS>MOLECULE
tmp/4fsoA05.pdb
 121 116 0 0 0
SMALL
GASTEIGER

@<TRIPOS>ATOM
      1  N          7.3350    0.4920   68.0980 N.3    40  LEU40      -0.1245
      2  CA         8.7570    0.5790   67.8090 C.3    40  LEU40       0.1561
      3  C          9.0840   -0.5720   66.8620 C.2    40  LEU40       0.2260
      4  O          8.8700   -1.7330   67.1940 O.2    40  LEU40      -0.2867
      5  CB         9.5690    0.4740   69.1040 C.3    40  LEU40       0.0270
      6  CG        11.0930    0.4330   69.0230 C.3    40  LEU40       0.0019
      7  CD1       11.6110    1.7240   68.4250 C.3    40  LEU40       0.0001
      8  CD2       11.7180    0.1690   70.3930 C.3    40  LEU40       0.0001
      9  N         16.0400    1.2580   63.9010 N.3    63  MET63      -0.1230
     10  CA        14.7710    1.3200   64.6220 C.3    63  MET63       0.1702
     11  C         13.9530    2.4810   64.1090 C.2    63  MET63       0.2592
     12  O         14.4760    3.3970   63.4740 O.2    63  MET63      -0.2718
     13  CB        14.9610    1.5310   66.1100 C.3    63  MET63       0.0401
     14  CG        15.9270    0.6100   66.7730 C.3    63  MET63       0.0596
     15  SD        16.5970    1.5370   68.1570 S.3    63  MET63      -0.1393
     16  CE        15.1050    2.3720   68.6500 C.3    63  MET63       0.0692
     17  N         12.6700    2.4580   64.4320 N.am   64  ARG64      -0.1966
     18  CA        11.7530    3.4870   63.9900 C.3    64  ARG64       0.1729
     19  C         10.6090    3.5940   64.9970 C.2    64  ARG64       0.2616
     20  O         10.1100    2.5910   65.5090 O.2    64  ARG64      -0.2715
     21  CB        11.2570    3.1450   62.5840 C.3    64  ARG64       0.0348
     22  CG        10.0920    3.9390   62.0450 C.3    64  ARG64       0.0492
     23  CD         9.1030    2.9840   61.3630 C.3    64  ARG64       0.2205
     24  NE         8.4240    2.1020   62.3190 N.pl3  64  ARG64      -0.0865
     25  CZ         7.5190    1.1810   61.9860 C.cat  64  ARG64       0.5346
     26  NH1        7.1910    1.0020   60.7110 N.pl3  64  ARG64       0.1354
     27  NH2        6.9510    0.4220   62.9250 N.pl3  64  ARG64       0.1354
     28  N         10.2510    4.8260   65.3200 N.am   65  PHE65      -0.1974
     29  CA         9.0330    5.1290   66.0420 C.3    65  PHE65       0.1639
     30  C          8.5120    6.4480   65.5050 C.2    65  PHE65       0.2290
     31  O          9.2940    7.3680   65.2400 O.2    65  PHE65      -0.2864
     32  CB         9.2760    5.2600   67.5400 C.3    65  PHE65       0.0560
     33  CG         8.0690    5.7400   68.2860 C.ar   65  PHE65      -0.0200
     34  CD1        7.8780    7.0880   68.5330 C.ar   65  PHE65      -0.0042
     35  CD2        7.1010    4.8480   68.7050 C.ar   65  PHE65      -0.0042
     36  CE1        6.7500    7.5380   69.1950 C.ar   65  PHE65      -0.0003
     37  CE2        5.9730    5.2920   69.3770 C.ar   65  PHE65      -0.0003
     38  CZ         5.7980    6.6410   69.6190 C.ar   65  PHE65      -0.0000
     39  N         10.4960    9.1120   63.4320 N.3    68  THR68      -0.1203
     40  CA        11.8730    9.1790   63.8700 C.3    68  THR68       0.1994
     41  C         12.5430    7.8170   63.6380 C.2    68  THR68       0.2618
     42  O         11.9390    6.7670   63.8740 O.2    68  THR68      -0.2717
     43  CB        11.9170    9.5770   65.3670 C.3    68  THR68       0.1784
     44  OG1       11.3560   10.8870   65.5310 O.3    68  THR68      -0.2211
     45  CG2       13.3390    9.5560   65.9190 C.3    68  THR68       0.0376
     46  N         13.7830    7.8300   63.1610 N.am   69  GLN69      -0.1965
     47  CA        14.4850    6.5860   62.8940 C.3    69  GLN69       0.1733
     48  C         15.9730    6.6520   63.2330 C.2    69  GLN69       0.2616
     49  O         16.6170    7.6910   63.0920 O.2    69  GLN69      -0.2715
     50  CB        14.2550    6.1430   61.4460 C.3    69  GLN69       0.0408
     51  CG        14.0950    7.2950   60.4840 C.3    69  GLN69       0.0908
     52  CD        12.9590    7.0870   59.5010 C.2    69  GLN69       0.2608
     53  OE1       12.0940    7.9570   59.3390 O.2    69  GLN69      -0.2717
     54  NE2       12.9590    5.9380   58.8280 N.am   69  GLN69      -0.0878
     55  N         16.5060    5.5330   63.7080 N.am   70  PHE70      -0.1974
     56  CA        17.9020    5.4490   64.1020 C.3    70  PHE70       0.1639
     57  C         18.5260    4.2970   63.3360 C.2    70  PHE70       0.2290
     58  O         17.8610    3.3170   63.0450 O.2    70  PHE70      -0.2864
     59  CB        18.0280    5.2310   65.6240 C.3    70  PHE70       0.0560
     60  CG        19.4460    5.0090   66.0930 C.ar   70  PHE70      -0.0200
     61  CD1       20.3560    6.0610   66.1270 C.ar   70  PHE70      -0.0042
     62  CD2       19.8740    3.7480   66.4820 C.ar   70  PHE70      -0.0042
     63  CE1       21.6680    5.8590   66.5430 C.ar   70  PHE70      -0.0003
     64  CE2       21.1830    3.5370   66.8990 C.ar   70  PHE70      -0.0003
     65  CZ        22.0810    4.5970   66.9310 C.ar   70  PHE70      -0.0000
     66  N         26.4520    5.9830   62.9440 N.3    97  ALA97      -0.1245
     67  CA        25.1110    6.0830   63.4920 C.3    97  ALA97       0.1562
     68  C         24.3860    7.2520   62.8490 C.2    97  ALA97       0.2260
     69  O         24.9690    8.3260   62.6090 O.2    97  ALA97      -0.2867
     70  CB        25.1780    6.2750   65.0090 C.3    97  ALA97       0.0290
     71  N         20.6280    9.2970   63.2430 N.3    99  LEU99      -0.1245
     72  CA        19.2790    9.6030   63.7010 C.3    99  LEU99       0.1561
     73  C         18.6510   10.6320   62.7740 C.2    99  LEU99       0.2260
     74  O         19.2240   11.6980   62.5540 O.2    99  LEU99      -0.2867
     75  CB        19.3350   10.1840   65.1050 C.3    99  LEU99       0.0270
     76  CG        18.0180   10.7200   65.6490 C.3    99  LEU99       0.0019
     77  CD1       17.0860    9.5580   65.9390 C.3    99  LEU99       0.0001
     78  CD2       18.2330   11.5930   66.8840 C.3    99  LEU99       0.0001
     79  N         21.1220   13.6580   62.6210 N.3   111  ALA111     -0.1231
     80  CA        22.4010   13.6640   63.3180 C.3   111  ALA111      0.1694
     81  C         23.1900   12.4310   62.9260 C.2   111  ALA111      0.2593
     82  O         22.6290   11.3430   62.7520 O.2   111  ALA111     -0.2718
     83  CB        22.1890   13.7110   64.8280 C.3   111  ALA111      0.0304
     84  N         24.5000   12.5840   62.8130 N.am  112  THR112     -0.1939
     85  CA        25.3050   11.5200   62.2590 C.3   112  THR112      0.2028
     86  C         26.7220   11.5370   62.8080 C.2   112  THR112      0.2642
     87  O         27.4060   12.5550   62.7750 O.2   112  THR112     -0.2714
     88  CB        25.3600   11.6530   60.7210 C.3   112  THR112      0.1808
     89  OG1       24.0430   11.4870   60.1790 O.3   112  THR112     -0.2208
     90  CG2       26.3020   10.6290   60.1140 C.3   112  THR112      0.0379
     91  N         27.1640   10.3860   63.2870 N.am  113  ARG113     -0.1977
     92  CA        28.5130   10.2300   63.8030 C.3   113  ARG113      0.1597
     93  C         29.2100    9.0740   63.0800 C.2   113  ARG113      0.2287
     94  O         28.7120    7.9290   63.0550 O.2   113  ARG113     -0.2864
     95  CB        28.4620    9.9940   65.3220 C.3   113  ARG113      0.0334
     96  CG        29.7730    9.4970   65.9270 C.3   113  ARG113      0.0492
     97  CD        29.7250    9.5140   67.4520 C.3   113  ARG113      0.2205
     98  NE        29.3160   10.8140   67.9860 N.pl3 113  ARG113     -0.0865
     99  CZ        30.0630   11.5660   68.7900 C.cat 113  ARG113      0.5346
    100  NH1       31.2670   11.1480   69.1590 N.pl3 113  ARG113      0.1354
    101  NH2       29.6050   12.7330   69.2300 N.pl3 113  ARG113      0.1354
    102  N         31.2600   14.0950   62.6920 N.3   142  ASP142     -0.1239
    103  CA        29.9290   14.4360   63.1690 C.3   142  ASP142      0.1674
    104  C         29.2990   15.4220   62.1940 C.2   142  ASP142      0.2266
    105  O         29.9900   16.2200   61.5630 O.2   142  ASP142     -0.2867
    106  CB        29.9940   15.0370   64.5970 C.3   142  ASP142      0.1410
    107  CG        30.5840   14.0550   65.6490 C.2   142  ASP142      0.3668
    108  OD1       31.5640   14.4180   66.3540 O.co2 142  ASP142     -0.2456
    109  OD2       30.0590   12.9250   65.7840 O.co2 142  ASP142     -0.2456
    110  N         25.2090   17.5630   61.8600 N.3   144  TYR144     -0.1241
    111  CA        23.8710   17.7330   62.4070 C.3   144  TYR144      0.1605
    112  C         23.2610   18.6350   61.3910 C.2   144  TYR144      0.2264
    113  O         23.9380   19.5530   60.9120 O.2   144  TYR144     -0.2867
    114  CB        23.8860   18.4240   63.7830 C.3   144  TYR144      0.0534
    115  CG        24.7560   17.7130   64.8020 C.ar  144  TYR144     -0.0201
    116  CD1       26.1210   18.0070   64.9230 C.ar  144  TYR144     -0.0009
    117  CD2       24.2170   16.7370   65.6440 C.ar  144  TYR144     -0.0009
    118  CE1       26.9150   17.3480   65.8450 C.ar  144  TYR144      0.0417
    119  CE2       25.0060   16.0730   66.5800 C.ar  144  TYR144      0.0417
    120  CZ        26.3510   16.3760   66.6710 C.ar  144  TYR144      0.1957
    121  OH        27.1210   15.7050   67.5970 O.3   144  TYR144     -0.2866
@<TRIPOS>BOND
     1    54    52   am
     2    53    52    2
     3    52    51    1
     4    90    88    1
     5    89    88    1
     6    51    50    1
     7    26    25    1
     8    88    85    1
     9   113   112    2
    10    23    22    1
    11    23    24    1
    12   112   111    1
    13    50    47    1
    14   105   104    2
    15   110   111    1
    16    25    24    2
    17    25    27    1
    18    22    21    1
    19   104   103    1
    20    85    86    1
    21    85    84    1
    22   111   114    1
    23    74    73    2
    24    21    18    1
    25    69    68    2
    26    79    80    1
    27   102   103    1
    28    82    81    2
    29    73    72    1
    30    87    86    2
    31    86    91   am
    32    84    81   am
    33    68    67    1
    34    47    46    1
    35    47    48    1
    36    81    80    1
    37    66    67    1
    38    58    57    2
    39    94    93    2
    40    93    92    1
    41    49    48    2
    42    46    41   am
    43   103   106    1
    44    48    55   am
    45    71    72    1
    46    91    92    1
    47    80    83    1
    48    57    56    1
    49    39    40    1
    50    12    11    2
    51    67    70    1
    52    41    40    1
    53    41    42    2
    54    72    75    1
    55    55    56    1
    56   114   115    1
    57    92    95    1
    58    40    43    1
    59     9    10    1
    60    18    17    1
    61    18    19    1
    62    56    59    1
    63    11    17   am
    64    11    10    1
    65   106   107    1
    66    10    13    1
    67   115   116   ar
    68   115   117   ar
    69   116   118   ar
    70    19    28   am
    71    19    20    2
    72    75    76    1
    73    31    30    2
    74    28    29    1
    75    95    96    1
    76    43    44    1
    77    43    45    1
    78    30    29    1
    79    59    60    1
    80   117   119   ar
    81   107   109   ar
    82   107   108   ar
    83    76    77    1
    84    76    78    1
    85   118   120   ar
    86    96    97    1
    87    29    32    1
    88    60    61   ar
    89    60    62   ar
    90    13    14    1
    91    61    63   ar
    92    62    64   ar
    93    63    65   ar
    94   119   120   ar
    95   120   121    1
    96    14    15    1
    97     3     4    2
    98     3     2    1
    99    64    65   ar
   100    97    98    1
   101    32    33    1
   102     2     1    1
   103     2     5    1
   104    98    99    2
   105    15    16    1
   106    33    34   ar
   107    33    35   ar
   108     7     6    1
   109    34    36   ar
   110    35    37   ar
   111    99   100    1
   112    99   101    1
   113     6     5    1
   114     6     8    1
   115    36    38   ar
   116    37    38   ar
