@<TRIPOS>MOLECULE
tmp/4fspA05.pdb
 80 75 0 0 0
SMALL
GASTEIGER

@<TRIPOS>ATOM
      1  N        -21.1800   41.2250    2.7530 N.3   123  LEU123     -0.1245
      2  CA       -22.5250   41.7520    2.8320 C.3   123  LEU123      0.1561
      3  C        -23.2190   41.4500    1.5230 C.2   123  LEU123      0.2260
      4  O        -22.6020   41.4890    0.4500 O.2   123  LEU123     -0.2867
      5  CB       -22.4740   43.2650    3.0110 C.3   123  LEU123      0.0270
      6  CG       -22.7410   43.8090    4.4040 C.3   123  LEU123      0.0019
      7  CD1      -21.8510   45.0230    4.6610 C.3   123  LEU123      0.0001
      8  CD2      -24.2090   44.1860    4.4810 C.3   123  LEU123      0.0001
      9  N        -31.1780   40.2160    2.3700 N.3   156  ALA156     -0.1231
     10  CA       -30.0450   40.9620    2.8760 C.3   156  ALA156      0.1694
     11  C        -29.3050   40.0330    3.8050 C.2   156  ALA156      0.2593
     12  O        -29.9180   39.2280    4.5080 O.2   156  ALA156     -0.2718
     13  CB       -30.5080   42.1940    3.6350 C.3   156  ALA156      0.0304
     14  N        -27.9850   40.1420    3.8210 N.am  157  GLY157     -0.1942
     15  CA       -27.2340   39.2920    4.6990 C.3   157  GLY157      0.2014
     16  C        -25.8290   39.7610    4.9880 C.2   157  GLY157      0.2638
     17  O        -25.3260   40.7440    4.4190 O.2   157  GLY157     -0.2714
     18  N        -25.1890   38.9910    5.8570 N.am  158  LEU158     -0.1977
     19  CA       -23.8760   39.2830    6.3750 C.3   158  LEU158      0.1596
     20  C        -23.2410   37.9350    6.7410 C.2   158  LEU158      0.2287
     21  O        -23.8880   37.0710    7.3420 O.2   158  LEU158     -0.2864
     22  CB       -24.0480   40.1940    7.5930 C.3   158  LEU158      0.0297
     23  CG       -22.9100   40.6100    8.5160 C.3   158  LEU158      0.0022
     24  CD1      -23.3420   41.8560    9.2940 C.3   158  LEU158      0.0001
     25  CD2      -22.5800   39.5010    9.4900 C.3   158  LEU158      0.0001
     26  N        -25.7660   35.9830    9.3400 N.3   170  TYR170     -0.1241
     27  CA       -27.1490   36.4090    9.5010 C.3   170  TYR170      0.1605
     28  C        -27.7450   36.6830    8.1250 C.2   170  TYR170      0.2264
     29  O        -27.1280   37.3680    7.3010 O.2   170  TYR170     -0.2867
     30  CB       -27.2570   37.6850   10.3520 C.3   170  TYR170      0.0534
     31  CG       -28.6480   38.2400   10.2840 C.ar  170  TYR170     -0.0201
     32  CD1      -29.6340   37.7810   11.1400 C.ar  170  TYR170     -0.0009
     33  CD2      -29.0000   39.1770    9.3150 C.ar  170  TYR170     -0.0009
     34  CE1      -30.9350   38.2650   11.0520 C.ar  170  TYR170      0.0417
     35  CE2      -30.2850   39.6420    9.2050 C.ar  170  TYR170      0.0417
     36  CZ       -31.2510   39.1960   10.0790 C.ar  170  TYR170      0.1957
     37  OH       -32.5330   39.6970    9.9600 O.3   170  TYR170     -0.2866
     38  N        -31.6450   37.6560    6.0350 N.3   172  TYR172     -0.1241
     39  CA       -33.0540   38.0060    6.0810 C.3   172  TYR172      0.1605
     40  C        -33.6560   37.7670    4.7000 C.2   172  TYR172      0.2264
     41  O        -33.0660   38.1390    3.6860 O.2   172  TYR172     -0.2867
     42  CB       -33.2230   39.4760    6.4740 C.3   172  TYR172      0.0534
     43  CG       -34.6580   39.9100    6.4660 C.ar  172  TYR172     -0.0201
     44  CD1      -35.4700   39.7030    7.5750 C.ar  172  TYR172     -0.0009
     45  CD2      -35.2130   40.5190    5.3480 C.ar  172  TYR172     -0.0009
     46  CE1      -36.7930   40.0930    7.5700 C.ar  172  TYR172      0.0417
     47  CE2      -36.5310   40.9120    5.3310 C.ar  172  TYR172      0.0417
     48  CZ       -37.3230   40.6900    6.4470 C.ar  172  TYR172      0.1957
     49  OH       -38.6450   41.0780    6.4550 O.3   172  TYR172     -0.2866
     50  N        -37.5920   37.7820    2.5380 N.3   174  GLU174     -0.1245
     51  CA       -39.0020   38.1200    2.6340 C.3   174  GLU174      0.1567
     52  C        -39.6810   37.9280    1.2950 C.2   174  GLU174      0.2260
     53  O        -39.3380   38.6120    0.3260 O.2   174  GLU174     -0.2867
     54  CB       -39.1530   39.5860    3.0970 C.3   174  GLU174      0.0388
     55  CG       -40.5900   40.0820    3.1270 C.3   174  GLU174      0.1160
     56  CD       -40.7180   41.5140    3.6180 C.2   174  GLU174      0.3649
     57  OE1      -39.8550   41.9670    4.4070 O.co2 174  GLU174     -0.2457
     58  OE2      -41.6830   42.1940    3.2080 O.co2 174  GLU174     -0.2457
     59  N        -41.6170   36.4620    6.1590 N.3   180  ALA180     -0.1245
     60  CA       -40.2440   36.9130    6.3350 C.3   180  ALA180      0.1562
     61  C        -39.5560   35.8540    7.1680 C.2   180  ALA180      0.2260
     62  O        -40.1640   35.2940    8.0760 O.2   180  ALA180     -0.2867
     63  CB       -40.1960   38.2470    7.0670 C.3   180  ALA180      0.0290
     64  N        -35.8880   35.0310    9.3640 N.3   182  HIS182     -0.1241
     65  CA       -34.5840   35.4340    9.8830 C.3   182  HIS182      0.1621
     66  C        -33.7430   34.1780   10.0380 C.2   182  HIS182      0.2264
     67  O        -34.2310   33.1630   10.5280 O.2   182  HIS182     -0.2867
     68  CB       -34.7190   36.1220   11.2510 C.3   182  HIS182      0.0745
     69  CG       -35.4560   37.4250   11.2120 C.ar  182  HIS182      0.0817
     70  ND1      -34.8280   38.6330   10.9790 N.ar  182  HIS182     -0.2268
     71  CD2      -36.7660   37.7190   11.3970 C.ar  182  HIS182      0.1154
     72  CE1      -35.7180   39.6050   11.0130 C.ar  182  HIS182      0.1986
     73  NE2      -36.9060   39.0800   11.2690 N.ar  182  HIS182     -0.2212
     74  N        -46.1960   37.9460    6.8570 N.3   209  THR209     -0.1218
     75  CA       -45.9940   39.3860    6.8300 C.3   209  THR209      0.1862
     76  C        -46.9650   40.0340    5.8630 C.2   209  THR209      0.2287
     77  O        -47.3970   39.4000    4.8940 O.2   209  THR209     -0.2866
     78  CB       -44.5440   39.7210    6.4350 C.3   209  THR209      0.1770
     79  OG1      -44.2900   41.1110    6.6620 O.3   209  THR209     -0.2211
     80  CG2      -44.3090   39.3860    4.9770 C.3   209  THR209      0.0375
@<TRIPOS>BOND
     1    53    52    2
     2     4     3    2
     3    52    51    1
     4     3     2    1
     5     9    10    1
     6    50    51    1
     7    51    54    1
     8     1     2    1
     9     2     5    1
    10    10    13    1
    11    10    11    1
    12     5     6    1
    13    54    55    1
    14    55    56    1
    15    58    56   ar
    16    56    57   ar
    17    41    40    2
    18    11    14   am
    19    11    12    2
    20    14    15    1
    21     6     8    1
    22     6     7    1
    23    17    16    2
    24    15    16    1
    25    40    39    1
    26    77    76    2
    27    80    78    1
    28    16    18   am
    29    47    45   ar
    30    47    48   ar
    31    45    43   ar
    32    18    19    1
    33    76    75    1
    34    38    39    1
    35    39    42    1
    36    59    60    1
    37    60    63    1
    38    60    61    1
    39    19    20    1
    40    19    22    1
    41    78    79    1
    42    78    75    1
    43    48    49    1
    44    48    46   ar
    45    43    42    1
    46    43    44   ar
    47    20    21    2
    48    75    74    1
    49    61    62    2
    50    29    28    2
    51    46    44   ar
    52    22    23    1
    53    28    27    1
    54    23    24    1
    55    23    25    1
    56    35    33   ar
    57    35    36   ar
    58    33    31   ar
    59    26    27    1
    60    64    65    1
    61    27    30    1
    62    65    66    1
    63    65    68    1
    64    37    36    1
    65    66    67    2
    66    36    34   ar
    67    31    30    1
    68    31    32   ar
    69    70    72   ar
    70    70    69   ar
    71    72    73   ar
    72    34    32   ar
    73    69    68    1
    74    69    71   ar
    75    73    71   ar
