@<TRIPOS>MOLECULE
tmp/4fsqA00.pdb
 164 154 0 0 0
SMALL
GASTEIGER

@<TRIPOS>ATOM
      1  N         18.1170   -9.6160    6.5170 N.3    13  LEU13      -0.1231
      2  CA        18.5570   -8.6500    7.5130 C.3    13  LEU13       0.1693
      3  C         18.5210   -9.2360    8.9340 C.2    13  LEU13       0.2592
      4  O         19.3730   -8.8930    9.7470 O.2    13  LEU13      -0.2718
      5  CB        17.7090   -7.3730    7.4400 C.3    13  LEU13       0.0284
      6  CG        17.8330   -6.5360    6.1760 C.3    13  LEU13       0.0019
      7  CD1       16.8090   -5.4260    6.1780 C.3    13  LEU13       0.0001
      8  CD2       19.2520   -5.9690    6.0020 C.3    13  LEU13       0.0001
      9  N         17.5440  -10.0970    9.2080 N.am   14  GLY14      -0.1957
     10  CA        17.3680  -10.7430   10.5050 C.3    14  GLY14       0.1869
     11  C         16.3630  -11.8740   10.4830 C.2    14  GLY14       0.2309
     12  O         15.7410  -12.1360    9.4520 O.2    14  GLY14      -0.2863
     13  N         13.3160  -10.9550    8.2100 N.3    17  VAL17      -0.1245
     14  CA        13.3560   -9.5650    7.7460 C.3    17  VAL17       0.1561
     15  C         14.2310   -9.5470    6.4780 C.2    17  VAL17       0.2260
     16  O         15.3450  -10.0770    6.4920 O.2    17  VAL17      -0.2867
     17  CB        13.8490   -8.5680    8.8470 C.3    17  VAL17       0.0252
     18  CG1       13.9390   -7.1410    8.3160 C.3    17  VAL17       0.0019
     19  CG2       12.9460   -8.6080   10.0780 C.3    17  VAL17       0.0019
     20  N         12.6480   -2.3820    4.6110 N.3    30  ALA30      -0.1245
     21  CA        12.7480   -3.6310    5.3540 C.3    30  ALA30       0.1562
     22  C         11.3830   -4.3140    5.3200 C.2    30  ALA30       0.2260
     23  O         10.3540   -3.6840    5.5920 O.2    30  ALA30      -0.2867
     24  CB        13.1880   -3.3600    6.7820 C.3    30  ALA30       0.0290
     25  N          9.2240   -7.4280    6.8400 N.3    32  LYS32      -0.1245
     26  CA         9.1240   -8.4810    7.8550 C.3    32  LYS32       0.1561
     27  C          8.0630   -9.4800    7.3760 C.2    32  LYS32       0.2260
     28  O          6.9330   -9.0800    7.0710 O.2    32  LYS32      -0.2867
     29  CB         8.8130   -7.9170    9.2680 C.3    32  LYS32       0.0271
     30  CG         8.8290   -8.9740   10.3700 C.3    32  LYS32       0.0035
     31  CD         8.5120   -8.3890   11.7340 C.3    32  LYS32       0.0206
     32  CE         8.0650   -9.4460   12.7200 C.3    32  LYS32       0.1093
     33  NZ         8.4050   -9.0830   14.1240 N.3    32  LYS32      -0.1314
     34  N          0.7210   -5.9990   16.8740 N.3    38  GLU38      -0.1196
     35  CA         1.9840   -5.4930   16.3380 C.3    38  GLU38       0.1783
     36  C          1.7690   -4.5000   15.1850 C.2    38  GLU38       0.2306
     37  O          2.5170   -3.5230   15.0670 O.2    38  GLU38      -0.2863
     38  CB         2.8270   -6.6800   15.8530 C.2    38  GLU38       0.0071
     39  CG         4.1870   -6.3240   15.2680 C.2    38  GLU38       0.0834
     40  CD         5.2030   -7.4500   15.1610 C.2    38  GLU38       0.3877
     41  OE1        4.8550   -8.6300   15.4030 O.co2  38  GLU38      -0.2406
     42  OE2        6.3700   -7.1390   14.8420 O.co2  38  GLU38      -0.2406
     43  N          2.1310   -0.3600   15.5290 N.3    42  ASN42      -0.1240
     44  CA         2.9590    0.2470   14.4690 C.3    42  ASN42       0.1653
     45  C          2.2150    1.3430   13.6570 C.2    42  ASN42       0.2266
     46  O          2.8570    2.2830   13.2020 O.2    42  ASN42      -0.2867
     47  CB         3.5200   -0.8160   13.5220 C.3    42  ASN42       0.1155
     48  CG         4.9250   -1.2660   13.8720 C.2    42  ASN42       0.2627
     49  OD1        5.8990   -0.5140   13.7220 O.2    42  ASN42      -0.2716
     50  ND2        5.0780   -2.5140   14.2940 N.am   42  ASN42      -0.0877
     51  N         11.2970    3.4100   14.2450 N.3    51  VAL51      -0.1245
     52  CA        11.3380    2.8330   12.8920 C.3    51  VAL51       0.1561
     53  C          9.9510    3.0390   12.2230 C.2    51  VAL51       0.2260
     54  O          8.9320    2.7310   12.8440 O.2    51  VAL51      -0.2867
     55  CB        11.7750    1.3350   12.9290 C.3    51  VAL51       0.0252
     56  CG1       11.6380    0.6750   11.5600 C.3    51  VAL51       0.0019
     57  CG2       13.2070    1.2020   13.4070 C.3    51  VAL51       0.0019
     58  N          5.1280   -7.0280    6.4520 N.3    65  LEU65      -0.1245
     59  CA         5.1800   -5.7270    7.1180 C.3    65  LEU65       0.1561
     60  C          6.2800   -4.8880    6.4660 C.2    65  LEU65       0.2260
     61  O          7.4360   -5.3180    6.4320 O.2    65  LEU65      -0.2867
     62  CB         5.3950   -5.9060    8.6410 C.3    65  LEU65       0.0270
     63  CG         4.1400   -6.0470    9.5400 C.3    65  LEU65       0.0019
     64  CD1        3.3180   -7.3110    9.2220 C.3    65  LEU65       0.0001
     65  CD2        4.5380   -6.0680   11.0050 C.3    65  LEU65       0.0001
     66  N          8.5520   -1.8410    6.5160 N.3    67  LEU67      -0.1231
     67  CA         9.1550   -0.9360    7.4860 C.3    67  LEU67       0.1693
     68  C         10.4150   -0.2890    6.9780 C.2    67  LEU67       0.2592
     69  O         10.9760   -0.7000    5.9590 O.2    67  LEU67      -0.2718
     70  CB         9.4550   -1.7080    8.7800 C.3    67  LEU67       0.0284
     71  CG         8.2430   -2.3460    9.4730 C.3    67  LEU67       0.0019
     72  CD1        8.5160   -3.7940    9.8320 C.3    67  LEU67       0.0001
     73  CD2        7.7630   -1.5070   10.6640 C.3    67  LEU67       0.0001
     74  N         10.8550    0.7620    7.6980 N.am   68  GLU68      -0.1966
     75  CA        12.0600    1.5360    7.3980 C.3    68  GLU68       0.1733
     76  C         13.3250    0.6850    7.4330 C.2    68  GLU68       0.2616
     77  O         13.5310   -0.1130    8.3600 O.2    68  GLU68      -0.2715
     78  CB        12.1930    2.6840    8.3980 C.3    68  GLU68       0.0429
     79  CG        13.3490    3.6390    8.1520 C.3    68  GLU68       0.1163
     80  CD        13.3960    4.7830    9.1480 C.2    68  GLU68       0.3649
     81  OE1       12.5070    4.8540   10.0330 O.co2  68  GLU68      -0.2457
     82  OE2       14.3270    5.6130    9.0390 O.co2  68  GLU68      -0.2457
     83  N         14.1320    0.8270    6.3750 N.am   69  TYR69      -0.1960
     84  CA        15.4420    0.2260    6.2480 C.3    69  TYR69       0.1771
     85  C         16.4030    1.1630    6.9500 C.2    69  TYR69       0.2620
     86  O         16.3180    2.3810    6.7680 O.2    69  TYR69      -0.2715
     87  CB        15.8470    0.0030    4.7800 C.3    69  TYR69       0.0574
     88  CG        17.2720   -0.4960    4.6020 C.ar   69  TYR69      -0.0198
     89  CD1       17.6780   -1.7200    5.1360 C.ar   69  TYR69      -0.0009
     90  CD2       18.2090    0.2510    3.8970 C.ar   69  TYR69      -0.0009
     91  CE1       18.9830   -2.1870    4.9640 C.ar   69  TYR69       0.0417
     92  CE2       19.5220   -0.1910    3.7440 C.ar   69  TYR69       0.0417
     93  CZ        19.8990   -1.4220    4.2550 C.ar   69  TYR69       0.1957
     94  OH        21.1880   -1.8590    4.0470 O.3    69  TYR69      -0.2866
     95  N         17.2520    0.6170    7.8130 N.am   70  CYS70      -0.1954
     96  CA        18.2090    1.4330    8.5520 C.3    70  CYS70       0.1843
     97  C         19.5850    0.8880    8.1680 C.2    70  CYS70       0.2626
     98  O         19.9420   -0.2320    8.5370 O.2    70  CYS70      -0.2714
     99  CB        17.9240    1.4050   10.0630 C.3    70  CYS70       0.0997
    100  SG        16.2200    1.8790   10.5160 S.3    70  CYS70      -0.0797
    101  N         20.2680    1.6160    7.2660 N.am   71  SER71      -0.1936
    102  CA        21.5360    1.2000    6.6600 C.3    71  SER71       0.2055
    103  C         22.7180    1.1370    7.6470 C.2    71  SER71       0.2644
    104  O         23.6480    0.3660    7.3970 O.2    71  SER71      -0.2714
    105  CB        21.8860    2.0890    5.4740 C.3    71  SER71       0.2130
    106  OG        22.0370    3.4450    5.8500 O.3    71  SER71      -0.2179
    107  N         22.6370    1.8670    8.7660 N.am   72  GLY72      -0.1939
    108  CA        23.6480    1.8430    9.8270 C.3    72  GLY72       0.2014
    109  C         23.6730    0.5390   10.6100 C.2    72  GLY72       0.2639
    110  O         24.6460    0.2470   11.2980 O.2    72  GLY72      -0.2714
    111  N         22.6140   -0.2490   10.4980 N.am   73  GLY73      -0.1939
    112  CA        22.4920   -1.5420   11.1590 C.3    73  GLY73       0.2014
    113  C         22.0600   -1.4210   12.6010 C.2    73  GLY73       0.2641
    114  O         21.4390   -0.4290   12.9900 O.2    73  GLY73      -0.2714
    115  N         22.4220   -2.4170   13.4030 N.am   74  GLU74      -0.1931
    116  CA        22.0970   -2.4980   14.8170 C.3    74  GLU74       0.1818
    117  C         23.1610   -1.8230   15.6920 C.2    74  GLU74       0.2332
    118  O         24.3630   -1.9940   15.4680 O.2    74  GLU74      -0.2860
    119  CB        21.9460   -3.9740   15.2700 C.2    74  GLU74       0.0097
    120  CG        21.0330   -4.8590   14.4280 C.2    74  GLU74       0.0837
    121  CD        20.9100   -6.3040   14.8870 C.2    74  GLU74       0.3877
    122  OE1       21.6380   -6.7190   15.8190 O.co2  74  GLU74      -0.2406
    123  OE2       20.0440   -7.0160   14.3340 O.co2  74  GLU74      -0.2406
    124  N         26.1560   -3.8620   16.9850 N.3    77  ASP77      -0.1239
    125  CA        27.3970   -3.9640   16.2240 C.3    77  ASP77       0.1674
    126  C         28.2800   -2.7250   16.3160 C.2    77  ASP77       0.2266
    127  O         29.3490   -2.7240   15.7220 O.2    77  ASP77      -0.2867
    128  CB        27.0990   -4.3210   14.7620 C.3    77  ASP77       0.1410
    129  CG        26.5240   -5.7310   14.6290 C.2    77  ASP77       0.3668
    130  OD1       27.1240   -6.6790   15.1940 O.co2  77  ASP77      -0.2456
    131  OD2       25.4440   -5.8760   14.0310 O.co2  77  ASP77      -0.2456
    132  N         18.2070    0.4120   16.0090 N.3   120  LEU120     -0.1245
    133  CA        18.7710    0.5180   14.6650 C.3   120  LEU120      0.1561
    134  C         19.2730    1.9260   14.3680 C.2   120  LEU120      0.2260
    135  O         18.9040    2.8860   15.0550 O.2   120  LEU120     -0.2867
    136  CB        17.7680    0.0670   13.6010 C.3   120  LEU120      0.0270
    137  CG        17.0420   -1.2860   13.8640 C.3   120  LEU120      0.0019
    138  CD1       15.9850   -1.5400   12.8060 C.3   120  LEU120      0.0001
    139  CD2       18.0310   -2.4800   14.0150 C.3   120  LEU120      0.0001
    140  N         13.1420   -0.2900   17.2880 N.3   130  SER130     -0.1202
    141  CA        12.4530   -1.2480   16.4340 C.3   130  SER130      0.2020
    142  C         11.8920   -2.4600   17.2230 C.2   130  SER130      0.2619
    143  O         12.1790   -2.6340   18.4180 O.2   130  SER130     -0.2717
    144  CB        13.3600   -1.7090   15.2880 C.3   130  SER130      0.2103
    145  OG        14.1000   -2.8920   15.5440 O.3   130  SER130     -0.2182
    146  N         11.0780   -3.2910   16.5140 N.am  131  ASP131     -0.1959
    147  CA        10.4500   -4.5350   16.9540 C.3   131  ASP131      0.1840
    148  C          9.3700   -4.3060   18.0320 C.2   131  ASP131      0.2622
    149  O          9.6130   -4.4500   19.2330 O.2   131  ASP131     -0.2715
    150  CB        11.5070   -5.5570   17.4250 C.3   131  ASP131      0.1450
    151  CG        11.0200   -6.9880   17.3400 C.2   131  ASP131      0.3671
    152  OD1        9.7730   -7.2060   17.4140 O.co2 131  ASP131     -0.2456
    153  OD2       11.8780   -7.8980   17.2210 O.co2 131  ASP131     -0.2456
    154  N          8.1560   -4.0080   17.5800 N.am  132  PHE132     -0.1974
    155  CA         7.0320   -3.7530   18.4680 C.3   132  PHE132      0.1639
    156  C          6.1680   -5.0040   18.6560 C.2   132  PHE132      0.2290
    157  O          5.0090   -4.9100   19.0490 O.2   132  PHE132     -0.2864
    158  CB         6.2280   -2.5500   17.9460 C.3   132  PHE132      0.0560
    159  CG         7.0050   -1.2730   18.1680 C.ar  132  PHE132     -0.0200
    160  CD1        7.9670   -0.8520   17.2450 C.ar  132  PHE132     -0.0042
    161  CD2        6.8380   -0.5320   19.3370 C.ar  132  PHE132     -0.0042
    162  CE1        8.7360    0.2940   17.4800 C.ar  132  PHE132     -0.0003
    163  CE2        7.5790    0.6330   19.5510 C.ar  132  PHE132     -0.0003
    164  CZ         8.5330    1.0310   18.6290 C.ar  132  PHE132     -0.0000
@<TRIPOS>BOND
     1    92    90   ar
     2    92    93   ar
     3    90    88   ar
     4    94    93    1
     5    93    91   ar
     6    88    87    1
     7    88    89   ar
     8    20    21    1
     9    87    84    1
    10    91    89   ar
    11    22    21    1
    12    22    23    2
    13    21    24    1
    14   105   106    1
    15   105   102    1
    16    69    68    2
    17     8     6    1
    18     6     7    1
    19     6     5    1
    20    84    83    1
    21    84    85    1
    22    83    76   am
    23    61    60    2
    24    58    59    1
    25    60    59    1
    26    15    16    2
    27    15    14    1
    28    66    67    1
    29     1     2    1
    30   102   101    1
    31   102   103    1
    32    86    85    2
    33    25    26    1
    34    85    95   am
    35    68    67    1
    36    68    74   am
    37    28    27    2
    38    59    62    1
    39   101    97   am
    40    27    26    1
    41   104   103    2
    42    75    76    1
    43    75    74    1
    44    75    78    1
    45    76    77    2
    46     5     2    1
    47    67    70    1
    48     2     3    1
    49   103   107   am
    50    14    13    1
    51    14    17    1
    52    95    96    1
    53    26    29    1
    54    79    78    1
    55    79    80    1
    56    97    98    2
    57    97    96    1
    58    18    17    1
    59    96    99    1
    60    62    63    1
    61   107   108    1
    62    70    71    1
    63    17    19    1
    64     3     9   am
    65     3     4    2
    66    82    80   ar
    67    80    81   ar
    68     9    10    1
    69    64    63    1
    70    29    30    1
    71    12    11    2
    72    71    72    1
    73    71    73    1
    74    63    65    1
    75   108   109    1
    76    99   100    1
    77    30    31    1
    78    11    10    1
    79   111   109   am
    80   111   112    1
    81   109   110    2
    82   112   113    1
    83    56    55    1
    84    31    32    1
    85    53    54    2
    86    53    52    1
    87   113   114    2
    88   113   115   am
    89    32    33    1
    90   138   137    1
    91    52    55    1
    92    52    51    1
    93    55    57    1
    94    46    45    2
    95   115   116    1
    96    47    48    1
    97    47    44    1
    98   136   137    1
    99   136   133    1
   100    45    44    1
   101    49    48    2
   102   137   139    1
   103    48    50   am
   104   131   129   ar
   105   123   121   ar
   106   134   133    1
   107   134   135    2
   108   120   121    1
   109   120   119    2
   110    44    43    1
   111   129   128    1
   112   129   130   ar
   113   133   132    1
   114   128   125    1
   115   116   119    1
   116   116   117    1
   117    42    40   ar
   118   121   122   ar
   119    37    36    2
   120    40    39    1
   121    40    41   ar
   122    36    35    1
   123    39    38    2
   124   144   145    1
   125   144   141    1
   126   118   117    2
   127   127   126    2
   128    38    35    1
   129   125   126    1
   130   125   124    1
   131    35    34    1
   132   141   142    1
   133   141   140    1
   134   146   147    1
   135   146   142   am
   136   147   150    1
   137   147   148    1
   138   153   151   ar
   139   142   143    2
   140   160   162   ar
   141   160   159   ar
   142   151   152   ar
   143   151   150    1
   144   162   164   ar
   145   154   148   am
   146   154   155    1
   147   158   159    1
   148   158   155    1
   149   148   149    2
   150   159   161   ar
   151   155   156    1
   152   164   163   ar
   153   156   157    2
   154   161   163   ar
