@<TRIPOS>MOLECULE
tmp/4fsrA00.pdb
 164 154 0 0 0
SMALL
GASTEIGER

@<TRIPOS>ATOM
      1  N         18.1740   -9.5310    6.1960 N.3    13  LEU13      -0.1231
      2  CA        18.6010   -8.5610    7.1980 C.3    13  LEU13       0.1693
      3  C         18.5620   -9.1460    8.6390 C.2    13  LEU13       0.2592
      4  O         19.3080   -8.6790    9.4970 O.2    13  LEU13      -0.2718
      5  CB        17.7450   -7.2810    7.1100 C.3    13  LEU13       0.0284
      6  CG        17.8820   -6.4310    5.8480 C.3    13  LEU13       0.0019
      7  CD1       16.9530   -5.2410    5.9080 C.3    13  LEU13       0.0001
      8  CD2       19.3260   -5.9680    5.6370 C.3    13  LEU13       0.0001
      9  N         17.7040  -10.1440    8.8700 N.am   14  GLY14      -0.1957
     10  CA        17.5370  -10.8010   10.1640 C.3    14  GLY14       0.1869
     11  C         16.5680  -11.9700   10.1570 C.2    14  GLY14       0.2309
     12  O         15.8950  -12.2160    9.1510 O.2    14  GLY14      -0.2863
     13  N         13.4610  -11.0440    8.0420 N.3    19  VAL19      -0.1245
     14  CA        13.4410   -9.6460    7.6090 C.3    19  VAL19       0.1561
     15  C         14.2940   -9.5690    6.3350 C.2    19  VAL19       0.2260
     16  O         15.4440  -10.0230    6.3410 O.2    19  VAL19      -0.2867
     17  CB        13.9180   -8.6520    8.7150 C.3    19  VAL19       0.0252
     18  CG1       13.8630   -7.2070    8.2280 C.3    19  VAL19       0.0019
     19  CG2       13.1030   -8.8060    9.9880 C.3    19  VAL19       0.0019
     20  N         12.6400   -2.4610    4.6000 N.3    32  ALA32      -0.1245
     21  CA        12.8260   -3.7530    5.2500 C.3    32  ALA32       0.1562
     22  C         11.4580   -4.4340    5.2940 C.2    32  ALA32       0.2260
     23  O         10.4620   -3.8140    5.6850 O.2    32  ALA32      -0.2867
     24  CB        13.4120   -3.5780    6.6410 C.3    32  ALA32       0.0290
     25  N          9.2380   -7.5700    6.6860 N.3    34  LYS34      -0.1245
     26  CA         9.1300   -8.6260    7.6850 C.3    34  LYS34       0.1561
     27  C          8.1530   -9.6660    7.1520 C.2    34  LYS34       0.2260
     28  O          6.9910   -9.3340    6.8690 O.2    34  LYS34      -0.2867
     29  CB         8.6970   -8.0570    9.0550 C.3    34  LYS34       0.0271
     30  CG         8.6870   -9.0810   10.1690 C.3    34  LYS34       0.0035
     31  CD         8.4160   -8.4260   11.5030 C.3    34  LYS34       0.0206
     32  CE         8.2750   -9.4410   12.6110 C.3    34  LYS34       0.1093
     33  NZ         8.2720   -8.8040   13.9500 N.3    34  LYS34      -0.1314
     34  N          0.3810   -6.0680   16.7190 N.3    44  GLU44      -0.1245
     35  CA         1.6580   -5.5910   16.1860 C.3    44  GLU44       0.1567
     36  C          1.4400   -4.5670   15.0780 C.2    44  GLU44       0.2260
     37  O          2.1030   -3.5280   15.0920 O.2    44  GLU44      -0.2867
     38  CB         2.4980   -6.7630   15.6650 C.3    44  GLU44       0.0388
     39  CG         3.8820   -6.3670   15.1700 C.3    44  GLU44       0.1160
     40  CD         4.8960   -7.4830   15.0040 C.2    44  GLU44       0.3649
     41  OE1        4.5310   -8.6660   15.1890 O.co2  44  GLU44      -0.2457
     42  OE2        6.0690   -7.1700   14.7000 O.co2  44  GLU44      -0.2457
     43  N          1.8620   -0.4190   15.3250 N.3    48  ASN48      -0.1240
     44  CA         2.7040    0.1630   14.2710 C.3    48  ASN48       0.1653
     45  C          2.0060    1.2990   13.4860 C.2    48  ASN48       0.2266
     46  O          2.6690    2.2520   13.0770 O.2    48  ASN48      -0.2867
     47  CB         3.1950   -0.9200   13.3160 C.3    48  ASN48       0.1155
     48  CG         4.4900   -1.5820   13.7490 C.2    48  ASN48       0.2627
     49  OD1        5.5860   -1.0530   13.5670 O.2    48  ASN48      -0.2716
     50  ND2        4.4020   -2.7810   14.2820 N.am   48  ASN48      -0.0877
     51  N         11.2000    3.2600   14.1420 N.3    57  VAL57      -0.1245
     52  CA        11.1870    2.6700   12.7980 C.3    57  VAL57       0.1561
     53  C          9.8110    2.9400   12.1620 C.2    57  VAL57       0.2260
     54  O          8.7740    2.7410   12.8120 O.2    57  VAL57      -0.2867
     55  CB        11.5570    1.1570   12.8420 C.3    57  VAL57       0.0252
     56  CG1       11.3000    0.4600   11.5040 C.3    57  VAL57       0.0019
     57  CG2       13.0090    0.9800   13.2460 C.3    57  VAL57       0.0019
     58  N          5.2100   -7.2100    6.4030 N.3    71  LEU71      -0.1245
     59  CA         5.2400   -5.9050    7.0660 C.3    71  LEU71       0.1561
     60  C          6.3030   -5.0350    6.4160 C.2    71  LEU71       0.2260
     61  O          7.4730   -5.4300    6.3740 O.2    71  LEU71      -0.2867
     62  CB         5.4640   -6.0450    8.5830 C.3    71  LEU71       0.0270
     63  CG         4.1920   -6.0470    9.4430 C.3    71  LEU71       0.0019
     64  CD1        3.4380   -7.3700    9.3380 C.3    71  LEU71       0.0001
     65  CD2        4.5170   -5.7630   10.8970 C.3    71  LEU71       0.0001
     66  N          8.5420   -2.0340    6.4750 N.3    73  LEU73      -0.1231
     67  CA         9.1700   -1.1680    7.4750 C.3    73  LEU73       0.1693
     68  C         10.4140   -0.4750    6.9470 C.2    73  LEU73       0.2592
     69  O         10.9190   -0.8060    5.8660 O.2    73  LEU73      -0.2718
     70  CB         9.5190   -1.9810    8.7450 C.3    73  LEU73       0.0284
     71  CG         8.3880   -2.8250    9.3260 C.3    73  LEU73       0.0019
     72  CD1        8.8530   -4.2300    9.6020 C.3    73  LEU73       0.0001
     73  CD2        7.7480   -2.1470   10.5100 C.3    73  LEU73       0.0001
     74  N         10.8820    0.5240    7.7140 N.am   74  GLU74      -0.1966
     75  CA        12.0310    1.3650    7.3890 C.3    74  GLU74       0.1733
     76  C         13.3290    0.5840    7.2790 C.2    74  GLU74       0.2616
     77  O         13.6160   -0.2730    8.1220 O.2    74  GLU74      -0.2715
     78  CB        12.1900    2.4580    8.4560 C.3    74  GLU74       0.0429
     79  CG        13.0080    3.6520    8.0140 C.3    74  GLU74       0.1163
     80  CD        13.1230    4.7510    9.0500 C.2    74  GLU74       0.3649
     81  OE1       12.3030    4.7810    9.9990 O.co2  74  GLU74      -0.2457
     82  OE2       14.0300    5.6010    8.8950 O.co2  74  GLU74      -0.2457
     83  N         14.1090    0.8910    6.2380 N.am   75  TYR75      -0.1960
     84  CA        15.4390    0.3240    6.0580 C.3    75  TYR75       0.1771
     85  C         16.4010    1.2680    6.7520 C.2    75  TYR75       0.2620
     86  O         16.3340    2.4850    6.5520 O.2    75  TYR75      -0.2715
     87  CB        15.8110    0.1030    4.5760 C.3    75  TYR75       0.0574
     88  CG        17.2440   -0.3620    4.3810 C.ar   75  TYR75      -0.0198
     89  CD1       17.6580   -1.6220    4.8160 C.ar   75  TYR75      -0.0009
     90  CD2       18.1940    0.4730    3.8020 C.ar   75  TYR75      -0.0009
     91  CE1       18.9770   -2.0450    4.6550 C.ar   75  TYR75       0.0417
     92  CE2       19.5190    0.0680    3.6500 C.ar   75  TYR75       0.0417
     93  CZ        19.9060   -1.1950    4.0710 C.ar   75  TYR75       0.1957
     94  OH        21.2080   -1.6050    3.8770 O.3    75  TYR75      -0.2866
     95  N         17.2480    0.7180    7.6150 N.am   76  CYS76      -0.1954
     96  CA        18.1920    1.5120    8.3820 C.3    76  CYS76       0.1843
     97  C         19.6000    1.0280    7.9960 C.2    76  CYS76       0.2626
     98  O         20.0200   -0.0470    8.4120 O.2    76  CYS76      -0.2714
     99  CB        17.8960    1.4040    9.8820 C.3    76  CYS76       0.0997
    100  SG        16.1720    1.7800   10.3410 S.3    76  CYS76      -0.0797
    101  N         20.2710    1.7800    7.0940 N.am   77  SER77      -0.1936
    102  CA        21.5730    1.4250    6.4960 C.3    77  SER77       0.2055
    103  C         22.7430    1.3900    7.4920 C.2    77  SER77       0.2644
    104  O         23.7600    0.7610    7.1950 O.2    77  SER77      -0.2714
    105  CB        21.9110    2.3570    5.3330 C.3    77  SER77       0.2130
    106  OG        22.1350    3.6860    5.7680 O.3    77  SER77      -0.2179
    107  N         22.5840    2.0160    8.6580 N.am   78  GLY78      -0.1939
    108  CA        23.5820    1.9770    9.7250 C.3    78  GLY78       0.2014
    109  C         23.5680    0.6540   10.4740 C.2    78  GLY78       0.2639
    110  O         24.4580    0.3940   11.2770 O.2    78  GLY78      -0.2714
    111  N         22.5500   -0.1730   10.2260 N.am   79  GLY79      -0.1939
    112  CA        22.3760   -1.4770   10.8530 C.3    79  GLY79       0.2014
    113  C         21.9490   -1.3980   12.3020 C.2    79  GLY79       0.2641
    114  O         21.2340   -0.4740   12.6840 O.2    79  GLY79      -0.2714
    115  N         22.4100   -2.3500   13.1240 N.am   80  GLU80      -0.1931
    116  CA        22.0710   -2.4290   14.5470 C.3    80  GLU80       0.1818
    117  C         23.0840   -1.7320   15.4310 C.2    80  GLU80       0.2332
    118  O         24.2810   -1.8040   15.1670 O.2    80  GLU80      -0.2860
    119  CB        21.9580   -3.9040   15.0110 C.2    80  GLU80       0.0097
    120  CG        21.0320   -4.7720   14.1770 C.2    80  GLU80       0.0837
    121  CD        20.8130   -6.1900   14.6690 C.2    80  GLU80       0.3877
    122  OE1       21.5810   -6.6600   15.5410 O.co2  80  GLU80      -0.2406
    123  OE2       19.8590   -6.8330   14.1760 O.co2  80  GLU80      -0.2406
    124  N         26.0820   -3.8670   16.8190 N.3    83  ASP83      -0.1239
    125  CA        27.3320   -3.9550   16.0650 C.3    83  ASP83       0.1674
    126  C         28.2060   -2.6960   16.1410 C.2    83  ASP83       0.2266
    127  O         29.2160   -2.6280   15.4450 O.2    83  ASP83      -0.2867
    128  CB        27.0530   -4.3240   14.6070 C.3    83  ASP83       0.1410
    129  CG        26.5720   -5.7580   14.4870 C.2    83  ASP83       0.3668
    130  OD1       27.2510   -6.6660   15.0420 O.co2  83  ASP83      -0.2456
    131  OD2       25.4990   -5.9720   13.8920 O.co2  83  ASP83      -0.2456
    132  N         18.0950    0.3400   15.8580 N.3   126  LEU126     -0.1245
    133  CA        18.6610    0.4490   14.5100 C.3   126  LEU126      0.1561
    134  C         19.1450    1.8460   14.2360 C.2   126  LEU126      0.2260
    135  O         18.7230    2.7770   14.9100 O.2   126  LEU126     -0.2867
    136  CB        17.6630    0.0020   13.4240 C.3   126  LEU126      0.0270
    137  CG        17.0040   -1.3980   13.6620 C.3   126  LEU126      0.0019
    138  CD1       15.9400   -1.6680   12.6560 C.3   126  LEU126      0.0001
    139  CD2       18.0360   -2.5470   13.6920 C.3   126  LEU126      0.0001
    140  N         12.8600   -0.3450   17.1210 N.3   136  SER136     -0.1202
    141  CA        12.1950   -1.2840   16.2270 C.3   136  SER136      0.2020
    142  C         11.5850   -2.4510   16.9900 C.2   136  SER136      0.2619
    143  O         11.9490   -2.6870   18.1530 O.2   136  SER136     -0.2717
    144  CB        13.1870   -1.8090   15.1850 C.3   136  SER136      0.2103
    145  OG        14.1160   -2.7420   15.7100 O.3   136  SER136     -0.2182
    146  N         10.6940   -3.2140   16.3030 N.am  137  ASP137     -0.1959
    147  CA        10.0500   -4.4460   16.7840 C.3   137  ASP137      0.1840
    148  C          9.0120   -4.1780   17.8740 C.2   137  ASP137      0.2622
    149  O          9.3520   -4.0520   19.0570 O.2   137  ASP137     -0.2715
    150  CB        11.1080   -5.4450   17.2830 C.3   137  ASP137      0.1450
    151  CG        10.7620   -6.8970   17.1210 C.2   137  ASP137      0.3671
    152  OD1        9.5620   -7.2240   17.1520 O.co2 137  ASP137     -0.2456
    153  OD2       11.7020   -7.7190   17.0050 O.co2 137  ASP137     -0.2456
    154  N          7.7400   -4.1280   17.4710 N.am  138  PHE138     -0.1974
    155  CA         6.6480   -3.8830   18.4070 C.3   138  PHE138      0.1639
    156  C          5.8370   -5.1720   18.6210 C.2   138  PHE138      0.2290
    157  O          4.6940   -5.1350   19.0840 O.2   138  PHE138     -0.2864
    158  CB         5.7910   -2.6740   17.9550 C.3   138  PHE138      0.0560
    159  CG         6.6070   -1.4070   18.0600 C.ar  138  PHE138     -0.0200
    160  CD1        7.4260   -0.9940   17.0060 C.ar  138  PHE138     -0.0042
    161  CD2        6.6320   -0.6730   19.2430 C.ar  138  PHE138     -0.0042
    162  CE1        8.2290    0.1500   17.1290 C.ar  138  PHE138     -0.0003
    163  CE2        7.4260    0.4740   19.3610 C.ar  138  PHE138     -0.0003
    164  CZ         8.2190    0.8770   18.3060 C.ar  138  PHE138     -0.0000
@<TRIPOS>BOND
     1    92    90   ar
     2    92    93   ar
     3    90    88   ar
     4    94    93    1
     5    93    91   ar
     6    88    87    1
     7    88    89   ar
     8    87    84    1
     9    20    21    1
    10    91    89   ar
    11    21    22    1
    12    21    24    1
    13    22    23    2
    14   105   106    1
    15   105   102    1
    16     8     6    1
    17     6     7    1
    18     6     5    1
    19    69    68    2
    20    84    83    1
    21    84    85    1
    22     1     2    1
    23    83    76   am
    24    15    16    2
    25    15    14    1
    26    61    60    2
    27    58    59    1
    28    60    59    1
    29    66    67    1
    30   102   101    1
    31   102   103    1
    32    86    85    2
    33    25    26    1
    34    85    95   am
    35    28    27    2
    36    68    67    1
    37    68    74   am
    38    59    62    1
    39   101    97   am
    40     5     2    1
    41    27    26    1
    42   104   103    2
    43     2     3    1
    44    76    75    1
    45    76    77    2
    46    75    74    1
    47    75    78    1
    48    67    70    1
    49   103   107   am
    50    14    13    1
    51    14    17    1
    52    95    96    1
    53    26    29    1
    54    97    96    1
    55    97    98    2
    56    79    78    1
    57    79    80    1
    58    18    17    1
    59    96    99    1
    60    62    63    1
    61     3     9   am
    62     3     4    2
    63   107   108    1
    64    17    19    1
    65    70    71    1
    66     9    10    1
    67    82    80   ar
    68    80    81   ar
    69    29    30    1
    70    12    11    2
    71    71    72    1
    72    71    73    1
    73    64    63    1
    74    63    65    1
    75   108   109    1
    76    99   100    1
    77    11    10    1
    78    30    31    1
    79   111   109   am
    80   111   112    1
    81   109   110    2
    82   112   113    1
    83    31    32    1
    84    56    55    1
    85    53    52    1
    86    53    54    2
    87   113   114    2
    88   113   115   am
    89    32    33    1
    90   138   137    1
    91    52    55    1
    92    52    51    1
    93    55    57    1
    94    46    45    2
    95   115   116    1
    96    47    48    1
    97    47    44    1
    98   136   137    1
    99   136   133    1
   100    45    44    1
   101    49    48    2
   102   137   139    1
   103    48    50   am
   104   131   129   ar
   105   123   121   ar
   106   120   121    1
   107   120   119    2
   108   134   133    1
   109   134   135    2
   110    44    43    1
   111   129   128    1
   112   129   130   ar
   113   133   132    1
   114   116   119    1
   115   116   117    1
   116   128   125    1
   117   121   122   ar
   118    42    40   ar
   119    40    39    1
   120    40    41   ar
   121    36    37    2
   122    36    35    1
   123   118   117    2
   124    39    38    1
   125   144   145    1
   126   144   141    1
   127   127   126    2
   128    38    35    1
   129   125   126    1
   130   125   124    1
   131    35    34    1
   132   141   142    1
   133   141   140    1
   134   146   147    1
   135   146   142   am
   136   147   150    1
   137   147   148    1
   138   142   143    2
   139   153   151   ar
   140   160   162   ar
   141   160   159   ar
   142   151   152   ar
   143   151   150    1
   144   162   164   ar
   145   154   148   am
   146   154   155    1
   147   148   149    2
   148   158   159    1
   149   158   155    1
   150   159   161   ar
   151   164   163   ar
   152   155   156    1
   153   156   157    2
   154   161   163   ar
