@<TRIPOS>MOLECULE
tmp/4fstA00.pdb
 175 164 0 0 0
SMALL
GASTEIGER

@<TRIPOS>ATOM
      1  N         17.6540   -9.8060    6.3700 N.3    13  LEU13      -0.1231
      2  CA        18.1770   -8.9320    7.4170 C.3    13  LEU13       0.1693
      3  C         18.1540   -9.6750    8.7600 C.2    13  LEU13       0.2592
      4  O         19.2080   -9.8750    9.3600 O.2    13  LEU13      -0.2718
      5  CB        17.3940   -7.6020    7.4770 C.3    13  LEU13       0.0284
      6  CG        17.4260   -6.7340    6.2040 C.3    13  LEU13       0.0019
      7  CD1       16.4880   -5.5490    6.3260 C.3    13  LEU13       0.0001
      8  CD2       18.8450   -6.2660    5.8660 C.3    13  LEU13       0.0001
      9  N         16.9750  -10.1370    9.1700 N.am   14  GLY14      -0.1957
     10  CA        16.7840  -10.8840   10.4070 C.3    14  GLY14       0.1869
     11  C         16.1170  -12.2260   10.1910 C.2    14  GLY14       0.2309
     12  O         15.1730  -12.3380    9.4070 O.2    14  GLY14      -0.2863
     13  N         12.8760  -10.8850    8.2140 N.3    17  VAL17      -0.1245
     14  CA        12.9170   -9.5070    7.7270 C.3    17  VAL17       0.1561
     15  C         13.8580   -9.4810    6.5120 C.2    17  VAL17       0.2260
     16  O         14.9970   -9.9470    6.5930 O.2    17  VAL17      -0.2867
     17  CB        13.3040   -8.4610    8.8210 C.3    17  VAL17       0.0252
     18  CG1       13.3350   -7.0440    8.2460 C.3    17  VAL17       0.0019
     19  CG2       12.3490   -8.5210   10.0120 C.3    17  VAL17       0.0019
     20  N         12.3860   -2.3740    4.5300 N.3    30  ALA30      -0.1245
     21  CA        12.5090   -3.6270    5.2620 C.3    30  ALA30       0.1562
     22  C         11.1400   -4.2770    5.2500 C.2    30  ALA30       0.2260
     23  O         10.1390   -3.6100    5.5180 O.2    30  ALA30      -0.2867
     24  CB        12.9950   -3.3800    6.6880 C.3    30  ALA30       0.0290
     25  N          8.8700   -7.3260    6.7590 N.3    32  LYS32      -0.1245
     26  CA         8.7240   -8.3930    7.7400 C.3    32  LYS32       0.1561
     27  C          7.6790   -9.3660    7.1980 C.2    32  LYS32       0.2260
     28  O          6.5520   -8.9580    6.9080 O.2    32  LYS32      -0.2867
     29  CB         8.3530   -7.8620    9.1380 C.3    32  LYS32       0.0271
     30  CG         8.4890   -8.9410   10.2030 C.3    32  LYS32       0.0035
     31  CD         7.9020   -8.5640   11.5480 C.3    32  LYS32       0.0206
     32  CE         8.0870   -9.7200   12.5010 C.3    32  LYS32       0.1093
     33  NZ         7.0520   -9.7490   13.5580 N.3    32  LYS32      -0.1314
     34  N          0.9570   -6.1190   16.6740 N.3    39  GLU39      -0.1245
     35  CA         2.1810   -5.5050   16.1400 C.3    39  GLU39       0.1567
     36  C          1.8430   -4.4990   15.0270 C.2    39  GLU39       0.2260
     37  O          2.4050   -3.4070   15.0110 O.2    39  GLU39      -0.2867
     38  CB         3.1420   -6.5820   15.6240 C.3    39  GLU39       0.0388
     39  CG         4.5110   -6.0580   15.2070 C.3    39  GLU39       0.1160
     40  CD         5.5620   -7.1160   14.9300 C.2    39  GLU39       0.3649
     41  OE1        5.2780   -8.3170   15.1350 O.co2  39  GLU39      -0.2457
     42  OE2        6.6890   -6.7380   14.5400 O.co2  39  GLU39      -0.2457
     43  N          1.9900   -0.4230   15.3600 N.3    43  ASN43      -0.1240
     44  CA         2.7640    0.2720   14.3200 C.3    43  ASN43       0.1653
     45  C          1.9740    1.3710   13.6170 C.2    43  ASN43       0.2266
     46  O          2.5550    2.3910   13.2630 O.2    43  ASN43      -0.2867
     47  CB         3.3000   -0.7100   13.2840 C.3    43  ASN43       0.1155
     48  CG         4.7220   -1.1140   13.5570 C.2    43  ASN43       0.2627
     49  OD1        5.6450   -0.3090   13.4530 O.2    43  ASN43      -0.2716
     50  ND2        4.9280   -2.3600   13.9280 N.am   43  ASN43      -0.0877
     51  N         11.7570    6.2080   15.9010 N.3    51  VAL51      -0.1231
     52  CA        10.9740    4.9760   15.8100 C.3    51  VAL51       0.1692
     53  C         10.9770    4.5320   14.3410 C.2    51  VAL51       0.2591
     54  O         10.5850    5.3190   13.4790 O.2    51  VAL51      -0.2718
     55  CB         9.5210    5.1370   16.3650 C.3    51  VAL51       0.0266
     56  CG1        8.7130    3.8550   16.1780 C.3    51  VAL51       0.0020
     57  CG2        9.5240    5.5540   17.8340 C.3    51  VAL51       0.0020
     58  N         11.3820    3.2680   14.0610 N.am   52  VAL52      -0.1980
     59  CA        11.3760    2.7070   12.7020 C.3    52  VAL52       0.1595
     60  C          9.9770    2.9220   12.1130 C.2    52  VAL52       0.2287
     61  O          8.9780    2.5030   12.7030 O.2    52  VAL52      -0.2864
     62  CB        11.8260    1.2190   12.6420 C.3    52  VAL52       0.0276
     63  CG1       11.6310    0.6310   11.2420 C.3    52  VAL52       0.0022
     64  CG2       13.2830    1.0770   13.0710 C.3    52  VAL52       0.0022
     65  N          4.8020   -6.8320    6.3270 N.3    66  LEU66      -0.1245
     66  CA         4.9020   -5.5370    7.0040 C.3    66  LEU66       0.1561
     67  C          5.9650   -4.7030    6.3090 C.2    66  LEU66       0.2260
     68  O          7.1110   -5.1350    6.2120 O.2    66  LEU66      -0.2867
     69  CB         5.2180   -5.7000    8.5060 C.3    66  LEU66       0.0270
     70  CG         4.0170   -5.8200    9.4480 C.3    66  LEU66       0.0019
     71  CD1        3.4340   -7.2240    9.4240 C.3    66  LEU66       0.0001
     72  CD2        4.4030   -5.4490   10.8700 C.3    66  LEU66       0.0001
     73  N          8.2660   -1.6500    6.3200 N.3    68  LEU68      -0.1231
     74  CA         8.9300   -0.8170    7.3160 C.3    68  LEU68       0.1693
     75  C         10.1620   -0.1130    6.7860 C.2    68  LEU68       0.2592
     76  O         10.7750   -0.5560    5.8120 O.2    68  LEU68      -0.2718
     77  CB         9.3420   -1.6990    8.5160 C.3    68  LEU68       0.0284
     78  CG         8.2240   -2.5170    9.1890 C.3    68  LEU68       0.0019
     79  CD1        8.7080   -3.9160    9.5580 C.3    68  LEU68       0.0001
     80  CD2        7.6130   -1.7750   10.3580 C.3    68  LEU68       0.0001
     81  N         10.5500    0.9710    7.4720 N.am   69  GLU69      -0.1966
     82  CA        11.7400    1.7590    7.1720 C.3    69  GLU69       0.1733
     83  C         13.0010    0.8910    7.2490 C.2    69  GLU69       0.2616
     84  O         13.1990    0.1440    8.2210 O.2    69  GLU69      -0.2715
     85  CB        11.8370    2.9300    8.1590 C.3    69  GLU69       0.0429
     86  CG        13.0700    3.8050    8.0000 C.3    69  GLU69       0.1163
     87  CD        13.1630    4.9250    9.0130 C.2    69  GLU69       0.3649
     88  OE1       12.3270    4.9640    9.9460 O.co2  69  GLU69      -0.2457
     89  OE2       14.0690    5.7750    8.8650 O.co2  69  GLU69      -0.2457
     90  N         13.8300    0.9730    6.2060 N.am   70  TYR70      -0.1960
     91  CA        15.0930    0.2590    6.1740 C.3    70  TYR70       0.1771
     92  C         16.1440    1.1340    6.8340 C.2    70  TYR70       0.2620
     93  O         16.2850    2.3140    6.4860 O.2    70  TYR70      -0.2715
     94  CB        15.4980   -0.1170    4.7300 C.3    70  TYR70       0.0574
     95  CG        16.8800   -0.7310    4.6300 C.ar   70  TYR70      -0.0198
     96  CD1       17.1680   -1.9540    5.2330 C.ar   70  TYR70      -0.0009
     97  CD2       17.8850   -0.1170    3.8860 C.ar   70  TYR70      -0.0009
     98  CE1       18.4300   -2.5380    5.1170 C.ar   70  TYR70       0.0417
     99  CE2       19.1480   -0.6940    3.7590 C.ar   70  TYR70       0.0417
    100  CZ        19.4160   -1.9030    4.3800 C.ar   70  TYR70       0.1957
    101  OH        20.6650   -2.4670    4.2730 O.3    70  TYR70      -0.2866
    102  N         16.8490    0.5650    7.8180 N.am   71  CYS71      -0.1954
    103  CA        17.8910    1.2480    8.5780 C.3    71  CYS71       0.1843
    104  C         19.2270    0.6400    8.1700 C.2    71  CYS71       0.2626
    105  O         19.6130   -0.4110    8.6840 O.2    71  CYS71      -0.2714
    106  CB        17.6220    1.1170   10.0760 C.3    71  CYS71       0.0997
    107  SG        16.0410    1.8260   10.6080 S.3    71  CYS71      -0.0797
    108  N         19.9090    1.2770    7.1960 N.am   72  SER72      -0.1950
    109  CA        21.1510    0.7590    6.5830 C.3    72  SER72       0.1924
    110  C         22.3370    0.6180    7.5540 C.2    72  SER72       0.2314
    111  O         23.2240   -0.2040    7.2990 O.2    72  SER72      -0.2863
    112  CB        21.5660    1.6190    5.3930 C.3    72  SER72       0.2116
    113  OG        21.9220    2.9340    5.7850 O.3    72  SER72      -0.2180
    114  N         22.2810   -0.7000   10.4630 N.3    74  GLY74      -0.1210
    115  CA        22.1400   -1.9490   11.2030 C.3    74  GLY74       0.1956
    116  C         21.8510   -1.7740   12.6810 C.2    74  GLY74       0.2611
    117  O         21.3400   -0.7390   13.1080 O.2    74  GLY74      -0.2717
    118  N         22.2000   -2.7760   13.4710 N.am   75  GLU75      -0.1979
    119  CA        21.9000   -2.7740   14.9040 C.3    75  GLU75       0.1602
    120  C         22.9240   -2.0020   15.7170 C.2    75  GLU75       0.2287
    121  O         24.1150   -2.0720   15.4320 O.2    75  GLU75      -0.2864
    122  CB        21.8620   -4.2130   15.4260 C.3    75  GLU75       0.0415
    123  CG        20.7860   -5.0960   14.8030 C.3    75  GLU75       0.1163
    124  CD        20.8000   -6.5300   15.2910 C.2    75  GLU75       0.3649
    125  OE1       21.5830   -6.8420   16.2160 O.co2  75  GLU75      -0.2457
    126  OE2       19.9890   -7.3350   14.7800 O.co2  75  GLU75      -0.2457
    127  N         25.9050   -4.0590   17.0250 N.3    78  ASP78      -0.1239
    128  CA        27.1380   -4.2150   16.2490 C.3    78  ASP78       0.1674
    129  C         28.0800   -3.0090   16.3450 C.2    78  ASP78       0.2266
    130  O         29.2090   -3.1180   15.8980 O.2    78  ASP78      -0.2867
    131  CB        26.8320   -4.5810   14.7850 C.3    78  ASP78       0.1410
    132  CG        26.1890   -5.9570   14.6790 C.2    78  ASP78       0.3668
    133  OD1       26.6270   -6.8750   15.4020 O.co2  78  ASP78      -0.2456
    134  OD2       25.1990   -6.0900   13.9460 O.co2  78  ASP78      -0.2456
    135  N         17.9990    0.3060   15.9460 N.3   121  LEU121     -0.1245
    136  CA        18.6860    0.3190   14.6510 C.3   121  LEU121      0.1561
    137  C         19.1890    1.6840   14.3100 C.2   121  LEU121      0.2260
    138  O         18.7840    2.6610   14.9280 O.2   121  LEU121     -0.2867
    139  CB        17.7760   -0.2020   13.5290 C.3   121  LEU121      0.0270
    140  CG        17.0230   -1.5020   13.7850 C.3   121  LEU121      0.0019
    141  CD1       16.1060   -1.7830   12.6310 C.3   121  LEU121      0.0001
    142  CD2       17.9730   -2.6960   14.0610 C.3   121  LEU121      0.0001
    143  N         14.0440    3.0020   17.3230 N.3   130  ILE130     -0.1231
    144  CA        13.5070    1.8650   18.0660 C.3   130  ILE130      0.1692
    145  C         12.7690    0.9480   17.0790 C.2   130  ILE130      0.2593
    146  O         11.9120    1.4210   16.3270 O.2   130  ILE130     -0.2718
    147  CB        12.5750    2.3480   19.2230 C.3   130  ILE130      0.0266
    148  CG1       13.3300    3.2990   20.1930 C.3   130  ILE130      0.0019
    149  CG2       11.9730    1.1460   19.9730 C.3   130  ILE130      0.0020
    150  CD1       12.4260    3.9210   21.3020 C.3   130  ILE130      0.0001
    151  N         13.1000   -0.3590   17.1050 N.am  131  SER131     -0.1938
    152  CA        12.4900   -1.3490   16.2150 C.3   131  SER131      0.2055
    153  C         11.8370   -2.4890   16.9890 C.2   131  SER131      0.2643
    154  O         11.9310   -2.5460   18.2120 O.2   131  SER131     -0.2714
    155  CB        13.5310   -1.9130   15.2480 C.3   131  SER131      0.2130
    156  OG        14.3610   -2.9020   15.8390 O.3   131  SER131     -0.2179
    157  N         11.1700   -3.4090   16.2570 N.am  132  ASP132     -0.1957
    158  CA        10.5240   -4.6090   16.7580 C.3   132  ASP132      0.1840
    159  C          9.5150   -4.3280   17.8600 C.2   132  ASP132      0.2622
    160  O          9.8150   -4.4650   19.0460 O.2   132  ASP132     -0.2715
    161  CB        11.5760   -5.6420   17.2280 C.3   132  ASP132      0.1450
    162  CG        11.0460   -7.0590   17.3780 C.2   132  ASP132      0.3671
    163  OD1        9.8060   -7.2280   17.4900 O.co2 132  ASP132     -0.2456
    164  OD2       11.8680   -7.9990   17.3940 O.co2 132  ASP132     -0.2456
    165  N          8.2780   -4.0780   17.4490 N.am  133  PHE133     -0.1974
    166  CA         7.1850   -3.8020   18.3660 C.3   133  PHE133      0.1639
    167  C          6.3310   -5.0370   18.5970 C.2   133  PHE133      0.2290
    168  O          5.1900   -4.9280   19.0340 O.2   133  PHE133     -0.2864
    169  CB         6.3680   -2.6170   17.8380 C.3   133  PHE133      0.0560
    170  CG         7.0810   -1.3210   18.1440 C.ar  133  PHE133     -0.0200
    171  CD1        8.1020   -0.8570   17.3180 C.ar  133  PHE133     -0.0042
    172  CD2        6.7470   -0.5750   19.2680 C.ar  133  PHE133     -0.0042
    173  CE1        8.7820    0.3310   17.6140 C.ar  133  PHE133     -0.0003
    174  CE2        7.4200    0.6180   19.5610 C.ar  133  PHE133     -0.0003
    175  CZ         8.4350    1.0590   18.7340 C.ar  133  PHE133     -0.0000
@<TRIPOS>BOND
     1    99    97   ar
     2    99   100   ar
     3    97    95   ar
     4   101   100    1
     5   100    98   ar
     6    20    21    1
     7    95    94    1
     8    95    96   ar
     9    94    91    1
    10    98    96   ar
    11    22    21    1
    12    22    23    2
    13    21    24    1
    14   112   113    1
    15   112   109    1
    16    76    75    2
    17     8     6    1
    18    91    90    1
    19    91    92    1
    20     6     7    1
    21     6     5    1
    22    90    83   am
    23    68    67    2
    24    67    66    1
    25    73    74    1
    26    65    66    1
    27     1     2    1
    28    93    92    2
    29    15    16    2
    30    15    14    1
    31   109   108    1
    32   109   110    1
    33    25    26    1
    34    75    74    1
    35    75    81   am
    36    92   102   am
    37    28    27    2
    38    66    69    1
    39    82    83    1
    40    82    81    1
    41    82    85    1
    42   108   104   am
    43    27    26    1
    44    83    84    2
    45   111   110    2
    46    74    77    1
    47     2     5    1
    48     2     3    1
    49    14    13    1
    50    14    17    1
    51    26    29    1
    52   102   103    1
    53    86    85    1
    54    86    87    1
    55   104   103    1
    56   104   105    2
    57    18    17    1
    58    69    70    1
    59    77    78    1
    60   103   106    1
    61     3     9   am
    62     3     4    2
    63    17    19    1
    64    89    87   ar
    65    87    88   ar
    66    29    30    1
    67     9    10    1
    68    78    79    1
    69    78    80    1
    70    12    11    2
    71    71    70    1
    72    70    72    1
    73   106   107    1
    74    11    10    1
    75    30    31    1
    76   114   115    1
    77   115   116    1
    78    63    62    1
    79    31    32    1
    80    60    59    1
    81    60    61    2
    82    32    33    1
    83   141   140    1
    84    62    59    1
    85    62    64    1
    86   116   117    2
    87   116   118   am
    88    59    58    1
    89    46    45    2
    90    47    48    1
    91    47    44    1
    92    49    48    2
    93   118   119    1
    94    54    53    2
    95   139   140    1
    96   139   136    1
    97    48    50   am
    98    45    44    1
    99   140   142    1
   100   134   132   ar
   101    58    53   am
   102   137   136    1
   103   137   138    2
   104    44    43    1
   105    53    52    1
   106    42    40   ar
   107   136   135    1
   108   132   131    1
   109   132   133   ar
   110   126   124   ar
   111   131   128    1
   112   123   124    1
   113   123   122    1
   114   119   122    1
   115   119   120    1
   116    40    41   ar
   117    40    39    1
   118    37    36    2
   119    36    35    1
   120    39    38    1
   121   155   156    1
   122   155   152    1
   123   124   125   ar
   124   121   120    2
   125    38    35    1
   126    52    51    1
   127    52    55    1
   128   130   129    2
   129    35    34    1
   130    56    55    1
   131   152   153    1
   132   152   151    1
   133   128   129    1
   134   128   127    1
   135   157   158    1
   136   157   153   am
   137   146   145    2
   138    55    57    1
   139   158   161    1
   140   158   159    1
   141   153   154    2
   142   145   151   am
   143   145   144    1
   144   161   162    1
   145   171   173   ar
   146   171   170   ar
   147   143   144    1
   148   162   164   ar
   149   162   163   ar
   150   165   159   am
   151   165   166    1
   152   173   175   ar
   153   169   170    1
   154   169   166    1
   155   159   160    2
   156   144   147    1
   157   170   172   ar
   158   166   167    1
   159   167   168    2
   160   175   174   ar
   161   147   149    1
   162   147   148    1
   163   172   174   ar
   164   148   150    1
