@<TRIPOS>MOLECULE
tmp/4fsuA00.pdb
 168 158 0 0 0
SMALL
GASTEIGER

@<TRIPOS>ATOM
      1  N         18.4620   -9.2560   -0.0870 N.3    10  GLN10      -0.1231
      2  CA        19.2840   -9.8980    0.9530 C.3    10  GLN10       0.1698
      3  C         18.5650  -10.0380    2.3070 C.2    10  GLN10       0.2593
      4  O         17.7010   -9.2270    2.6560 O.2    10  GLN10      -0.2718
      5  CB        20.6460   -9.1920    1.1470 C.3    10  GLN10       0.0381
      6  CG        20.6320   -7.8060    1.7920 C.3    10  GLN10       0.0905
      7  CD        22.0040   -7.4430    2.3150 C.2    10  GLN10       0.2608
      8  OE1       22.6790   -8.2360    2.9850 O.2    10  GLN10      -0.2717
      9  NE2       22.4480   -6.2290    2.0280 N.am   10  GLN10      -0.0878
     10  N         18.9600  -11.0700    3.0720 N.am   11  THR11      -0.1939
     11  CA        18.4220  -11.3610    4.4010 C.3    11  THR11       0.2028
     12  C         19.0520  -10.3890    5.4000 C.2    11  THR11       0.2642
     13  O         20.2770  -10.2900    5.4820 O.2    11  THR11      -0.2714
     14  CB        18.6590  -12.8390    4.7660 C.3    11  THR11       0.1808
     15  OG1       18.0220  -13.6580    3.7800 O.3    11  THR11      -0.2208
     16  CG2       18.1240  -13.2020    6.1480 C.3    11  THR11       0.0379
     17  N         18.2100   -9.6650    6.1380 N.am   12  LEU12      -0.1963
     18  CA        18.6550   -8.6940    7.1320 C.3    12  LEU12       0.1728
     19  C         18.6910   -9.3110    8.5310 C.2    12  LEU12       0.2616
     20  O         19.6260   -9.0570    9.2780 O.2    12  LEU12      -0.2715
     21  CB        17.7710   -7.4350    7.1210 C.3    12  LEU12       0.0311
     22  CG        17.8410   -6.5480    5.8690 C.3    12  LEU12       0.0022
     23  CD1       16.9010   -5.3700    5.9950 C.3    12  LEU12       0.0001
     24  CD2       19.2720   -6.0720    5.5840 C.3    12  LEU12       0.0001
     25  N         17.6860  -10.1110    8.8650 N.am   13  GLY13      -0.1955
     26  CA        17.5970  -10.7670   10.1620 C.3    13  GLY13       0.1869
     27  C         16.7000  -11.9860   10.1720 C.2    13  GLY13       0.2309
     28  O         15.9070  -12.1910    9.2460 O.2    13  GLY13      -0.2863
     29  N         13.5590  -11.1850    8.0680 N.3    20  VAL20      -0.1245
     30  CA        13.5330   -9.7820    7.6700 C.3    20  VAL20       0.1561
     31  C         14.4210   -9.6920    6.4330 C.2    20  VAL20       0.2260
     32  O         15.5580  -10.1690    6.4680 O.2    20  VAL20      -0.2867
     33  CB        13.9580   -8.8040    8.8120 C.3    20  VAL20       0.0252
     34  CG1       14.0210   -7.3600    8.3200 C.3    20  VAL20       0.0019
     35  CG2       13.0210   -8.9100   10.0100 C.3    20  VAL20       0.0019
     36  N         12.6650   -2.5900    4.5390 N.3    33  ALA33      -0.1245
     37  CA        12.8410   -3.8700    5.2170 C.3    33  ALA33       0.1562
     38  C         11.4820   -4.5620    5.3020 C.2    33  ALA33       0.2260
     39  O         10.4910   -3.9480    5.7210 O.2    33  ALA33      -0.2867
     40  CB        13.4460   -3.6720    6.5990 C.3    33  ALA33       0.0290
     41  N          9.3090   -7.6300    6.8450 N.3    35  LYS35      -0.1245
     42  CA         9.2050   -8.6300    7.9050 C.3    35  LYS35       0.1561
     43  C          8.2070   -9.6900    7.4370 C.2    35  LYS35       0.2260
     44  O          7.0230   -9.3900    7.2460 O.2    35  LYS35      -0.2867
     45  CB         8.8030   -7.9880    9.2500 C.3    35  LYS35       0.0271
     46  CG         8.9260   -8.9320   10.4390 C.3    35  LYS35       0.0035
     47  CD         8.6270   -8.2210   11.7480 C.3    35  LYS35       0.0206
     48  CE         8.6930   -9.1650   12.9190 C.3    35  LYS35       0.1093
     49  NZ         8.5420   -8.4500   14.2120 N.3    35  LYS35      -0.1314
     50  N          0.8130   -6.1320   16.6020 N.3    44  GLU44      -0.1245
     51  CA         2.0510   -5.5250   16.0990 C.3    44  GLU44       0.1567
     52  C          1.7430   -4.5120   14.9910 C.2    44  GLU44       0.2260
     53  O          2.3070   -3.4200   15.0000 O.2    44  GLU44      -0.2867
     54  CB         3.0240   -6.6010   15.5880 C.3    44  GLU44       0.0388
     55  CG         4.3330   -6.0500   15.0310 C.3    44  GLU44       0.1160
     56  CD         5.4630   -7.0410   14.8350 C.2    44  GLU44       0.3649
     57  OE1        5.2970   -8.2240   15.2070 O.co2  44  GLU44      -0.2457
     58  OE2        6.5390   -6.6200   14.3550 O.co2  44  GLU44      -0.2457
     59  N          2.0650   -0.5220   15.2460 N.3    48  ASN48      -0.1240
     60  CA         2.9070    0.1280   14.2190 C.3    48  ASN48       0.1653
     61  C          2.1870    1.2680   13.4580 C.2    48  ASN48       0.2266
     62  O          2.8280    2.2600   13.1120 O.2    48  ASN48      -0.2867
     63  CB         3.4490   -0.8930   13.2200 C.3    48  ASN48       0.1155
     64  CG         4.8590   -1.3100   13.5370 C.2    48  ASN48       0.2627
     65  OD1        5.8230   -0.5810   13.2880 O.2    48  ASN48      -0.2716
     66  ND2        5.0120   -2.4790   14.1140 N.am   48  ASN48      -0.0877
     67  N         11.3040    3.2640   14.0850 N.3    57  VAL57      -0.1245
     68  CA        11.3110    2.6930   12.7270 C.3    57  VAL57       0.1561
     69  C          9.9320    2.9020   12.0690 C.2    57  VAL57       0.2260
     70  O          8.8990    2.5510   12.6480 O.2    57  VAL57      -0.2867
     71  CB        11.7320    1.1930   12.7470 C.3    57  VAL57       0.0252
     72  CG1       11.3190    0.4610   11.4660 C.3    57  VAL57       0.0019
     73  CG2       13.2320    1.0540   12.9860 C.3    57  VAL57       0.0019
     74  N          8.5590   -2.0850    6.4890 N.3    73  LEU73      -0.1231
     75  CA         9.1680   -1.1840    7.4670 C.3    73  LEU73       0.1693
     76  C         10.4380   -0.5280    6.9460 C.2    73  LEU73       0.2592
     77  O         11.0250   -0.9760    5.9590 O.2    73  LEU73      -0.2718
     78  CB         9.4820   -1.9530    8.7690 C.3    73  LEU73       0.0284
     79  CG         8.3040   -2.6650    9.4380 C.3    73  LEU73       0.0019
     80  CD1        8.6150   -4.1320    9.6400 C.3    73  LEU73       0.0001
     81  CD2        7.9130   -1.9820   10.7260 C.3    73  LEU73       0.0001
     82  N         10.8750    0.5250    7.6510 N.am   74  GLU74      -0.1966
     83  CA        12.0550    1.3070    7.3290 C.3    74  GLU74       0.1733
     84  C         13.3250    0.4740    7.2800 C.2    74  GLU74       0.2616
     85  O         13.5720   -0.3510    8.1700 O.2    74  GLU74      -0.2715
     86  CB        12.2220    2.4160    8.3760 C.3    74  GLU74       0.0429
     87  CG        13.1640    3.5310    7.9670 C.3    74  GLU74       0.1163
     88  CD        13.2680    4.6560    8.9760 C.2    74  GLU74       0.3649
     89  OE1       12.3780    4.7720    9.8520 O.co2  74  GLU74      -0.2457
     90  OE2       14.2480    5.4290    8.8850 O.co2  74  GLU74      -0.2457
     91  N         14.1170    0.6890    6.2240 N.am   75  TYR75      -0.1960
     92  CA        15.4460    0.1160    6.0830 C.3    75  TYR75       0.1771
     93  C         16.4080    1.1120    6.7050 C.2    75  TYR75       0.2620
     94  O         16.3760    2.2990    6.3690 O.2    75  TYR75      -0.2715
     95  CB        15.8140   -0.1790    4.6160 C.3    75  TYR75       0.0574
     96  CG        17.2600   -0.5960    4.4240 C.ar   75  TYR75      -0.0198
     97  CD1       17.7350   -1.7990    4.9420 C.ar   75  TYR75      -0.0009
     98  CD2       18.1410    0.1920    3.6900 C.ar   75  TYR75      -0.0009
     99  CE1       19.0550   -2.2010    4.7430 C.ar   75  TYR75       0.0417
    100  CE2       19.4630   -0.1980    3.4870 C.ar   75  TYR75       0.0417
    101  CZ        19.9140   -1.3990    4.0100 C.ar   75  TYR75       0.1957
    102  OH        21.2160   -1.7910    3.8090 O.3    75  TYR75      -0.2866
    103  N         17.2340    0.6390    7.6320 N.am   76  CYS76      -0.1954
    104  CA        18.1870    1.4680    8.3560 C.3    76  CYS76       0.1843
    105  C         19.5850    0.9960    7.9730 C.2    76  CYS76       0.2626
    106  O         20.0580   -0.0150    8.4830 O.2    76  CYS76      -0.2714
    107  CB        17.9230    1.3830    9.8600 C.3    76  CYS76       0.0997
    108  SG        16.2070    1.7400   10.3370 S.3    76  CYS76      -0.0797
    109  N         20.2200    1.7100    7.0220 N.am   77  SER77      -0.1950
    110  CA        21.5180    1.3630    6.4120 C.3    77  SER77       0.1924
    111  C         22.6960    1.3250    7.4040 C.2    77  SER77       0.2314
    112  O         23.6980    0.6670    7.1190 O.2    77  SER77      -0.2863
    113  CB        21.8440    2.2950    5.2460 C.3    77  SER77       0.2116
    114  OG        21.8530    3.6640    5.6170 O.3    77  SER77      -0.2180
    115  N         22.6050   -0.2010   10.2220 N.3    79  GLY79      -0.1210
    116  CA        22.4870   -1.4930   10.8880 C.3    79  GLY79       0.1956
    117  C         22.0600   -1.4190   12.3430 C.2    79  GLY79       0.2614
    118  O         21.4080   -0.4610   12.7590 O.2    79  GLY79      -0.2717
    119  N         22.4450   -2.4310   13.1260 N.am   80  GLU80      -0.1933
    120  CA        22.1020   -2.5560   14.5360 C.3    80  GLU80       0.1818
    121  C         23.0940   -1.8310   15.4430 C.2    80  GLU80       0.2332
    122  O         24.2890   -1.9000   15.2060 O.2    80  GLU80      -0.2860
    123  CB        22.0630   -4.0440   14.9470 C.2    80  GLU80       0.0097
    124  CG        21.0120   -4.8930   14.2480 C.2    80  GLU80       0.0837
    125  CD        20.8490   -6.3040   14.7880 C.2    80  GLU80       0.3877
    126  OE1       21.5350   -6.6730   15.7730 O.co2  80  GLU80      -0.2406
    127  OE2       20.0020   -7.0370   14.2330 O.co2  80  GLU80      -0.2406
    128  N         26.1800   -3.7730   16.6840 N.3    83  ASP83      -0.1239
    129  CA        27.4600   -3.8490   15.9570 C.3    83  ASP83       0.1674
    130  C         28.3730   -2.6240   16.1340 C.2    83  ASP83       0.2266
    131  O         29.4780   -2.6180   15.6020 O.2    83  ASP83      -0.2867
    132  CB        27.2320   -4.1340   14.4750 C.3    83  ASP83       0.1410
    133  CG        26.6690   -5.5290   14.2540 C.2    83  ASP83       0.3668
    134  OD1       27.1210   -6.4750   14.9510 O.co2  83  ASP83      -0.2456
    135  OD2       25.7470   -5.6690   13.4300 O.co2  83  ASP83      -0.2456
    136  N         18.1290    0.4090   15.8100 N.3   126  LEU126     -0.1245
    137  CA        18.7190    0.4910   14.4720 C.3   126  LEU126      0.1561
    138  C         19.2230    1.8720   14.1840 C.2   126  LEU126      0.2260
    139  O         18.8630    2.8180   14.8870 O.2   126  LEU126     -0.2867
    140  CB        17.7390    0.0320   13.3770 C.3   126  LEU126      0.0270
    141  CG        17.0180   -1.3130   13.6090 C.3   126  LEU126      0.0019
    142  CD1       16.0360   -1.5760   12.4880 C.3   126  LEU126      0.0001
    143  CD2       18.0110   -2.5010   13.7250 C.3   126  LEU126      0.0001
    144  N         13.0260   -0.3250   17.1270 N.3   136  SER136     -0.1202
    145  CA        12.3900   -1.2820   16.2210 C.3   136  SER136      0.2020
    146  C         11.8030   -2.4880   16.9550 C.2   136  SER136      0.2619
    147  O         12.1410   -2.7520   18.1110 O.2   136  SER136     -0.2717
    148  CB        13.3870   -1.7610   15.1640 C.3   136  SER136      0.2103
    149  OG        14.2660   -2.7660   15.6400 O.3   136  SER136     -0.2182
    150  N         10.9270   -3.2310   16.2430 N.am  137  ASP137     -0.1959
    151  CA        10.2210   -4.4480   16.6290 C.3   137  ASP137      0.1840
    152  C          9.2260   -4.2040   17.7510 C.2   137  ASP137      0.2622
    153  O          9.5820   -4.2000   18.9300 O.2   137  ASP137     -0.2715
    154  CB        11.2050   -5.5860   16.9780 C.3   137  ASP137      0.1450
    155  CG        10.5960   -6.9820   16.9160 C.2   137  ASP137      0.3671
    156  OD1        9.3810   -7.1190   17.2040 O.co2 137  ASP137     -0.2456
    157  OD2       11.3450   -7.9420   16.6260 O.co2 137  ASP137     -0.2456
    158  N          7.9520   -4.0610   17.3700 N.am  138  PHE138     -0.1974
    159  CA         6.8610   -3.7970   18.2920 C.3   138  PHE138      0.1639
    160  C          6.0160   -5.0530   18.5150 C.2   138  PHE138      0.2290
    161  O          4.8760   -4.9710   18.9840 O.2   138  PHE138     -0.2864
    162  CB         6.0390   -2.5840   17.8030 C.3   138  PHE138      0.0560
    163  CG         6.8240   -1.3050   17.9820 C.ar  138  PHE138     -0.0200
    164  CD1        7.7260   -0.8780   17.0090 C.ar  138  PHE138     -0.0042
    165  CD2        6.7250   -0.5690   19.1590 C.ar  138  PHE138     -0.0042
    166  CE1        8.5110    0.2620   17.2110 C.ar  138  PHE138     -0.0003
    167  CE2        7.4920    0.5860   19.3460 C.ar  138  PHE138     -0.0003
    168  CZ         8.3790    0.9910   18.3740 C.ar  138  PHE138     -0.0000
@<TRIPOS>BOND
     1     1     2    1
     2     2     5    1
     3     2     3    1
     4     5     6    1
     5     6     7    1
     6     9     7   am
     7     3     4    2
     8     3    10   am
     9     7     8    2
    10    10    11    1
    11   100    98   ar
    12   100   101   ar
    13    98    96   ar
    14    15    14    1
    15   102   101    1
    16   101    99   ar
    17    11    14    1
    18    11    12    1
    19    96    95    1
    20    96    97   ar
    21    36    37    1
    22    95    92    1
    23    99    97   ar
    24    14    16    1
    25    37    38    1
    26    37    40    1
    27   113   114    1
    28   113   110    1
    29    38    39    2
    30    12    13    2
    31    12    17   am
    32    24    22    1
    33    22    23    1
    34    22    21    1
    35    77    76    2
    36    92    91    1
    37    92    93    1
    38    17    18    1
    39    91    84   am
    40    94    93    2
    41   110   109    1
    42   110   111    1
    43    31    32    2
    44    31    30    1
    45    74    75    1
    46    93   103   am
    47    41    42    1
    48    76    75    1
    49    76    82   am
    50   109   105   am
    51   112   111    2
    52    21    18    1
    53    18    19    1
    54    44    43    2
    55    84    83    1
    56    84    85    2
    57    83    82    1
    58    83    86    1
    59    43    42    1
    60    75    78    1
    61   103   104    1
    62    30    29    1
    63    30    33    1
    64    42    45    1
    65    87    86    1
    66    87    88    1
    67   105   104    1
    68   105   106    2
    69    34    33    1
    70   104   107    1
    71    19    25   am
    72    19    20    2
    73    78    79    1
    74    33    35    1
    75    25    26    1
    76    90    88   ar
    77    88    89   ar
    78    28    27    2
    79    45    46    1
    80    79    80    1
    81    79    81    1
    82   107   108    1
    83    26    27    1
    84   115   116    1
    85    46    47    1
    86   116   117    1
    87    72    71    1
    88    47    48    1
    89    69    70    2
    90    69    68    1
    91   117   118    2
    92   117   119   am
    93   142   141    1
    94    68    71    1
    95    68    67    1
    96    71    73    1
    97    48    49    1
    98    62    61    2
    99   119   120    1
   100    63    64    1
   101    63    60    1
   102    65    64    2
   103   140   141    1
   104   140   137    1
   105   135   133   ar
   106    61    60    1
   107    64    66   am
   108   141   143    1
   109   138   137    1
   110   138   139    2
   111    60    59    1
   112   127   125   ar
   113   124   125    1
   114   124   123    2
   115   133   132    1
   116   133   134   ar
   117    58    56   ar
   118   137   136    1
   119   132   129    1
   120   120   123    1
   121   120   121    1
   122   125   126   ar
   123    56    55    1
   124    56    57   ar
   125    52    53    2
   126    52    51    1
   127    55    54    1
   128   148   149    1
   129   148   145    1
   130   122   121    2
   131    54    51    1
   132   131   130    2
   133   129   130    1
   134   129   128    1
   135    51    50    1
   136   145   146    1
   137   145   144    1
   138   150   151    1
   139   150   146   am
   140   157   155   ar
   141   151   154    1
   142   151   152    1
   143   155   154    1
   144   155   156   ar
   145   146   147    2
   146   164   166   ar
   147   164   163   ar
   148   166   168   ar
   149   158   152   am
   150   158   159    1
   151   152   153    2
   152   162   163    1
   153   162   159    1
   154   163   165   ar
   155   159   160    1
   156   168   167   ar
   157   160   161    2
   158   165   167   ar
