@<TRIPOS>MOLECULE
tmp/4fswA00.pdb
 138 128 0 0 0
SMALL
GASTEIGER

@<TRIPOS>ATOM
      1  N         18.2350   -9.1800    0.0800 N.3    11  GLN11      -0.1245
      2  CA        19.0890   -9.6140    1.1960 C.3    11  GLN11       0.1566
      3  C         18.2770   -9.9230    2.4600 C.2    11  GLN11       0.2260
      4  O         17.2750   -9.2520    2.7160 O.2    11  GLN11      -0.2867
      5  CB        20.1200   -8.5110    1.5140 C.3    11  GLN11       0.0367
      6  CG        21.3830   -9.0060    2.2240 C.3    11  GLN11       0.0905
      7  CD        22.2490   -7.8860    2.7520 C.2    11  GLN11       0.2608
      8  OE1       22.1750   -6.7290    2.3140 O.2    11  GLN11      -0.2717
      9  NE2       23.1140   -8.2190    3.6990 N.am   11  GLN11      -0.0878
     10  N         17.8030   -9.7540    6.4620 N.3    13  LEU13      -0.1231
     11  CA        18.2050   -8.8240    7.5210 C.3    13  LEU13       0.1693
     12  C         18.0870   -9.4060    8.9420 C.2    13  LEU13       0.2592
     13  O         18.8870   -9.0420    9.8100 O.2    13  LEU13      -0.2718
     14  CB        17.3820   -7.5180    7.4470 C.3    13  LEU13       0.0284
     15  CG        17.4620   -6.6830    6.1700 C.3    13  LEU13       0.0019
     16  CD1       16.4840   -5.5330    6.2350 C.3    13  LEU13       0.0001
     17  CD2       18.8750   -6.1660    5.9210 C.3    13  LEU13       0.0001
     18  N         17.0820  -10.2470    9.1740 N.am   14  GLY14      -0.1957
     19  CA        16.8390  -10.8500   10.4810 C.3    14  GLY14       0.1869
     20  C         15.9880  -12.1010   10.4480 C.2    14  GLY14       0.2309
     21  O         15.3500  -12.3960    9.4300 O.2    14  GLY14      -0.2863
     22  N         13.0140  -11.2650    8.0880 N.3    19  VAL19      -0.1245
     23  CA        13.0040   -9.8930    7.5750 C.3    19  VAL19       0.1561
     24  C         13.9620   -9.8000    6.3830 C.2    19  VAL19       0.2260
     25  O         15.1140  -10.2320    6.4820 O.2    19  VAL19      -0.2867
     26  CB        13.3530   -8.8350    8.6620 C.3    19  VAL19       0.0252
     27  CG1       13.3960   -7.4280    8.0640 C.3    19  VAL19       0.0019
     28  CG2       12.3690   -8.8870    9.8230 C.3    19  VAL19       0.0019
     29  N         12.4190   -2.3980    4.5610 N.3    32  ALA32      -0.1245
     30  CA        12.5480   -3.6930    5.2260 C.3    32  ALA32       0.1562
     31  C         11.1750   -4.3750    5.2120 C.2    32  ALA32       0.2260
     32  O         10.1690   -3.7340    5.5310 O.2    32  ALA32      -0.2867
     33  CB        13.0570   -3.5060    6.6490 C.3    32  ALA32       0.0290
     34  N          8.9600   -7.4110    6.7200 N.3    34  LYS34      -0.1245
     35  CA         8.8140   -8.4120    7.7710 C.3    34  LYS34       0.1561
     36  C          7.7640   -9.4270    7.3250 C.2    34  LYS34       0.2260
     37  O          6.6060   -9.0650    7.0930 O.2    34  LYS34      -0.2867
     38  CB         8.4400   -7.7370    9.1060 C.3    34  LYS34       0.0271
     39  CG         8.6500   -8.5910   10.3480 C.3    34  LYS34       0.0035
     40  CD         8.6490   -7.7070   11.5770 C.3    34  LYS34       0.0206
     41  CE         8.8280   -8.4680   12.8560 C.3    34  LYS34       0.1093
     42  NZ         8.9710   -7.5390   14.0100 N.3    34  LYS34      -0.1314
     43  N         11.2050    3.2560   14.2050 N.3    54  VAL54      -0.1245
     44  CA        11.1780    2.6660   12.8610 C.3    54  VAL54       0.1561
     45  C          9.7880    2.9360   12.2690 C.2    54  VAL54       0.2260
     46  O          8.7770    2.6380   12.9080 O.2    54  VAL54      -0.2867
     47  CB        11.5420    1.1480   12.8570 C.3    54  VAL54       0.0252
     48  CG1       11.3260    0.5300   11.4800 C.3    54  VAL54       0.0019
     49  CG2       12.9780    0.9130   13.3220 C.3    54  VAL54       0.0019
     50  N          8.4260   -1.8140    6.5780 N.3    70  LEU70      -0.1231
     51  CA         9.0680   -0.9560    7.5630 C.3    70  LEU70       0.1693
     52  C         10.2850   -0.2340    7.0250 C.2    70  LEU70       0.2592
     53  O         10.8850   -0.6400    6.0270 O.2    70  LEU70      -0.2718
     54  CB         9.4790   -1.7860    8.8060 C.3    70  LEU70       0.0284
     55  CG         8.3900   -2.6900    9.4150 C.3    70  LEU70       0.0019
     56  CD1        9.0000   -3.8860   10.1280 C.3    70  LEU70       0.0001
     57  CD2        7.4230   -1.8920   10.2910 C.3    70  LEU70       0.0001
     58  N         10.6490    0.8430    7.7200 N.am   71  GLU71      -0.1966
     59  CA        11.7970    1.6850    7.4270 C.3    71  GLU71       0.1733
     60  C         13.0850    0.8700    7.4680 C.2    71  GLU71       0.2616
     61  O         13.3330    0.1410    8.4420 O.2    71  GLU71      -0.2715
     62  CB        11.8530    2.8290    8.4460 C.3    71  GLU71       0.0429
     63  CG        12.8840    3.8970    8.1410 C.3    71  GLU71       0.1163
     64  CD        13.0550    4.9300    9.2340 C.2    71  GLU71       0.3649
     65  OE1       12.2020    4.9930   10.1520 O.co2  71  GLU71      -0.2457
     66  OE2       14.0480    5.6890    9.1600 O.co2  71  GLU71      -0.2457
     67  N         13.8740    0.9600    6.3940 N.am   72  TYR72      -0.1960
     68  CA        15.1490    0.2670    6.3360 C.3    72  TYR72       0.1771
     69  C         16.2230    1.1540    6.9560 C.2    72  TYR72       0.2620
     70  O         16.3740    2.3230    6.5970 O.2    72  TYR72      -0.2715
     71  CB        15.5170   -0.1530    4.9050 C.3    72  TYR72       0.0574
     72  CG        16.9050   -0.7490    4.7940 C.ar   72  TYR72      -0.0198
     73  CD1       17.2150   -1.9650    5.4010 C.ar   72  TYR72      -0.0009
     74  CD2       17.9100   -0.0970    4.0870 C.ar   72  TYR72      -0.0009
     75  CE1       18.4870   -2.5260    5.2890 C.ar   72  TYR72       0.0417
     76  CE2       19.1840   -0.6510    3.9650 C.ar   72  TYR72       0.0417
     77  CZ        19.4690   -1.8640    4.5730 C.ar   72  TYR72       0.1957
     78  OH        20.7240   -2.4120    4.4630 O.3    72  TYR72      -0.2866
     79  N         16.9300    0.5970    7.9250 N.am   73  CYS73      -0.1954
     80  CA        17.9900    1.2820    8.6520 C.3    73  CYS73       0.1843
     81  C         19.3130    0.6340    8.2160 C.2    73  CYS73       0.2626
     82  O         19.6240   -0.4850    8.6230 O.2    73  CYS73      -0.2714
     83  CB        17.7340    1.1910   10.1610 C.3    73  CYS73       0.0997
     84  SG        16.0760    1.7520   10.6680 S.3    73  CYS73      -0.0797
     85  N         20.0130    1.2870    7.2810 N.am   74  SER74      -0.1936
     86  CA        21.2340    0.7700    6.6340 C.3    74  SER74       0.2055
     87  C         22.4450    0.6240    7.5700 C.2    74  SER74       0.2644
     88  O         23.3300   -0.1740    7.2710 O.2    74  SER74      -0.2714
     89  CB        21.6180    1.6370    5.4390 C.3    74  SER74       0.2130
     90  OG        22.0220    2.9360    5.8420 O.3    74  SER74      -0.2179
     91  N         22.4720    1.3720    8.6730 N.am   75  GLY75      -0.1939
     92  CA        23.5510    1.3130    9.6650 C.3    75  GLY75       0.2014
     93  C         23.5300    0.0710   10.5370 C.2    75  GLY75       0.2639
     94  O         24.4720   -0.1780   11.2950 O.2    75  GLY75      -0.2714
     95  N         22.4740   -0.7160   10.4140 N.am   76  GLY76      -0.1939
     96  CA        22.2920   -1.9520   11.1620 C.3    76  GLY76       0.2014
     97  C         21.9360   -1.7330   12.6170 C.2    76  GLY76       0.2638
     98  O         21.3100   -0.7330   12.9710 O.2    76  GLY76      -0.2714
     99  N         22.3550   -2.6650   13.4640 N.am   77  GLU77      -0.1977
    100  CA        22.0640   -2.6780   14.8880 C.3    77  GLU77       0.1602
    101  C         23.1240   -1.9690   15.7220 C.2    77  GLU77       0.2287
    102  O         24.3190   -2.0880   15.4410 O.2    77  GLU77      -0.2864
    103  CB        21.9510   -4.1260   15.3940 C.3    77  GLU77       0.0415
    104  CG        20.9610   -4.9920   14.6410 C.3    77  GLU77       0.1163
    105  CD        20.8890   -6.4340   15.0990 C.2    77  GLU77       0.3649
    106  OE1       21.5770   -6.8020   16.0820 O.co2  77  GLU77      -0.2457
    107  OE2       20.1230   -7.1960   14.4690 O.co2  77  GLU77      -0.2457
    108  N         26.1150   -4.0230   17.1310 N.3    80  ASP80      -0.1239
    109  CA        27.3630   -4.1440   16.3690 C.3    80  ASP80       0.1674
    110  C         28.2430   -2.8960   16.4390 C.2    80  ASP80       0.2266
    111  O         29.3320   -2.9230   15.8870 O.2    80  ASP80      -0.2867
    112  CB        27.0840   -4.5290   14.9090 C.3    80  ASP80       0.1410
    113  CG        26.4150   -5.8860   14.7950 C.2    80  ASP80       0.3668
    114  OD1       26.9320   -6.8550   15.3880 O.co2  80  ASP80      -0.2456
    115  OD2       25.3530   -5.9690   14.1530 O.co2  80  ASP80      -0.2456
    116  N         20.0370   -4.9120   20.0820 N.3   120  GLU120     -0.1245
    117  CA        19.5700   -5.6370   18.8930 C.3   120  GLU120      0.1567
    118  C         18.3110   -4.9770   18.3080 C.2   120  GLU120      0.2260
    119  O         18.0480   -5.1210   17.1190 O.2   120  GLU120     -0.2867
    120  CB        19.2590   -7.1260   19.2180 C.3   120  GLU120      0.0388
    121  CG        20.4170   -7.9250   19.8110 C.3   120  GLU120      0.1160
    122  CD        20.6110   -7.8830   21.3200 C.2   120  GLU120      0.3649
    123  OE1       20.2220   -6.8790   21.9520 O.co2 120  GLU120     -0.2457
    124  OE2       21.2100   -8.8320   21.8710 O.co2 120  GLU120     -0.2457
    125  N         18.0780    0.2540   15.9410 N.3   123  LEU123     -0.1245
    126  CA        18.6360    0.2790   14.5940 C.3   123  LEU123      0.1561
    127  C         19.1260    1.6720   14.2320 C.2   123  LEU123      0.2260
    128  O         18.6810    2.6670   14.8040 O.2   123  LEU123     -0.2867
    129  CB        17.6290   -0.2510   13.5500 C.3   123  LEU123      0.0270
    130  CG        16.9970   -1.6500   13.8320 C.3   123  LEU123      0.0019
    131  CD1       16.0370   -2.0610   12.7120 C.3   123  LEU123      0.0001
    132  CD2       18.0580   -2.7420   14.0600 C.3   123  LEU123      0.0001
    133  N         13.0870   -0.3810   17.2710 N.3   133  SER133     -0.1217
    134  CA        12.5870   -1.4320   16.3890 C.3   133  SER133      0.1889
    135  C         11.8420   -2.5620   17.0990 C.2   133  SER133      0.2288
    136  O         12.1690   -2.9110   18.2420 O.2   133  SER133     -0.2866
    137  CB        13.7790   -2.0550   15.6640 C.3   133  SER133      0.2089
    138  OG        13.4100   -3.0850   14.7670 O.3   133  SER133     -0.2183
@<TRIPOS>BOND
     1     1     2    1
     2     2     5    1
     3     2     3    1
     4     5     6    1
     5     6     7    1
     6     8     7    2
     7     3     4    2
     8     7     9   am
     9    76    74   ar
    10    76    77   ar
    11    74    72   ar
    12    78    77    1
    13    29    30    1
    14    77    75   ar
    15    72    71    1
    16    72    73   ar
    17    71    68    1
    18    31    30    1
    19    31    32    2
    20    30    33    1
    21    75    73   ar
    22    89    90    1
    23    89    86    1
    24    17    15    1
    25    53    52    2
    26    15    16    1
    27    15    14    1
    28    68    67    1
    29    68    69    1
    30    24    25    2
    31    24    23    1
    32    67    60   am
    33    10    11    1
    34    50    51    1
    35    70    69    2
    36    86    85    1
    37    86    87    1
    38    34    35    1
    39    69    79   am
    40    52    51    1
    41    52    58   am
    42    37    36    2
    43    88    87    2
    44    85    81   am
    45    36    35    1
    46    59    60    1
    47    59    58    1
    48    59    62    1
    49    14    11    1
    50    60    61    2
    51    11    12    1
    52    51    54    1
    53    87    91   am
    54    23    22    1
    55    23    26    1
    56    35    38    1
    57    79    80    1
    58    27    26    1
    59    63    62    1
    60    63    64    1
    61    81    82    2
    62    81    80    1
    63    80    83    1
    64    26    28    1
    65    91    92    1
    66    54    55    1
    67    12    18   am
    68    12    13    2
    69    38    39    1
    70    66    64   ar
    71    18    19    1
    72    64    65   ar
    73    55    56    1
    74    55    57    1
    75    21    20    2
    76    92    93    1
    77    83    84    1
    78    39    40    1
    79    95    93   am
    80    95    96    1
    81    20    19    1
    82    93    94    2
    83    96    97    1
    84    48    47    1
    85    40    41    1
    86    45    44    1
    87    45    46    2
    88    97    98    2
    89    97    99   am
    90   131   130    1
    91    41    42    1
    92    47    44    1
    93    47    49    1
    94    44    43    1
    95    99   100    1
    96   129   130    1
    97   129   126    1
    98   130   132    1
    99   115   113   ar
   100   127   126    1
   101   127   128    2
   102   107   105   ar
   103   126   125    1
   104   104   105    1
   105   104   103    1
   106   138   137    1
   107   113   112    1
   108   113   114   ar
   109   100   103    1
   110   100   101    1
   111   112   109    1
   112   105   106   ar
   113   102   101    2
   114   137   134    1
   115   111   110    2
   116   109   110    1
   117   109   108    1
   118   134   135    1
   119   134   133    1
   120   135   136    2
   121   119   118    2
   122   118   117    1
   123   117   120    1
   124   117   116    1
   125   120   121    1
   126   121   122    1
   127   122   124   ar
   128   122   123   ar
