@<TRIPOS>MOLECULE
tmp/4fsxA00.pdb
 174 165 0 0 0
SMALL
GASTEIGER

@<TRIPOS>ATOM
      1  N        -33.6310   55.2410  -51.1740 N.3   170  ASP170     -0.1239
      2  CA       -33.3880   54.0640  -50.3530 C.3   170  ASP170      0.1674
      3  C        -33.8900   54.3110  -48.9370 C.2   170  ASP170      0.2266
      4  O        -33.3910   55.1910  -48.2360 O.2   170  ASP170     -0.2867
      5  CB       -31.9010   53.7040  -50.3420 C.3   170  ASP170      0.1410
      6  CG       -31.6420   52.3030  -49.8180 C.2   170  ASP170      0.3668
      7  OD1      -32.5930   51.4960  -49.7720 O.co2 170  ASP170     -0.2456
      8  OD2      -30.4830   52.0040  -49.4630 O.co2 170  ASP170     -0.2456
      9  N        -34.6700   52.6000  -45.1060 N.3   172  TYR172     -0.1227
     10  CA       -34.1150   51.5180  -44.3100 C.3   172  TYR172      0.1736
     11  C        -32.8050   51.1440  -44.9700 C.2   172  TYR172      0.2596
     12  O        -32.4670   49.9690  -45.1030 O.2   172  TYR172     -0.2718
     13  CB       -35.0740   50.3290  -44.2990 C.3   172  TYR172      0.0548
     14  CG       -36.4300   50.6990  -43.7610 C.ar  172  TYR172     -0.0200
     15  CD1      -36.8960   50.1750  -42.5670 C.ar  172  TYR172     -0.0009
     16  CD2      -37.2290   51.6100  -44.4300 C.ar  172  TYR172     -0.0009
     17  CE1      -38.1370   50.5340  -42.0720 C.ar  172  TYR172      0.0417
     18  CE2      -38.4550   51.9740  -43.9460 C.ar  172  TYR172      0.0417
     19  CZ       -38.9090   51.4400  -42.7730 C.ar  172  TYR172      0.1957
     20  OH       -40.1460   51.8400  -42.3310 O.3   172  TYR172     -0.2866
     21  N        -32.0740   52.1750  -45.3810 N.am  173  SER173     -0.1938
     22  CA       -30.9190   52.0270  -46.2540 C.3   173  SER173      0.2055
     23  C        -29.7530   51.2940  -45.6080 C.2   173  SER173      0.2644
     24  O        -29.0390   50.5550  -46.2790 O.2   173  SER173     -0.2714
     25  CB       -30.4500   53.4010  -46.7380 C.3   173  SER173      0.2130
     26  OG       -29.9330   54.1660  -45.6620 O.3   173  SER173     -0.2179
     27  N        -29.5500   51.5010  -44.3120 N.am  174  GLY174     -0.1939
     28  CA       -28.3610   50.9810  -43.6630 C.3   174  GLY174      0.2014
     29  C        -27.1400   51.5800  -44.3340 C.2   174  GLY174      0.2639
     30  O        -27.0790   52.7880  -44.5300 O.2   174  GLY174     -0.2714
     31  N        -26.1800   50.7390  -44.6940 N.am  175  CYS175     -0.1953
     32  CA       -24.9830   51.1910  -45.3920 C.3   175  CYS175      0.1843
     33  C        -25.2710   51.3770  -46.8890 C.2   175  CYS175      0.2626
     34  O        -24.4720   51.9530  -47.6360 O.2   175  CYS175     -0.2714
     35  CB       -23.8380   50.2040  -45.1620 C.3   175  CYS175      0.0997
     36  SG       -24.3210   48.6240  -44.4270 S.3   175  CYS175     -0.0797
     37  N        -26.4310   50.9010  -47.3180 N.am  176  GLY176     -0.1940
     38  CA       -26.8300   51.0410  -48.7050 C.3   176  GLY176      0.2014
     39  C        -26.3330   49.9440  -49.6260 C.2   176  GLY176      0.2639
     40  O        -26.1450   50.1740  -50.8170 O.2   176  GLY176     -0.2714
     41  N        -26.1220   48.7480  -49.0870 N.am  177  GLY177     -0.1954
     42  CA       -25.6690   47.6370  -49.9040 C.3   177  GLY177      0.1869
     43  C        -26.5510   47.4340  -51.1220 C.2   177  GLY177      0.2309
     44  O        -26.0740   47.4350  -52.2620 O.2   177  GLY177     -0.2863
     45  N        -28.7760   49.5230  -52.2910 N.3   178  SER178     -0.1217
     46  CA       -28.8270   50.7690  -53.0530 C.3   178  SER178      0.1889
     47  C        -27.6400   50.8980  -54.0010 C.2   178  SER178      0.2288
     48  O        -27.8090   51.1650  -55.1970 O.2   178  SER178     -0.2866
     49  CB       -28.8870   51.9720  -52.1030 C.3   178  SER178      0.2089
     50  OG       -28.9500   53.2020  -52.8110 O.3   178  SER178     -0.2183
     51  N        -32.6100   56.9830  -46.3780 N.3   198  VAL198     -0.1231
     52  CA       -33.1270   57.2050  -45.0400 C.3   198  VAL198      0.1692
     53  C        -32.8320   56.0170  -44.1450 C.2   198  VAL198      0.2592
     54  O        -33.2110   54.8860  -44.4480 O.2   198  VAL198     -0.2718
     55  CB       -34.6430   57.4750  -45.0360 C.3   198  VAL198      0.0266
     56  CG1      -35.1670   57.5040  -43.6070 C.3   198  VAL198      0.0020
     57  CG2      -34.9500   58.7830  -45.7470 C.3   198  VAL198      0.0020
     58  N        -32.1310   56.2770  -43.0500 N.am  199  ASP199     -0.1960
     59  CA       -31.9770   55.2720  -42.0050 C.3   199  ASP199      0.1840
     60  C        -31.8050   56.0320  -40.7020 C.2   199  ASP199      0.2622
     61  O        -31.2570   57.1280  -40.7050 O.2   199  ASP199     -0.2715
     62  CB       -30.7790   54.3600  -42.2750 C.3   199  ASP199      0.1450
     63  CG       -30.3750   53.5560  -41.0540 C.2   199  ASP199      0.3671
     64  OD1      -29.6450   52.5570  -41.2080 O.co2 199  ASP199     -0.2456
     65  OD2      -30.8020   53.9200  -39.9390 O.co2 199  ASP199     -0.2456
     66  N        -32.2680   55.4640  -39.5960 N.am  200  PHE200     -0.1960
     67  CA       -32.3010   56.1900  -38.3340 C.3   200  PHE200      0.1771
     68  C        -31.0700   55.9240  -37.4630 C.2   200  PHE200      0.2619
     69  O        -30.9340   56.4980  -36.3800 O.2   200  PHE200     -0.2715
     70  CB       -33.5750   55.8450  -37.5640 C.3   200  PHE200      0.0574
     71  CG       -33.4390   54.6470  -36.6720 C.ar  200  PHE200     -0.0200
     72  CD1      -34.2820   54.4830  -35.5900 C.ar  200  PHE200     -0.0042
     73  CD2      -32.4730   53.6830  -36.9110 C.ar  200  PHE200     -0.0042
     74  CE1      -34.1620   53.3810  -34.7580 C.ar  200  PHE200     -0.0003
     75  CE2      -32.3460   52.5830  -36.0810 C.ar  200  PHE200     -0.0003
     76  CZ       -33.1930   52.4320  -35.0040 C.ar  200  PHE200     -0.0000
     77  N        -30.1780   55.0460  -37.9250 N.am  201  ASN201     -0.1972
     78  CA       -28.9330   54.7840  -37.1930 C.3   201  ASN201      0.1688
     79  C        -27.8300   55.6920  -37.6830 C.2   201  ASN201      0.2292
     80  O        -27.4980   55.7020  -38.8620 O.2   201  ASN201     -0.2864
     81  CB       -28.5010   53.3010  -37.2350 C.3   201  ASN201      0.1181
     82  CG       -26.9780   53.1020  -37.0690 C.2   201  ASN201      0.2629
     83  OD1      -26.1910   54.0160  -37.2970 O.2   201  ASN201     -0.2716
     84  ND2      -26.5670   51.8840  -36.7120 N.am  201  ASN201     -0.0877
     85  N        -24.6990   53.6830  -39.6980 N.3   204  ALA204     -0.1245
     86  CA       -25.0740   53.1960  -41.0210 C.3   204  ALA204      0.1562
     87  C        -25.1260   54.3940  -41.9620 C.2   204  ALA204      0.2260
     88  O        -24.5340   54.3950  -43.0590 O.2   204  ALA204     -0.2867
     89  CB       -26.4240   52.4990  -40.9650 C.3   204  ALA204      0.0290
     90  N        -33.1680   59.4670  -39.4220 N.3   220  GLU220     -0.1231
     91  CA       -34.4360   59.6820  -38.7420 C.3   220  GLU220      0.1699
     92  C        -35.3130   58.4740  -39.0170 C.2   220  GLU220      0.2592
     93  O        -34.8540   57.4850  -39.5840 O.2   220  GLU220     -0.2718
     94  CB       -35.1060   60.9800  -39.1940 C.3   220  GLU220      0.0402
     95  CG       -35.2340   61.1270  -40.6900 C.3   220  GLU220      0.1161
     96  CD       -35.6860   62.5120  -41.0940 C.2   220  GLU220      0.3649
     97  OE1      -35.3910   62.9200  -42.2360 O.co2 220  GLU220     -0.2457
     98  OE2      -36.3330   63.1940  -40.2720 O.co2 220  GLU220     -0.2457
     99  N        -36.5730   58.5530  -38.6190 N.am  221  LYS221     -0.1966
    100  CA       -37.5070   57.4630  -38.8570 C.3   221  LYS221      0.1728
    101  C        -38.3900   57.6960  -40.0760 C.2   221  LYS221      0.2616
    102  O        -38.7010   58.8350  -40.4290 O.2   221  LYS221     -0.2715
    103  CB       -38.3760   57.2250  -37.6280 C.3   221  LYS221      0.0311
    104  CG       -37.7030   56.3910  -36.5670 C.3   221  LYS221      0.0038
    105  CD       -38.5560   56.3230  -35.3240 C.3   221  LYS221      0.0206
    106  CE       -38.1620   55.1480  -34.4570 C.3   221  LYS221      0.1093
    107  NZ       -38.9440   55.1370  -33.1940 N.3   221  LYS221     -0.1314
    108  N        -38.7600   56.6000  -40.7320 N.am  222  ALA222     -0.1977
    109  CA       -39.6710   56.6480  -41.8670 C.3   222  ALA222      0.1597
    110  C        -40.8920   57.5090  -41.5520 C.2   222  ALA222      0.2287
    111  O        -41.3390   58.2880  -42.3940 O.2   222  ALA222     -0.2864
    112  CB       -40.1000   55.2390  -42.2570 C.3   222  ALA222      0.0319
    113  N        -36.6140   49.2660  -50.3530 N.3   318  GLY318     -0.1210
    114  CA       -36.6830   49.2680  -48.9120 C.3   318  GLY318      0.1956
    115  C        -36.3850   47.9220  -48.3010 C.2   318  GLY318      0.2612
    116  O        -36.6300   46.8650  -48.8860 O.2   318  GLY318     -0.2717
    117  N        -35.8450   47.9910  -47.0920 N.am  319  GLY319     -0.1956
    118  CA       -35.5050   46.8300  -46.3000 C.3   319  GLY319      0.1869
    119  C        -36.3880   46.6310  -45.0860 C.2   319  GLY319      0.2309
    120  O        -35.9640   45.9740  -44.1370 O.2   319  GLY319     -0.2863
    121  N        -37.6680   46.2470  -41.7250 N.3   321  PRO321     -0.2116
    122  CA       -37.3690   45.0780  -40.9020 C.3   321  PRO321      0.1372
    123  C        -38.6290   44.3500  -40.4620 C.2   321  PRO321      0.2244
    124  O        -38.6750   43.1220  -40.5310 O.2   321  PRO321     -0.2868
    125  CB       -36.6590   45.6890  -39.6900 C.3   321  PRO321      0.0268
    126  CG       -37.2330   47.0580  -39.5810 C.3   321  PRO321      0.0207
    127  CD       -37.4640   47.5090  -40.9930 C.3   321  PRO321      0.0892
    128  N        -43.6480   49.1600  -39.6880 N.3   331  GLN331     -0.1245
    129  CA       -42.5720   49.5680  -40.5670 C.3   331  GLN331      0.1566
    130  C        -42.8390   49.1270  -41.9880 C.2   331  GLN331      0.2260
    131  O        -42.6390   49.8680  -42.9280 O.2   331  GLN331     -0.2867
    132  CB       -41.2480   49.0710  -40.0290 C.3   331  GLN331      0.0367
    133  CG       -40.8040   49.9380  -38.9240 C.3   331  GLN331      0.0905
    134  CD       -41.2720   51.3310  -39.1700 C.2   331  GLN331      0.2608
    135  OE1      -41.3920   52.1410  -38.2640 O.2   331  GLN331     -0.2717
    136  NE2      -41.5510   51.6220  -40.4150 N.am  331  GLN331     -0.0878
    137  N        -36.8700   44.3030  -50.2970 N.3   347  GLU347     -0.1245
    138  CA       -36.1640   43.1570  -49.7450 C.3   347  GLU347      0.1567
    139  C        -36.7380   42.8220  -48.3800 C.2   347  GLU347      0.2260
    140  O        -37.0570   43.7160  -47.5960 O.2   347  GLU347     -0.2867
    141  CB       -34.6690   43.4530  -49.6070 C.3   347  GLU347      0.0388
    142  CG       -33.8680   42.3210  -48.9670 C.3   347  GLU347      0.1160
    143  CD       -33.2740   42.6980  -47.6190 C.2   347  GLU347      0.3649
    144  OE1      -33.3350   43.8900  -47.2500 O.co2 347  GLU347     -0.2457
    145  OE2      -32.7430   41.8010  -46.9300 O.co2 347  GLU347     -0.2457
    146  N        -23.8510   46.7570  -39.3880 N.3   627  GLN627     -0.1245
    147  CA       -24.1570   47.4330  -40.6410 C.3   627  GLN627      0.1566
    148  C        -24.0380   46.4350  -41.7680 C.2   627  GLN627      0.2260
    149  O        -24.8690   46.4170  -42.6760 O.2   627  GLN627     -0.2867
    150  CB       -23.1690   48.5680  -40.9100 C.3   627  GLN627      0.0367
    151  CG       -23.3980   49.8270  -40.1280 C.3   627  GLN627      0.0905
    152  CD       -22.5100   50.9630  -40.6110 C.2   627  GLN627      0.2608
    153  OE1      -21.8950   50.8870  -41.6800 O.2   627  GLN627     -0.2717
    154  NE2      -22.4370   52.0230  -39.8220 N.am  627  GLN627     -0.0878
    155  N        -26.8260   43.2210  -41.5110 N.3   630  ASN630     -0.1225
    156  CA       -28.1550   43.5290  -42.0230 C.3   630  ASN630      0.1785
    157  C        -28.2490   43.6070  -43.5430 C.2   630  ASN630      0.2597
    158  O        -29.2790   43.2690  -44.1260 O.2   630  ASN630     -0.2718
    159  CB       -28.6630   44.8380  -41.4210 C.3   630  ASN630      0.1169
    160  CG       -29.0910   44.6880  -39.9760 C.2   630  ASN630      0.2627
    161  OD1      -29.4110   43.5900  -39.5210 O.2   630  ASN630     -0.2716
    162  ND2      -29.1070   45.7980  -39.2480 N.am  630  ASN630     -0.0877
    163  N        -27.1690   44.0480  -44.1760 N.am  631  ALA631     -0.1966
    164  CA       -27.1910   44.3830  -45.5950 C.3   631  ALA631      0.1728
    165  C        -27.6540   43.2450  -46.5020 C.2   631  ALA631      0.2616
    166  O        -27.3840   42.0730  -46.2400 O.2   631  ALA631     -0.2715
    167  CB       -25.8210   44.8870  -46.0370 C.3   631  ALA631      0.0334
    168  N        -28.3640   43.6070  -47.5650 N.am  632  VAL632     -0.1977
    169  CA       -28.6680   42.6670  -48.6340 C.3   632  VAL632      0.1596
    170  C        -27.4350   42.5560  -49.5180 C.2   632  VAL632      0.2287
    171  O        -26.8120   43.5640  -49.8550 O.2   632  VAL632     -0.2864
    172  CB       -29.8660   43.1330  -49.4750 C.3   632  VAL632      0.0276
    173  CG1      -29.7630   44.6090  -49.7410 C.3   632  VAL632      0.0022
    174  CG2      -29.9450   42.3520  -50.7820 C.3   632  VAL632      0.0022
@<TRIPOS>BOND
     1    48    47    2
     2    47    46    1
     3    46    45    1
     4    46    49    1
     5    50    49    1
     6    44    43    2
     7     1     2    1
     8    43    42    1
     9    40    39    2
    10   174   172    1
    11   113   114    1
    12     2     5    1
    13     2     3    1
    14     5     6    1
    15   137   138    1
    16    42    41    1
    17   171   170    2
    18     6     7   ar
    19     6     8   ar
    20   138   141    1
    21   138   139    1
    22   173   172    1
    23    39    41   am
    24    39    38    1
    25   141   142    1
    26   170   169    1
    27   172   169    1
    28   142   143    1
    29     3     4    2
    30   114   115    1
    31   116   115    2
    32    38    37    1
    33   169   168    1
    34   139   140    2
    35   115   117   am
    36    34    33    2
    37   143   144   ar
    38   143   145   ar
    39   168   165   am
    40    37    33   am
    41   117   118    1
    42    33    32    1
    43    25    22    1
    44    25    26    1
    45   165   166    2
    46   165   164    1
    47    51    52    1
    48   118   119    1
    49    24    23    2
    50    22    23    1
    51    22    21    1
    52   167   164    1
    53    57    55    1
    54    23    27   am
    55   164   163    1
    56    32    35    1
    57    32    31    1
    58    21    11   am
    59    35    36    1
    60     9    10    1
    61    12    11    2
    62   119   120    2
    63    52    55    1
    64    52    53    1
    65    55    56    1
    66    11    10    1
    67    31    29   am
    68    30    29    2
    69    54    53    2
    70    16    18   ar
    71    16    14   ar
    72    29    28    1
    73    27    28    1
    74    10    13    1
    75    13    14    1
    76   163   157   am
    77    53    58   am
    78   158   157    2
    79    18    19   ar
    80    14    15   ar
    81   157   156    1
    82    88    87    2
    83    58    59    1
    84   131   130    2
    85    19    20    1
    86    19    17   ar
    87   149   148    2
    88    15    17   ar
    89   111   110    2
    90    62    59    1
    91    62    63    1
    92   112   109    1
    93    97    96   ar
    94   156   155    1
    95   156   159    1
    96    59    60    1
    97   130   129    1
    98    87    86    1
    99   109   110    1
   100   109   108    1
   101   148   147    1
   102   121   127    1
   103   121   122    1
   104   153   152    2
   105   159   160    1
   106    64    63   ar
   107    96    95    1
   108    96    98   ar
   109    63    65   ar
   110    86    89    1
   111    86    85    1
   112   127   126    1
   113   150   147    1
   114   150   151    1
   115   122   123    1
   116   122   125    1
   117   108   101   am
   118    61    60    2
   119    60    66   am
   120    95    94    1
   121   147   146    1
   122   152   151    1
   123   152   154   am
   124   129   132    1
   125   129   128    1
   126   124   123    2
   127   102   101    2
   128   136   134   am
   129   101   100    1
   130   132   133    1
   131   160   161    2
   132   160   162   am
   133   125   126    1
   134    66    67    1
   135    93    92    2
   136    90    91    1
   137    94    91    1
   138   134   133    1
   139   134   135    2
   140    92    91    1
   141    92    99   am
   142    80    79    2
   143   100    99    1
   144   100   103    1
   145    67    70    1
   146    67    68    1
   147    77    68   am
   148    77    78    1
   149    79    78    1
   150   103   104    1
   151    70    71    1
   152    68    69    2
   153    83    82    2
   154    81    78    1
   155    81    82    1
   156    82    84   am
   157    73    71   ar
   158    73    75   ar
   159    71    72   ar
   160   104   105    1
   161    75    76   ar
   162    72    74   ar
   163   105   106    1
   164    76    74   ar
   165   106   107    1
