@<TRIPOS>MOLECULE
tmp/4fsyA00.pdb
 147 138 0 0 0
SMALL
GASTEIGER

@<TRIPOS>ATOM
      1  N         17.7570   -9.8750    6.5070 N.3    13  LEU13      -0.1231
      2  CA        18.1810   -8.9690    7.5700 C.3    13  LEU13       0.1696
      3  C         18.1970   -9.6570    8.9450 C.2    13  LEU13       0.2632
      4  O         18.8500   -9.1630    9.8640 O.2    13  LEU13      -0.2714
      5  CB        17.2990   -7.7050    7.5920 C.3    13  LEU13       0.0284
      6  CG        17.4110   -6.7820    6.3730 C.3    13  LEU13       0.0019
      7  CD1       16.4980   -5.5880    6.5170 C.3    13  LEU13       0.0001
      8  CD2       18.8650   -6.3390    6.1140 C.3    13  LEU13       0.0001
      9  N         17.5250  -10.8000    9.0510 N.am   14  GLY14      -0.1718
     10  CA        17.4860  -11.5920   10.2740 C.2    14  GLY14       0.1480
     11  C         16.3500  -12.5910   10.3580 C.2    14  GLY14       0.2820
     12  O         15.5720  -12.7440    9.4110 O.2    14  GLY14      -0.2669
     13  N         16.2570  -13.2770   11.5160 N.am   15  GLU15      -0.1929
     14  CA        15.2220  -14.2680   11.8160 C.3    15  GLU15       0.1736
     15  C         14.3590  -13.7970   13.0000 C.2    15  GLU15       0.2617
     16  O         14.8940  -13.4230   14.0480 O.2    15  GLU15      -0.2715
     17  CB        15.8550  -15.6400   12.1070 C.3    15  GLU15       0.0429
     18  CG        16.6190  -16.2200   10.9430 C.3    15  GLU15       0.1163
     19  CD        15.7890  -16.5860    9.7550 C.2    15  GLU15       0.3649
     20  OE1       14.5380  -16.6950    9.8590 O.co2  15  GLU15      -0.2457
     21  OE2       16.4220  -16.8750    8.7290 O.co2  15  GLU15      -0.2457
     22  N         13.0390  -13.8070   12.8050 N.am   16  GLY16      -0.1955
     23  CA        12.0620  -13.4100   13.8140 C.3    16  GLY16       0.1869
     24  C         11.1110  -14.5260   14.1920 C.2    16  GLY16       0.2309
     25  O         11.4630  -15.4180   14.9660 O.2    16  GLY16      -0.2863
     26  N         12.8850  -11.3850    7.9540 N.3    19  VAL19      -0.1245
     27  CA        12.9060   -9.9790    7.5520 C.3    19  VAL19       0.1561
     28  C         13.8680   -9.8460    6.3620 C.2    19  VAL19       0.2260
     29  O         15.0060  -10.3190    6.4390 O.2    19  VAL19      -0.2867
     30  CB        13.2740   -9.0100    8.7170 C.3    19  VAL19       0.0252
     31  CG1       13.3550   -7.5660    8.2330 C.3    19  VAL19       0.0019
     32  CG2       12.2770   -9.1220    9.8630 C.3    19  VAL19       0.0019
     33  N         12.4060   -2.3970    4.6600 N.3    32  ALA32      -0.1245
     34  CA        12.5400   -3.6720    5.3540 C.3    32  ALA32       0.1562
     35  C         11.1760   -4.3770    5.3080 C.2    32  ALA32       0.2260
     36  O         10.1540   -3.7720    5.6530 O.2    32  ALA32      -0.2867
     37  CB        13.0110   -3.4540    6.7880 C.3    32  ALA32       0.0290
     38  N          8.9420   -7.4880    6.6290 N.3    34  LYS34      -0.1245
     39  CA         8.7700   -8.5350    7.6310 C.3    34  LYS34       0.1561
     40  C          7.7480   -9.5210    7.0750 C.2    34  LYS34       0.2260
     41  O          6.6100   -9.1380    6.7890 O.2    34  LYS34      -0.2867
     42  CB         8.3480   -7.9390    8.9900 C.3    34  LYS34       0.0271
     43  CG         8.5140   -8.8940   10.1680 C.3    34  LYS34       0.0035
     44  CD         8.2690   -8.2150   11.5120 C.3    34  LYS34       0.0206
     45  CE         9.5120   -7.5530   12.0590 C.3    34  LYS34       0.1093
     46  NZ         9.2600   -6.8590   13.3500 N.3    34  LYS34      -0.1314
     47  N          8.3730   -1.7720    6.4840 N.3    71  LEU71      -0.1231
     48  CA         9.0050   -0.9340    7.4980 C.3    71  LEU71       0.1693
     49  C         10.2080   -0.1970    6.9650 C.2    71  LEU71       0.2595
     50  O         10.8270   -0.6310    5.9900 O.2    71  LEU71      -0.2718
     51  CB         9.4460   -1.8050    8.6980 C.3    71  LEU71       0.0284
     52  CG         8.3720   -2.6750    9.3730 C.3    71  LEU71       0.0019
     53  CD1        8.9770   -3.9530    9.9210 C.3    71  LEU71       0.0001
     54  CD2        7.6180   -1.8960   10.4390 C.3    71  LEU71       0.0001
     55  N         10.5650    0.9030    7.6460 N.am   72  GLU72      -0.1920
     56  CA        11.7240    1.7230    7.3180 C.3    72  GLU72       0.1949
     57  C         13.0170    0.8880    7.4050 C.2    72  GLU72       0.2659
     58  O         13.2250    0.1570    8.3830 O.2    72  GLU72      -0.2711
     59  CB        11.7740    2.9350    8.2640 C.2    72  GLU72       0.0111
     60  CG        12.9980    3.8240    8.1200 C.2    72  GLU72       0.0838
     61  CD        13.0750    4.9840    9.0950 C.2    72  GLU72       0.3877
     62  OE1       12.2100    5.0750    9.9970 O.co2  72  GLU72      -0.2406
     63  OE2       14.0060    5.8080    8.9540 O.co2  72  GLU72      -0.2406
     64  N         13.8380    0.9530    6.3520 N.am   73  TYR73      -0.1957
     65  CA        15.1200    0.2770    6.3460 C.3    73  TYR73       0.1771
     66  C         16.1600    1.2130    6.9530 C.2    73  TYR73       0.2620
     67  O         16.2270    2.3910    6.6020 O.2    73  TYR73      -0.2715
     68  CB        15.5300   -0.1770    4.9370 C.3    73  TYR73       0.0574
     69  CG        16.9140   -0.7930    4.8790 C.ar   73  TYR73      -0.0198
     70  CD1       17.1840   -2.0100    5.5000 C.ar   73  TYR73      -0.0009
     71  CD2       17.9480   -0.1680    4.1860 C.ar   73  TYR73      -0.0009
     72  CE1       18.4510   -2.5900    5.4350 C.ar   73  TYR73       0.0417
     73  CE2       19.2180   -0.7400    4.1140 C.ar   73  TYR73       0.0417
     74  CZ        19.4680   -1.9450    4.7520 C.ar   73  TYR73       0.1957
     75  OH        20.7150   -2.5160    4.6940 O.3    73  TYR73      -0.2866
     76  N         16.9250    0.6960    7.9080 N.am   74  CYS74      -0.1954
     77  CA        17.9720    1.4400    8.5920 C.3    74  CYS74       0.1843
     78  C         19.2940    0.8270    8.1440 C.2    74  CYS74       0.2626
     79  O         19.6570   -0.2590    8.5990 O.2    74  CYS74      -0.2714
     80  CB        17.7730    1.3900   10.1080 C.3    74  CYS74       0.0997
     81  SG        16.1110    1.8630   10.6620 S.3    74  CYS74      -0.0797
     82  N         19.9450    1.4770    7.1610 N.am   75  SER75      -0.1950
     83  CA        21.1800    1.0350    6.4930 C.3    75  SER75       0.1924
     84  C         22.4040    0.8990    7.4180 C.2    75  SER75       0.2314
     85  O         23.2850    0.0970    7.1060 O.2    75  SER75      -0.2863
     86  CB        21.5210    1.9630    5.3290 C.3    75  SER75       0.2116
     87  OG        21.7670    3.2910    5.7620 O.3    75  SER75      -0.2180
     88  N         22.5230   -0.4970   10.2500 N.3    77  GLY77      -0.1210
     89  CA        22.4200   -1.7460   10.9880 C.3    77  GLY77       0.1956
     90  C         22.0170   -1.5770   12.4360 C.2    77  GLY77       0.2611
     91  O         21.2970   -0.6450   12.7900 O.2    77  GLY77      -0.2717
     92  N         22.4960   -2.4860   13.2790 N.am   78  GLU78      -0.1979
     93  CA        22.1650   -2.5410   14.6920 C.3    78  GLU78       0.1602
     94  C         23.2110   -1.8830   15.5390 C.2    78  GLU78       0.2287
     95  O         24.3970   -1.9970   15.2420 O.2    78  GLU78      -0.2864
     96  CB        21.9870   -4.0030   15.1310 C.3    78  GLU78       0.0415
     97  CG        21.0020   -4.7490   14.2480 C.3    78  GLU78       0.1163
     98  CD        20.8010   -6.2330   14.4750 C.2    78  GLU78       0.3649
     99  OE1       21.4550   -6.8140   15.3710 O.co2  78  GLU78      -0.2457
    100  OE2       19.9540   -6.8090   13.7590 O.co2  78  GLU78      -0.2457
    101  N         26.3680   -3.9150   16.9180 N.3    81  ASP81      -0.1239
    102  CA        27.6340   -4.0330   16.1860 C.3    81  ASP81       0.1674
    103  C         28.5010   -2.7550   16.2500 C.2    81  ASP81       0.2266
    104  O         29.5910   -2.7550   15.6920 O.2    81  ASP81      -0.2867
    105  CB        27.3880   -4.4840   14.7380 C.3    81  ASP81       0.1410
    106  CG        26.7810   -5.8850   14.6620 C.2    81  ASP81       0.3668
    107  OD1       27.4020   -6.8360   15.1940 O.co2  81  ASP81      -0.2456
    108  OD2       25.6700   -6.0200   14.1190 O.co2  81  ASP81      -0.2456
    109  N         20.3090   -5.0080   19.8950 N.3   121  GLU121     -0.1231
    110  CA        19.9070   -5.7530   18.6910 C.3   121  GLU121      0.1699
    111  C         18.6870   -5.1250   17.9920 C.2   121  GLU121      0.2592
    112  O         18.5300   -5.3080   16.7820 O.2   121  GLU121     -0.2718
    113  CB        19.5770   -7.2230   19.0290 C.3   121  GLU121      0.0402
    114  CG        20.7440   -8.0270   19.5880 C.3   121  GLU121      0.1161
    115  CD        20.9280   -8.0090   21.0970 C.2   121  GLU121      0.3649
    116  OE1       20.4630   -7.0520   21.7560 O.co2 121  GLU121     -0.2457
    117  OE2       21.5790   -8.9390   21.6190 O.co2 121  GLU121     -0.2457
    118  N         17.8290   -4.3960   18.7370 N.am  122  ASN122     -0.1974
    119  CA        16.5800   -3.7680   18.2880 C.3   122  ASN122      0.1688
    120  C         16.7350   -2.2830   18.0280 C.2   122  ASN122      0.2292
    121  O         15.7970   -1.6370   17.5590 O.2   122  ASN122     -0.2864
    122  CB        15.4890   -3.9680   19.3640 C.3   122  ASN122      0.1181
    123  CG        14.8850   -5.3480   19.4140 C.2   122  ASN122      0.2629
    124  OD1       14.9700   -6.1320   18.4660 O.2   122  ASN122     -0.2716
    125  ND2       14.2150   -5.6600   20.5110 N.am  122  ASN122     -0.0877
    126  N         18.1780    0.3340   15.9410 N.3   124  LEU124     -0.1245
    127  CA        18.7080    0.4080   14.5790 C.3   124  LEU124      0.1561
    128  C         19.2220    1.8000   14.2430 C.2   124  LEU124      0.2260
    129  O         18.8120    2.7830   14.8530 O.2   124  LEU124     -0.2867
    130  CB        17.6600   -0.0540   13.5370 C.3   124  LEU124      0.0270
    131  CG        16.9660   -1.4350   13.7700 C.3   124  LEU124      0.0019
    132  CD1       16.0000   -1.7530   12.6460 C.3   124  LEU124      0.0001
    133  CD2       17.9800   -2.5820   13.9200 C.3   124  LEU124      0.0001
    134  N         13.0930   -0.2540   17.2100 N.3   134  SER134     -0.1202
    135  CA        12.4190   -1.1560   16.2890 C.3   134  SER134      0.2020
    136  C         11.8540   -2.3860   16.9870 C.2   134  SER134      0.2618
    137  O         12.1860   -2.6620   18.1480 O.2   134  SER134     -0.2717
    138  CB        13.3880   -1.6000   15.1920 C.3   134  SER134      0.2103
    139  OG        14.2620   -2.6270   15.6290 O.3   134  SER134     -0.2182
    140  N         11.0540   -3.1600   16.2180 N.am  135  ASP135     -0.1973
    141  CA        10.4400   -4.4250   16.5970 C.3   135  ASP135      0.1709
    142  C          9.4350   -4.2320   17.7380 C.2   135  ASP135      0.2293
    143  O          9.7910   -4.2830   18.9190 O.2   135  ASP135     -0.2864
    144  CB        11.5160   -5.4780   16.9500 C.3   135  ASP135      0.1436
    145  CG        11.0080   -6.8980   16.9140 C.2   135  ASP135      0.3671
    146  OD1        9.7800   -7.0860   16.7760 O.co2 135  ASP135     -0.2456
    147  OD2       11.8400   -7.8260   17.0080 O.co2 135  ASP135     -0.2456
@<TRIPOS>BOND
     1    73    71   ar
     2    73    74   ar
     3    71    69   ar
     4    33    34    1
     5    75    74    1
     6    74    72   ar
     7    69    68    1
     8    69    70   ar
     9    68    65    1
    10    35    34    1
    11    35    36    2
    12    86    87    1
    13    86    83    1
    14    34    37    1
    15    72    70   ar
    16    50    49    2
    17     8     6    1
    18    65    64    1
    19    65    66    1
    20    64    57   am
    21    28    29    2
    22    28    27    1
    23     6     7    1
    24     6     5    1
    25    47    48    1
    26    83    82    1
    27    83    84    1
    28     1     2    1
    29    67    66    2
    30    38    39    1
    31    41    40    2
    32    66    76   am
    33    49    48    1
    34    49    55   am
    35    40    39    1
    36    85    84    2
    37    82    78   am
    38    56    57    1
    39    56    55    1
    40    56    59    1
    41    57    58    2
    42    48    51    1
    43    27    26    1
    44    27    30    1
    45     2     5    1
    46     2     3    1
    47    39    42    1
    48    76    77    1
    49    60    59    2
    50    60    61    1
    51    78    77    1
    52    78    79    2
    53    31    30    1
    54    77    80    1
    55    51    52    1
    56    30    32    1
    57    21    19   ar
    58     3     9    1
    59     3     4    2
    60    63    61   ar
    61    42    43    1
    62     9    10    2
    63    61    62   ar
    64    52    53    1
    65    52    54    1
    66    12    11    2
    67    19    20   ar
    68    19    18    1
    69    80    81    1
    70    43    44    1
    71    88    89    1
    72    10    11    1
    73    11    13   am
    74    18    17    1
    75    89    90    1
    76    44    45    1
    77    13    14    1
    78    14    17    1
    79    14    15    1
    80    45    46    1
    81    90    91    2
    82    90    92   am
    83   132   131    1
    84    22    15   am
    85    22    23    1
    86    15    16    2
    87    92    93    1
    88   130   131    1
    89   130   127    1
    90   100    98   ar
    91   131   133    1
    92    23    24    1
    93   108   106   ar
    94    24    25    2
    95   128   127    1
    96   128   129    2
    97    97    98    1
    98    97    96    1
    99    98    99   ar
   100   127   126    1
   101   106   105    1
   102   106   107   ar
   103    93    96    1
   104    93    94    1
   105   105   102    1
   106   138   139    1
   107   138   135    1
   108    95    94    2
   109   104   103    2
   110   102   103    1
   111   102   101    1
   112   140   141    1
   113   140   136   am
   114   135   136    1
   115   135   134    1
   116   141   144    1
   117   141   142    1
   118   146   145   ar
   119   112   111    2
   120   145   144    1
   121   145   147   ar
   122   136   137    2
   123   121   120    2
   124   142   143    2
   125   111   110    1
   126   111   118   am
   127   120   119    1
   128   119   118    1
   129   119   122    1
   130   124   123    2
   131   110   113    1
   132   110   109    1
   133   113   114    1
   134   122   123    1
   135   123   125   am
   136   114   115    1
   137   115   117   ar
   138   115   116   ar
