@<TRIPOS>MOLECULE
tmp/4fszA00.pdb
 139 130 0 0 0
SMALL
GASTEIGER

@<TRIPOS>ATOM
      1  N         18.2390   -9.4300    0.2680 N.3    11  GLN11      -0.1245
      2  CA        19.0250  -10.0230    1.3710 C.3    11  GLN11       0.1566
      3  C         18.2350  -10.0900    2.6910 C.2    11  GLN11       0.2260
      4  O         17.3410   -9.2720    2.9260 O.2    11  GLN11      -0.2867
      5  CB        20.3790   -9.3040    1.6030 C.3    11  GLN11       0.0367
      6  CG        20.3080   -7.8930    2.1840 C.3    11  GLN11       0.0905
      7  CD        21.5730   -7.5490    2.9290 C.2    11  GLN11       0.2608
      8  OE1       22.4710   -6.8900    2.4040 O.2    11  GLN11      -0.2717
      9  NE2       21.6760   -7.9970    4.1740 N.am   11  GLN11      -0.0878
     10  N         17.7710   -9.6200    6.6840 N.3    13  LEU13      -0.1231
     11  CA        18.2250   -8.6430    7.6700 C.3    13  LEU13       0.1693
     12  C         18.1990   -9.2130    9.0960 C.2    13  LEU13       0.2593
     13  O         19.1140   -8.9360    9.8720 O.2    13  LEU13      -0.2718
     14  CB        17.3860   -7.3470    7.5950 C.3    13  LEU13       0.0284
     15  CG        17.4430   -6.5460    6.2850 C.3    13  LEU13       0.0019
     16  CD1       16.5080   -5.3610    6.3410 C.3    13  LEU13       0.0001
     17  CD2       18.8660   -6.0770    5.9630 C.3    13  LEU13       0.0001
     18  N         17.1620   -9.9860    9.4170 N.am   14  GLY14      -0.1942
     19  CA        16.9710  -10.6000   10.7280 C.3    14  GLY14       0.2014
     20  C         15.9230  -11.6960   10.7400 C.2    14  GLY14       0.2638
     21  O         15.1190  -11.7990    9.8080 O.2    14  GLY14      -0.2714
     22  N         15.9330  -12.5300   11.8010 N.am   15  GLU15      -0.1977
     23  CA        15.0230  -13.6770   11.9840 C.3    15  GLU15       0.1602
     24  C         14.5450  -13.7960   13.4450 C.2    15  GLU15       0.2287
     25  O         15.0580  -13.0880   14.3150 O.2    15  GLU15      -0.2864
     26  CB        15.7230  -14.9860   11.5560 C.3    15  GLU15       0.0415
     27  CG        15.9080  -15.1520   10.0550 C.3    15  GLU15       0.1163
     28  CD        16.7550  -16.3260    9.5930 C.2    15  GLU15       0.3649
     29  OE1       17.1770  -17.1430   10.4440 O.co2  15  GLU15      -0.2457
     30  OE2       16.9940  -16.4290    8.3690 O.co2  15  GLU15      -0.2457
     31  N         12.7660  -10.9130    8.3900 N.3    19  VAL19      -0.1245
     32  CA        12.8070   -9.6050    7.7300 C.3    19  VAL19       0.1561
     33  C         13.8340   -9.6330    6.5900 C.2    19  VAL19       0.2260
     34  O         14.9740  -10.0650    6.7850 O.2    19  VAL19      -0.2867
     35  CB        13.0730   -8.4130    8.6970 C.3    19  VAL19       0.0252
     36  CG1       12.8280   -7.0760    7.9960 C.3    19  VAL19       0.0019
     37  CG2       12.2190   -8.5080    9.9580 C.3    19  VAL19       0.0019
     38  N         15.5090   -7.2800    3.1150 N.3    21  LEU21      -0.1245
     39  CA        15.7200   -5.9740    2.4970 C.3    21  LEU21       0.1561
     40  C         15.0560   -6.0100    1.1220 C.2    21  LEU21       0.2260
     41  O         15.3340   -6.9150    0.3270 O.2    21  LEU21      -0.2867
     42  CB        17.2250   -5.6140    2.4080 C.3    21  LEU21       0.0270
     43  CG        17.6470   -4.4480    1.4740 C.3    21  LEU21       0.0019
     44  CD1       17.0870   -3.1100    1.9260 C.3    21  LEU21       0.0001
     45  CD2       19.1560   -4.3470    1.3700 C.3    21  LEU21       0.0001
     46  N         12.3350   -2.3710    4.5530 N.3    32  ALA32      -0.1245
     47  CA        12.4560   -3.6340    5.2740 C.3    32  ALA32       0.1562
     48  C         11.0930   -4.3260    5.2500 C.2    32  ALA32       0.2260
     49  O         10.0870   -3.7220    5.6360 O.2    32  ALA32      -0.2867
     50  CB        12.9310   -3.3930    6.7020 C.3    32  ALA32       0.0290
     51  N          8.3420   -1.7640    6.4900 N.3    73  LEU73      -0.1231
     52  CA         8.9860   -0.9410    7.5050 C.3    73  LEU73       0.1693
     53  C         10.2210   -0.2260    6.9880 C.2    73  LEU73       0.2595
     54  O         10.8080   -0.6200    5.9780 O.2    73  LEU73      -0.2718
     55  CB         9.3740   -1.8170    8.7220 C.3    73  LEU73       0.0284
     56  CG         8.2650   -2.6740    9.3550 C.3    73  LEU73       0.0019
     57  CD1        8.8420   -3.9030   10.0110 C.3    73  LEU73       0.0001
     58  CD2        7.4300   -1.8720   10.3310 C.3    73  LEU73       0.0001
     59  N         10.6200    0.8240    7.7160 N.am   74  GLU74      -0.1920
     60  CA        11.7920    1.6360    7.4320 C.3    74  GLU74       0.1949
     61  C         13.0660    0.7930    7.4890 C.2    74  GLU74       0.2659
     62  O         13.2870    0.0520    8.4560 O.2    74  GLU74      -0.2711
     63  CB        11.8690    2.7950    8.4400 C.2    74  GLU74       0.0111
     64  CG        13.0100    3.7730    8.2120 C.2    74  GLU74       0.0838
     65  CD        13.1540    4.8620    9.2560 C.2    74  GLU74       0.3877
     66  OE1       12.3110    4.9330   10.1800 O.co2  74  GLU74      -0.2406
     67  OE2       14.1170    5.6540    9.1460 O.co2  74  GLU74      -0.2406
     68  N         13.8760    0.8880    6.4290 N.am   75  TYR75      -0.1957
     69  CA        15.1680    0.2340    6.3580 C.3    75  TYR75       0.1771
     70  C         16.1900    1.1790    6.9640 C.2    75  TYR75       0.2620
     71  O         16.2620    2.3510    6.5880 O.2    75  TYR75      -0.2715
     72  CB        15.5390   -0.1630    4.9130 C.3    75  TYR75       0.0574
     73  CG        16.9810   -0.6010    4.7480 C.ar   75  TYR75      -0.0198
     74  CD1       17.4350   -1.8010    5.2920 C.ar   75  TYR75      -0.0009
     75  CD2       17.8930    0.1860    4.0520 C.ar   75  TYR75      -0.0009
     76  CE1       18.7610   -2.2070    5.1440 C.ar   75  TYR75       0.0417
     77  CE2       19.2150   -0.2180    3.8820 C.ar   75  TYR75       0.0417
     78  CZ        19.6500   -1.4080    4.4410 C.ar   75  TYR75       0.1957
     79  OH        20.9580   -1.8000    4.2790 O.3    75  TYR75      -0.2866
     80  N         16.9340    0.6860    7.9440 N.am   76  CYS76      -0.1954
     81  CA        17.9630    1.4530    8.6310 C.3    76  CYS76       0.1843
     82  C         19.3050    0.8710    8.1800 C.2    76  CYS76       0.2626
     83  O         19.6600   -0.2360    8.5870 O.2    76  CYS76      -0.2714
     84  CB        17.7590    1.3850   10.1460 C.3    76  CYS76       0.0997
     85  SG        16.1010    1.8790   10.7000 S.3    76  CYS76      -0.0797
     86  N         19.9840    1.5650    7.2500 N.am   77  SER77      -0.1936
     87  CA        21.2280    1.1110    6.6050 C.3    77  SER77       0.2055
     88  C         22.4290    0.9430    7.5480 C.2    77  SER77       0.2644
     89  O         23.3110    0.1390    7.2430 O.2    77  SER77      -0.2714
     90  CB        21.6140    2.0440    5.4620 C.3    77  SER77       0.2130
     91  OG        21.7690    3.3820    5.9020 O.3    77  SER77      -0.2179
     92  N         22.4450    1.6650    8.6710 N.am   78  GLY78      -0.1939
     93  CA        23.5280    1.5950    9.6530 C.3    78  GLY78       0.2014
     94  C         23.5600    0.3320   10.4950 C.2    78  GLY78       0.2639
     95  O         24.4960    0.1310   11.2740 O.2    78  GLY78      -0.2714
     96  N         22.5520   -0.5220   10.3340 N.am   79  GLY79      -0.1939
     97  CA        22.4370   -1.7720   11.0720 C.3    79  GLY79       0.2014
     98  C         22.0150   -1.5890   12.5160 C.2    79  GLY79       0.2638
     99  O         21.3020   -0.6390   12.8470 O.2    79  GLY79      -0.2714
    100  N         22.4810   -2.4890   13.3860 N.am   80  GLU80      -0.1977
    101  CA        22.1320   -2.5260   14.8010 C.3    80  GLU80       0.1602
    102  C         23.1640   -1.8540   15.6810 C.2    80  GLU80       0.2287
    103  O         24.3630   -1.9460   15.4140 O.2    80  GLU80      -0.2864
    104  CB        21.9540   -3.9830   15.2700 C.3    80  GLU80       0.0415
    105  CG        20.9830   -4.7690   14.4090 C.3    80  GLU80       0.1163
    106  CD        20.7660   -6.2380   14.7100 C.2    80  GLU80       0.3649
    107  OE1       21.3390   -6.7590   15.6940 O.co2  80  GLU80      -0.2457
    108  OE2       19.9910   -6.8650   13.9570 O.co2  80  GLU80      -0.2457
    109  N         26.1590   -3.9200   17.0980 N.3    83  ASP83      -0.1239
    110  CA        27.4130   -4.0180   16.3440 C.3    83  ASP83       0.1674
    111  C         28.2960   -2.7550   16.4510 C.2    83  ASP83       0.2266
    112  O         29.3940   -2.7510   15.8990 O.2    83  ASP83      -0.2867
    113  CB        27.1380   -4.3790   14.8800 C.3    83  ASP83       0.1410
    114  CG        26.5230   -5.7630   14.7310 C.2    83  ASP83       0.3668
    115  OD1       27.0650   -6.7250   15.3240 O.co2  83  ASP83      -0.2456
    116  OD2       25.4910   -5.8800   14.0450 O.co2  83  ASP83      -0.2456
    117  N         20.0560   -4.9260   20.1030 N.3   123  GLU123     -0.1245
    118  CA        19.5970   -5.6600   18.9110 C.3   123  GLU123      0.1567
    119  C         18.3550   -4.9950   18.3180 C.2   123  GLU123      0.2260
    120  O         18.1110   -5.1130   17.1190 O.2   123  GLU123     -0.2867
    121  CB        19.2670   -7.1340   19.2460 C.3   123  GLU123      0.0388
    122  CG        20.4220   -7.9490   19.8060 C.3   123  GLU123      0.1160
    123  CD        20.6350   -7.8920   21.3080 C.2   123  GLU123      0.3649
    124  OE1       20.2750   -6.8720   21.9400 O.co2 123  GLU123     -0.2457
    125  OE2       21.2100   -8.8620   21.8510 O.co2 123  GLU123     -0.2457
    126  N         18.0920    0.2620   15.9640 N.3   126  LEU126     -0.1245
    127  CA        18.6260    0.3430   14.6060 C.3   126  LEU126      0.1561
    128  C         19.1150    1.7440   14.2940 C.2   126  LEU126      0.2260
    129  O         18.6500    2.7160   14.8850 O.2   126  LEU126     -0.2867
    130  CB        17.5820   -0.1220   13.5610 C.3   126  LEU126      0.0270
    131  CG        16.9360   -1.5190   13.7880 C.3   126  LEU126      0.0019
    132  CD1       15.9640   -1.8690   12.6720 C.3   126  LEU126      0.0001
    133  CD2       17.9830   -2.6290   13.9370 C.3   126  LEU126      0.0001
    134  N         13.0430   -0.3580   17.3600 N.3   136  SER136     -0.1217
    135  CA        12.5490   -1.3680   16.4370 C.3   136  SER136      0.1889
    136  C         11.7990   -2.5080   17.1220 C.2   136  SER136      0.2288
    137  O         12.0930   -2.8500   18.2700 O.2   136  SER136     -0.2866
    138  CB        13.7320   -1.9470   15.6630 C.3   136  SER136      0.2089
    139  OG        13.3830   -3.0180   14.8030 O.3   136  SER136     -0.2183
@<TRIPOS>BOND
     1     1     2    1
     2    41    40    2
     3    40    39    1
     4    45    43    1
     5     2     5    1
     6     2     3    1
     7    43    44    1
     8    43    42    1
     9     5     6    1
    10     6     7    1
    11     8     7    2
    12    42    39    1
    13    39    38    1
    14     3     4    2
    15     7     9   am
    16    77    75   ar
    17    77    78   ar
    18    75    73   ar
    19    79    78    1
    20    78    76   ar
    21    46    47    1
    22    73    72    1
    23    73    74   ar
    24    72    69    1
    25    76    74   ar
    26    48    47    1
    27    48    49    2
    28    47    50    1
    29    90    91    1
    30    90    87    1
    31    17    15    1
    32    54    53    2
    33    15    16    1
    34    15    14    1
    35    69    68    1
    36    69    70    1
    37    68    61   am
    38    51    52    1
    39    71    70    2
    40    33    34    2
    41    33    32    1
    42    87    86    1
    43    87    88    1
    44    10    11    1
    45    70    80   am
    46    53    52    1
    47    53    59   am
    48    89    88    2
    49    86    82   am
    50    60    61    1
    51    60    59    1
    52    60    63    1
    53    61    62    2
    54    52    55    1
    55    88    92   am
    56    14    11    1
    57    11    12    1
    58    32    31    1
    59    32    35    1
    60    80    81    1
    61    36    35    1
    62    82    83    2
    63    82    81    1
    64    64    63    2
    65    64    65    1
    66    30    28   ar
    67    81    84    1
    68    92    93    1
    69    35    37    1
    70    55    56    1
    71    12    18   am
    72    12    13    2
    73    67    65   ar
    74    65    66   ar
    75    56    57    1
    76    56    58    1
    77    18    19    1
    78    28    27    1
    79    28    29   ar
    80    93    94    1
    81    21    20    2
    82    27    26    1
    83    84    85    1
    84    96    94   am
    85    96    97    1
    86    94    95    2
    87    19    20    1
    88    20    22   am
    89    97    98    1
    90    26    23    1
    91    22    23    1
    92    23    24    1
    93    98    99    2
    94    98   100   am
    95   132   131    1
    96   100   101    1
    97    24    25    2
    98   130   131    1
    99   130   127    1
   100   131   133    1
   101   108   106   ar
   102   116   114   ar
   103   128   127    1
   104   128   129    2
   105   105   106    1
   106   105   104    1
   107   127   126    1
   108   106   107   ar
   109   114   113    1
   110   114   115   ar
   111   101   104    1
   112   101   102    1
   113   139   138    1
   114   113   110    1
   115   103   102    2
   116   138   135    1
   117   112   111    2
   118   110   111    1
   119   110   109    1
   120   135   136    1
   121   135   134    1
   122   120   119    2
   123   136   137    2
   124   119   118    1
   125   118   121    1
   126   118   117    1
   127   121   122    1
   128   122   123    1
   129   123   125   ar
   130   123   124   ar
