@<TRIPOS>MOLECULE
tmp/4ft0A00.pdb
 168 157 0 0 0
SMALL
GASTEIGER

@<TRIPOS>ATOM
      1  N         17.8940   -9.5420    6.5720 N.3    13  LEU13      -0.1231
      2  CA        18.2380   -8.5770    7.6110 C.3    13  LEU13       0.1693
      3  C         18.1260   -9.1740    9.0170 C.2    13  LEU13       0.2593
      4  O         18.8460   -8.7580    9.9300 O.2    13  LEU13      -0.2718
      5  CB        17.3210   -7.3440    7.5060 C.3    13  LEU13       0.0284
      6  CG        17.3990   -6.5120    6.2360 C.3    13  LEU13       0.0019
      7  CD1       16.4090   -5.3770    6.2940 C.3    13  LEU13       0.0001
      8  CD2       18.8240   -5.9950    5.9800 C.3    13  LEU13       0.0001
      9  N         17.2030  -10.1130    9.1790 N.am   14  GLY14      -0.1942
     10  CA        16.9690  -10.7680   10.4520 C.3    14  GLY14       0.2014
     11  C         15.9770  -11.9060   10.3890 C.2    14  GLY14       0.2639
     12  O         15.2760  -12.0890    9.3860 O.2    14  GLY14      -0.2714
     13  N         15.9410  -12.6830   11.4760 N.am   15  GLU15      -0.1963
     14  CA        15.0480  -13.8160   11.6620 C.3    15  GLU15       0.1733
     15  C         14.2140  -13.5670   12.9120 C.2    15  GLU15       0.2617
     16  O         14.7670  -13.3740   14.0000 O.2    15  GLU15      -0.2715
     17  CB        15.8370  -15.1340   11.7550 C.3    15  GLU15       0.0429
     18  CG        16.6330  -15.4090   10.4790 C.3    15  GLU15       0.1163
     19  CD        15.7610  -16.2130    9.5360 C.2    15  GLU15       0.3649
     20  OE1       14.5920  -16.5530    9.8410 O.co2  15  GLU15      -0.2457
     21  OE2       16.2220  -16.4850    8.4230 O.co2  15  GLU15      -0.2457
     22  N         12.9010  -13.4890   12.7260 N.am   16  GLY16      -0.1940
     23  CA        11.9550  -13.2980   13.8170 C.3    16  GLY16       0.2014
     24  C         11.5530  -14.6300   14.4190 C.2    16  GLY16       0.2638
     25  O         11.9490  -15.6870   13.9120 O.2    16  GLY16      -0.2714
     26  N         10.7510  -14.5890   15.4990 N.am   17  ALA17      -0.1977
     27  CA        10.2460  -15.7690   16.2110 C.3    17  ALA17       0.1597
     28  C          9.4130  -16.6940   15.2990 C.2    17  ALA17       0.2287
     29  O          9.5310  -17.9170   15.4180 O.2    17  ALA17      -0.2864
     30  CB         9.4110  -15.3380   17.4050 C.3    17  ALA17       0.0319
     31  N         12.9340  -11.3670    8.0950 N.3    21  VAL21      -0.1245
     32  CA        12.9360   -9.9660    7.6820 C.3    21  VAL21       0.1561
     33  C         13.8780   -9.8430    6.4750 C.2    21  VAL21       0.2260
     34  O         15.0290  -10.2870    6.5460 O.2    21  VAL21      -0.2867
     35  CB        13.3120   -8.9850    8.8310 C.3    21  VAL21       0.0252
     36  CG1       13.3400   -7.5380    8.3350 C.3    21  VAL21       0.0019
     37  CG2       12.3590   -9.1210   10.0140 C.3    21  VAL21       0.0019
     38  N         12.2910   -2.4790    4.5770 N.3    34  ALA34      -0.1245
     39  CA        12.4380   -3.7730    5.2380 C.3    34  ALA34       0.1562
     40  C         11.0780   -4.4800    5.2720 C.2    34  ALA34       0.2260
     41  O         10.0770   -3.8800    5.6690 O.2    34  ALA34      -0.2867
     42  CB        12.9930   -3.5880    6.6440 C.3    34  ALA34       0.0290
     43  N          8.9300   -7.5540    6.7850 N.3    36  LYS36      -0.1245
     44  CA         8.7940   -8.5620    7.8290 C.3    36  LYS36       0.1561
     45  C          7.6740   -9.5190    7.4110 C.2    36  LYS36       0.2260
     46  O          6.5480   -9.0820    7.1530 O.2    36  LYS36      -0.2867
     47  CB         8.5280   -7.9030    9.1990 C.3    36  LYS36       0.0271
     48  CG         8.5270   -8.8750   10.3690 C.3    36  LYS36       0.0035
     49  CD         8.3210   -8.1520   11.6850 C.3    36  LYS36       0.0206
     50  CE         7.9800   -9.0950   12.8060 C.3    36  LYS36       0.1093
     51  NZ         8.2050   -8.4650   14.1360 N.3    36  LYS36      -0.1314
     52  N          0.9590   -5.9790   16.8260 N.3    45  GLU45      -0.1245
     53  CA         2.1490   -5.3310   16.2720 C.3    45  GLU45       0.1567
     54  C          1.7810   -4.3490   15.1460 C.2    45  GLU45       0.2260
     55  O          2.3060   -3.2360   15.1320 O.2    45  GLU45      -0.2867
     56  CB         3.1560   -6.3730   15.7620 C.3    45  GLU45       0.0388
     57  CG         4.5350   -5.7960   15.4700 C.3    45  GLU45       0.1160
     58  CD         5.5650   -6.7600   14.9110 C.2    45  GLU45       0.3649
     59  OE1        5.4330   -7.9850   15.1380 O.co2  45  GLU45      -0.2457
     60  OE2        6.5340   -6.2820   14.2770 O.co2  45  GLU45      -0.2457
     61  N         11.1480    3.2850   14.2280 N.3    58  VAL58      -0.1245
     62  CA        11.1120    2.7100   12.8700 C.3    58  VAL58       0.1561
     63  C          9.6970    2.9460   12.2740 C.2    58  VAL58       0.2260
     64  O          8.6950    2.5470   12.8800 O.2    58  VAL58      -0.2867
     65  CB        11.5120    1.2090   12.8460 C.3    58  VAL58       0.0252
     66  CG1       11.2200    0.5790   11.4870 C.3    58  VAL58       0.0019
     67  CG2       12.9770    1.0200   13.2190 C.3    58  VAL58       0.0019
     68  N          8.3830   -1.8430    6.5930 N.3    74  LEU74      -0.1231
     69  CA         9.0010   -0.9860    7.5890 C.3    74  LEU74       0.1693
     70  C         10.1790   -0.2270    7.0240 C.2    74  LEU74       0.2592
     71  O         10.7660   -0.6280    6.0160 O.2    74  LEU74      -0.2718
     72  CB         9.4540   -1.8180    8.8130 C.3    74  LEU74       0.0284
     73  CG         8.3610   -2.6000    9.5600 C.3    74  LEU74       0.0019
     74  CD1        8.9340   -3.8440   10.2120 C.3    74  LEU74       0.0001
     75  CD2        7.6200   -1.7160   10.5610 C.3    74  LEU74       0.0001
     76  N         10.5230    0.8820    7.6950 N.am   75  GLU75      -0.1966
     77  CA        11.6370    1.7560    7.3610 C.3    75  GLU75       0.1733
     78  C         12.9460    0.9700    7.4540 C.2    75  GLU75       0.2616
     79  O         13.1720    0.2690    8.4490 O.2    75  GLU75      -0.2715
     80  CB        11.6250    2.9480    8.3280 C.3    75  GLU75       0.0429
     81  CG        12.7540    3.9510    8.1740 C.3    75  GLU75       0.1163
     82  CD        12.7720    5.0320    9.2410 C.2    75  GLU75       0.3649
     83  OE1       12.0930    4.8730   10.2850 O.co2  75  GLU75      -0.2457
     84  OE2       13.4880    6.0380    9.0340 O.co2  75  GLU75      -0.2457
     85  N         13.7660    1.0390    6.4000 N.am   76  TYR76      -0.1960
     86  CA        15.0540    0.3650    6.3630 C.3    76  TYR76       0.1771
     87  C         16.1020    1.2710    6.9820 C.2    76  TYR76       0.2620
     88  O         16.1730    2.4550    6.6620 O.2    76  TYR76      -0.2715
     89  CB        15.4530   -0.0600    4.9260 C.3    76  TYR76       0.0574
     90  CG        16.8510   -0.6410    4.8320 C.ar   76  TYR76      -0.0198
     91  CD1       17.2040   -1.7870    5.5480 C.ar   76  TYR76      -0.0009
     92  CD2       17.8340   -0.0260    4.0600 C.ar   76  TYR76      -0.0009
     93  CE1       18.4890   -2.3250    5.4660 C.ar   76  TYR76       0.0417
     94  CE2       19.1210   -0.5570    3.9690 C.ar   76  TYR76       0.0417
     95  CZ        19.4460   -1.7030    4.6810 C.ar   76  TYR76       0.1957
     96  OH        20.7190   -2.2240    4.6130 O.3    76  TYR76      -0.2866
     97  N         16.8910    0.7110    7.8960 N.am   77  CYS77      -0.1954
     98  CA        17.9580    1.4100    8.6080 C.3    77  CYS77       0.1843
     99  C         19.2880    0.7790    8.1690 C.2    77  CYS77       0.2626
    100  O         19.6050   -0.3450    8.5590 O.2    77  CYS77      -0.2714
    101  CB        17.7310    1.3290   10.1200 C.3    77  CYS77       0.0997
    102  SG        16.0750    1.8510   10.6550 S.3    77  CYS77      -0.0797
    103  N         20.0050    1.4690    7.2760 N.am   78  SER78      -0.1950
    104  CA        21.2340    0.9820    6.6240 C.3    78  SER78       0.1924
    105  C         22.4440    0.8070    7.5700 C.2    78  SER78       0.2314
    106  O         23.3290    0.0070    7.2560 O.2    78  SER78      -0.2863
    107  CB        21.6100    1.8800    5.4480 C.3    78  SER78       0.2116
    108  OG        22.0180    3.1700    5.8680 O.3    78  SER78      -0.2180
    109  N         22.4640   -0.6550   10.4100 N.3    80  GLY80      -0.1210
    110  CA        22.2910   -1.8980   11.1480 C.3    80  GLY80       0.1956
    111  C         21.8870   -1.7050   12.5920 C.2    80  GLY80       0.2611
    112  O         21.2610   -0.7070   12.9320 O.2    80  GLY80      -0.2717
    113  N         22.2730   -2.6450   13.4500 N.am   81  GLU81      -0.1979
    114  CA        21.9060   -2.6430   14.8610 C.3    81  GLU81       0.1602
    115  C         22.9690   -1.9960   15.7480 C.2    81  GLU81       0.2287
    116  O         24.1570   -2.2140   15.5360 O.2    81  GLU81      -0.2864
    117  CB        21.6480   -4.0900   15.3500 C.3    81  GLU81       0.0415
    118  CG        20.6860   -4.8820   14.4820 C.3    81  GLU81       0.1163
    119  CD        20.5430   -6.3690   14.7540 C.2    81  GLU81       0.3649
    120  OE1       21.2480   -6.8970   15.6460 O.co2  81  GLU81      -0.2457
    121  OE2       19.7280   -7.0110   14.0500 O.co2  81  GLU81      -0.2457
    122  N         26.0270   -3.9490   17.1120 N.3    84  ASP84      -0.1239
    123  CA        27.2520   -4.0860   16.3240 C.3    84  ASP84       0.1674
    124  C         28.1570   -2.8570   16.3670 C.2    84  ASP84       0.2266
    125  O         29.2050   -2.8610   15.7220 O.2    84  ASP84      -0.2867
    126  CB        26.9290   -4.4810   14.8780 C.3    84  ASP84       0.1410
    127  CG        26.3840   -5.8940   14.8020 C.2    84  ASP84       0.3668
    128  OD1       27.1050   -6.8310   15.2150 O.co2  84  ASP84      -0.2456
    129  OD2       25.2180   -6.0590   14.3820 O.co2  84  ASP84      -0.2456
    130  N         19.9090   -4.8970   20.1360 N.3   124  GLU124     -0.1231
    131  CA        19.4460   -5.5940   18.9250 C.3   124  GLU124      0.1699
    132  C         18.1770   -4.9410   18.3450 C.2   124  GLU124      0.2592
    133  O         17.9260   -5.0690   17.1540 O.2   124  GLU124     -0.2718
    134  CB        19.1630   -7.0890   19.2170 C.3   124  GLU124      0.0402
    135  CG        20.3640   -7.8650   19.7470 C.3   124  GLU124      0.1161
    136  CD        20.5340   -7.8990   21.2600 C.2   124  GLU124      0.3649
    137  OE1       20.2170   -6.8950   21.9420 O.co2 124  GLU124     -0.2457
    138  OE2       21.0200   -8.9350   21.7650 O.co2 124  GLU124     -0.2457
    139  N         17.3820   -4.2510   19.1850 N.am  125  ASN125     -0.1974
    140  CA        16.1120   -3.6200   18.7930 C.3   125  ASN125      0.1688
    141  C         16.2680   -2.1310   18.5960 C.2   125  ASN125      0.2292
    142  O         15.2760   -1.4120   18.4850 O.2   125  ASN125     -0.2864
    143  CB        15.0280   -3.9160   19.8360 C.3   125  ASN125      0.1181
    144  CG        14.5160   -5.3260   19.7470 C.2   125  ASN125      0.2629
    145  OD1       14.6030   -5.9760   18.7030 O.2   125  ASN125     -0.2716
    146  ND2       13.9250   -5.8170   20.8230 N.am  125  ASN125     -0.0877
    147  N         18.0220    0.2890   15.9880 N.3   127  LEU127     -0.1245
    148  CA        18.5690    0.3250   14.6320 C.3   127  LEU127      0.1561
    149  C         19.1040    1.7010   14.3090 C.2   127  LEU127      0.2260
    150  O         18.7030    2.6830   14.9240 O.2   127  LEU127     -0.2867
    151  CB        17.5260   -0.1200   13.5760 C.3   127  LEU127      0.0270
    152  CG        16.8030   -1.4780   13.8140 C.3   127  LEU127      0.0019
    153  CD1       15.9090   -1.8290   12.6440 C.3   127  LEU127      0.0001
    154  CD2       17.7840   -2.6370   14.0700 C.3   127  LEU127      0.0001
    155  N         12.9390   -0.3300   17.2620 N.3   137  SER137     -0.1202
    156  CA        12.4290   -1.3870   16.3920 C.3   137  SER137      0.2020
    157  C         11.7250   -2.5230   17.1570 C.2   137  SER137      0.2618
    158  O         12.0330   -2.7760   18.3190 O.2   137  SER137     -0.2717
    159  CB        13.6030   -1.9720   15.6000 C.3   137  SER137      0.2103
    160  OG        13.2900   -3.1380   14.8570 O.3   137  SER137     -0.2182
    161  N         10.8300   -3.2340   16.4470 N.am  138  ASP138     -0.1973
    162  CA        10.1090   -4.4450   16.8390 C.3   138  ASP138      0.1709
    163  C          9.1160   -4.2110   17.9760 C.2   138  ASP138      0.2293
    164  O          9.4750   -4.2460   19.1560 O.2   138  ASP138     -0.2864
    165  CB        11.0890   -5.5860   17.1890 C.3   138  ASP138      0.1436
    166  CG        10.4480   -6.9370   17.4510 C.2   138  ASP138      0.3671
    167  OD1        9.2230   -7.0790   17.2060 O.co2 138  ASP138     -0.2456
    168  OD2       11.1720   -7.8580   17.8870 O.co2 138  ASP138     -0.2456
@<TRIPOS>BOND
     1    94    92   ar
     2    94    95   ar
     3    92    90   ar
     4    38    39    1
     5    96    95    1
     6    95    93   ar
     7    90    89    1
     8    90    91   ar
     9    89    86    1
    10    39    40    1
    11    39    42    1
    12    40    41    2
    13   107   108    1
    14   107   104    1
    15    93    91   ar
    16     8     6    1
    17    71    70    2
    18     6     7    1
    19     6     5    1
    20    86    85    1
    21    86    87    1
    22    85    78   am
    23    33    34    2
    24    33    32    1
    25     1     2    1
    26    68    69    1
    27   104   103    1
    28   104   105    1
    29    88    87    2
    30    43    44    1
    31    87    97   am
    32    70    69    1
    33    70    76   am
    34    46    45    2
    35   106   105    2
    36   103    99   am
    37    77    78    1
    38    77    76    1
    39    77    80    1
    40    45    44    1
    41    78    79    2
    42     5     2    1
    43    69    72    1
    44     2     3    1
    45    32    31    1
    46    32    35    1
    47    44    47    1
    48    97    98    1
    49    99   100    2
    50    99    98    1
    51    81    80    1
    52    81    82    1
    53    36    35    1
    54    21    19   ar
    55    98   101    1
    56    72    73    1
    57    35    37    1
    58     3     9   am
    59     3     4    2
    60    84    82   ar
    61     9    10    1
    62    47    48    1
    63    82    83   ar
    64    12    11    2
    65    19    20   ar
    66    19    18    1
    67    73    74    1
    68    73    75    1
    69   101   102    1
    70    48    49    1
    71    11    10    1
    72    11    13   am
    73   109   110    1
    74    18    17    1
    75   110   111    1
    76    13    14    1
    77    66    65    1
    78    14    17    1
    79    14    15    1
    80    49    50    1
    81    63    62    1
    82    63    64    2
    83   111   112    2
    84   111   113   am
    85   153   152    1
    86    22    15   am
    87    22    23    1
    88    50    51    1
    89    65    62    1
    90    65    67    1
    91    62    61    1
    92    15    16    2
    93   113   114    1
    94   151   152    1
    95   151   148    1
    96   152   154    1
    97    23    24    1
    98    25    24    2
    99   121   119   ar
   100    60    58   ar
   101   149   148    1
   102   149   150    2
   103   129   127   ar
   104    24    26   am
   105   118   119    1
   106   118   117    1
   107   148   147    1
   108   119   120   ar
   109   127   126    1
   110   127   128   ar
   111   160   159    1
   112   114   117    1
   113   114   115    1
   114   126   123    1
   115    58    59   ar
   116    58    57    1
   117    55    54    2
   118    54    53    1
   119    28    29    2
   120    28    27    1
   121    57    56    1
   122    26    27    1
   123   116   115    2
   124   159   156    1
   125   125   124    2
   126    56    53    1
   127    27    30    1
   128    53    52    1
   129   123   124    1
   130   123   122    1
   131   156   157    1
   132   156   155    1
   133   161   162    1
   134   161   157   am
   135   162   165    1
   136   162   163    1
   137   133   132    2
   138   157   158    2
   139   165   166    1
   140   167   166   ar
   141   166   168   ar
   142   163   164    2
   143   132   131    1
   144   132   139   am
   145   142   141    2
   146   141   140    1
   147   145   144    2
   148   140   139    1
   149   140   143    1
   150   131   134    1
   151   131   130    1
   152   134   135    1
   153   135   136    1
   154   144   143    1
   155   144   146   am
   156   136   138   ar
   157   136   137   ar
