@<TRIPOS>MOLECULE
tmp/4ft3A00.pdb
 133 123 0 0 0
SMALL
GASTEIGER

@<TRIPOS>ATOM
      1  N         18.4680   -9.3440    5.8820 N.3    14  LEU14      -0.1231
      2  CA        19.0110   -8.4140    6.8590 C.3    14  LEU14       0.1693
      3  C         19.1930   -9.1280    8.1940 C.2    14  LEU14       0.2592
      4  O         20.2560   -9.0200    8.8010 O.2    14  LEU14      -0.2718
      5  CB        18.1170   -7.1670    7.0020 C.3    14  LEU14       0.0284
      6  CG        18.0870   -6.2100    5.8110 C.3    14  LEU14       0.0019
      7  CD1       17.1120   -5.0760    6.0590 C.3    14  LEU14       0.0001
      8  CD2       19.4910   -5.6750    5.4730 C.3    14  LEU14       0.0001
      9  N         18.1680   -9.8780    8.5990 N.am   15  GLY15      -0.1957
     10  CA        18.1370  -10.6650    9.8240 C.3    15  GLY15       0.1869
     11  C         17.1600  -11.8220    9.7610 C.2    15  GLY15       0.2309
     12  O         16.3910  -11.9420    8.8000 O.2    15  GLY15      -0.2863
     13  N         13.7970  -10.7930    8.1530 N.3    22  VAL22      -0.1245
     14  CA        13.7820   -9.3970    7.7300 C.3    22  VAL22       0.1561
     15  C         14.5990   -9.3220    6.4360 C.2    22  VAL22       0.2260
     16  O         15.7890   -9.6380    6.4420 O.2    22  VAL22      -0.2867
     17  CB        14.2890   -8.3980    8.8180 C.3    22  VAL22       0.0252
     18  CG1       14.2150   -6.9540    8.3190 C.3    22  VAL22       0.0019
     19  CG2       13.5120   -8.5530   10.1220 C.3    22  VAL22       0.0019
     20  N         12.7130   -2.1880    4.6030 N.3    35  ALA35      -0.1245
     21  CA        12.9020   -3.5240    5.1490 C.3    35  ALA35       0.1562
     22  C         11.5540   -4.2260    5.2160 C.2    35  ALA35       0.2260
     23  O         10.5340   -3.5960    5.5280 O.2    35  ALA35      -0.2867
     24  CB        13.5420   -3.4600    6.5160 C.3    35  ALA35       0.0290
     25  N          9.5780   -7.3590    6.9530 N.3    37  LYS37      -0.1245
     26  CA         9.5100   -8.3870    7.9870 C.3    37  LYS37       0.1561
     27  C          8.4820   -9.4200    7.5110 C.2    37  LYS37       0.2260
     28  O          7.3160   -9.0670    7.2860 O.2    37  LYS37      -0.2867
     29  CB         9.1390   -7.7640    9.3500 C.3    37  LYS37       0.0271
     30  CG         9.2790   -8.6990   10.5390 C.3    37  LYS37       0.0035
     31  CD         9.2280   -7.9110   11.8330 C.3    37  LYS37       0.0206
     32  CE         9.0880   -8.7920   13.0440 C.3    37  LYS37       0.1093
     33  NZ         9.2320   -8.0120   14.2990 N.3    37  LYS37      -0.1314
     34  N         11.3600    3.3260   14.3380 N.3    60  VAL60      -0.1245
     35  CA        11.3020    2.7240   12.9960 C.3    60  VAL60       0.1561
     36  C          9.8860    2.9460   12.4060 C.2    60  VAL60       0.2260
     37  O          8.8830    2.5670   13.0220 O.2    60  VAL60      -0.2867
     38  CB        11.7210    1.2210   12.9940 C.3    60  VAL60       0.0252
     39  CG1       11.2990    0.5260   11.7070 C.3    60  VAL60       0.0019
     40  CG2       13.2210    1.0780   13.1960 C.3    60  VAL60       0.0019
     41  N          8.6540   -1.8310    6.6650 N.3    76  LEU76      -0.1231
     42  CA         9.2720   -1.0080    7.7020 C.3    76  LEU76       0.1693
     43  C         10.5130   -0.2780    7.2080 C.2    76  LEU76       0.2592
     44  O         11.1350   -0.6790    6.2190 O.2    76  LEU76      -0.2718
     45  CB         9.6400   -1.8970    8.9170 C.3    76  LEU76       0.0284
     46  CG         8.4850   -2.7140    9.5330 C.3    76  LEU76       0.0019
     47  CD1        8.9770   -4.0520   10.0680 C.3    76  LEU76       0.0001
     48  CD2        7.7070   -1.8970   10.5710 C.3    76  LEU76       0.0001
     49  N         10.8770    0.7900    7.9260 N.am   77  GLU77      -0.1966
     50  CA        12.0310    1.6380    7.6520 C.3    77  GLU77       0.1733
     51  C         13.3420    0.8530    7.5450 C.2    77  GLU77       0.2616
     52  O         13.6300   -0.0110    8.3830 O.2    77  GLU77      -0.2715
     53  CB        12.1620    2.6930    8.7540 C.3    77  GLU77       0.0429
     54  CG        13.0080    3.8930    8.3720 C.3    77  GLU77       0.1163
     55  CD        13.1520    4.9340    9.4640 C.2    77  GLU77       0.3649
     56  OE1       12.2960    4.9750   10.3770 O.co2  77  GLU77      -0.2457
     57  OE2       14.1110    5.7330    9.3860 O.co2  77  GLU77      -0.2457
     58  N         14.1220    1.1550    6.4980 N.am   78  TYR78      -0.1960
     59  CA        15.4310    0.5520    6.3080 C.3    78  TYR78       0.1771
     60  C         16.4500    1.4350    6.9970 C.2    78  TYR78       0.2620
     61  O         16.4780    2.6550    6.8000 O.2    78  TYR78      -0.2715
     62  CB        15.7700    0.3420    4.8210 C.3    78  TYR78       0.0574
     63  CG        17.1870   -0.1260    4.5480 C.ar   78  TYR78      -0.0198
     64  CD1       17.6760   -1.3050    5.1070 C.ar   78  TYR78      -0.0009
     65  CD2       18.0190    0.5790    3.6830 C.ar   78  TYR78      -0.0009
     66  CE1       18.9730   -1.7480    4.8430 C.ar   78  TYR78       0.0417
     67  CE2       19.3120    0.1390    3.3990 C.ar   78  TYR78       0.0417
     68  CZ        19.7860   -1.0230    3.9840 C.ar   78  TYR78       0.1957
     69  OH        21.0610   -1.4460    3.7030 O.3    78  TYR78      -0.2866
     70  N         17.2460    0.8110    7.8550 N.am   79  CYS79      -0.1954
     71  CA        18.2910    1.4640    8.6260 C.3    79  CYS79       0.1843
     72  C         19.5840    0.7980    8.2020 C.2    79  CYS79       0.2626
     73  O         19.9070   -0.2840    8.6880 O.2    79  CYS79      -0.2714
     74  CB        18.0120    1.3410   10.1270 C.3    79  CYS79       0.0997
     75  SG        16.3430    1.8580   10.6250 S.3    79  CYS79      -0.0797
     76  N         20.2710    1.4000    7.2060 N.am   80  SER80      -0.1950
     77  CA        21.4870    0.8710    6.5660 C.3    80  SER80       0.1924
     78  C         22.6740    0.7020    7.5160 C.2    80  SER80       0.2314
     79  O         23.5440   -0.1320    7.2470 O.2    80  SER80      -0.2863
     80  CB        21.9050    1.7420    5.3840 C.3    80  SER80       0.2116
     81  OG        22.2470    3.0660    5.7650 O.3    80  SER80      -0.2180
     82  N         22.6230   -0.5950   10.3920 N.3    82  GLY82      -0.1210
     83  CA        22.4560   -1.8440   11.1240 C.3    82  GLY82       0.1956
     84  C         22.0730   -1.6730   12.5780 C.2    82  GLY82       0.2611
     85  O         21.3920   -0.7160   12.9420 O.2    82  GLY82      -0.2717
     86  N         22.5140   -2.6170   13.4120 N.am   83  GLU83      -0.1979
     87  CA        22.2250   -2.6720   14.8390 C.3    83  GLU83       0.1602
     88  C         23.2790   -1.9650   15.6730 C.2    83  GLU83       0.2287
     89  O         24.4650   -2.0090   15.3400 O.2    83  GLU83      -0.2864
     90  CB        22.1270   -4.1290   15.2980 C.3    83  GLU83       0.0415
     91  CG        21.0490   -4.9390   14.5960 C.3    83  GLU83       0.1163
     92  CD        20.9720   -6.3950   15.0060 C.2    83  GLU83       0.3649
     93  OE1       21.7200   -6.8080   15.9220 O.co2  83  GLU83      -0.2457
     94  OE2       20.1520   -7.1260   14.4090 O.co2  83  GLU83      -0.2457
     95  N         26.2820   -4.0540   17.0210 N.3    86  ASP86      -0.1239
     96  CA        27.5160   -4.1960   16.2400 C.3    86  ASP86       0.1674
     97  C         28.4510   -2.9820   16.3480 C.2    86  ASP86       0.2266
     98  O         29.5590   -3.0470   15.8080 O.2    86  ASP86      -0.2867
     99  CB        27.2050   -4.5140   14.7720 C.3    86  ASP86       0.1410
    100  CG        26.5660   -5.8830   14.5900 C.2    86  ASP86       0.3668
    101  OD1       27.0940   -6.8700   15.1580 O.co2  86  ASP86      -0.2456
    102  OD2       25.5360   -5.9660   13.8970 O.co2  86  ASP86      -0.2456
    103  N         20.2580   -4.9880   19.9930 N.3   126  GLU126     -0.1245
    104  CA        19.8630   -5.7460   18.7910 C.3   126  GLU126      0.1567
    105  C         18.6550   -5.1240   18.0980 C.2   126  GLU126      0.2260
    106  O         18.5090   -5.2860   16.8850 O.2   126  GLU126     -0.2867
    107  CB        19.5430   -7.2270   19.1210 C.3   126  GLU126      0.0388
    108  CG        20.7060   -8.0270   19.6880 C.3   126  GLU126      0.1160
    109  CD        20.8740   -7.9960   21.1970 C.2   126  GLU126      0.3649
    110  OE1       20.5270   -6.9690   21.8240 O.co2 126  GLU126     -0.2457
    111  OE2       21.3890   -8.9920   21.7530 O.co2 126  GLU126     -0.2457
    112  N         18.2530    0.2640   15.9660 N.3   129  LEU129     -0.1245
    113  CA        18.8290    0.3470   14.6260 C.3   129  LEU129      0.1561
    114  C         19.3520    1.7390   14.3200 C.2   129  LEU129      0.2260
    115  O         18.9440    2.7110   14.9580 O.2   129  LEU129     -0.2867
    116  CB        17.8200   -0.0980   13.5560 C.3   129  LEU129      0.0270
    117  CG        17.1330   -1.4690   13.7680 C.3   129  LEU129      0.0019
    118  CD1       16.1140   -1.7160   12.7070 C.3   129  LEU129      0.0001
    119  CD2       18.1450   -2.6340   13.7930 C.3   129  LEU129      0.0001
    120  N         13.1860   -0.3590   17.1380 N.3   139  SER139     -0.1202
    121  CA        12.5080   -1.3030   16.2510 C.3   139  SER139      0.2020
    122  C         11.9080   -2.4790   17.0090 C.2   139  SER139      0.2618
    123  O         12.2640   -2.7310   18.1680 O.2   139  SER139     -0.2717
    124  CB        13.4740   -1.8270   15.1880 C.3   139  SER139      0.2103
    125  OG        14.4000   -2.7560   15.7210 O.3   139  SER139     -0.2182
    126  N         11.0410   -3.2290   16.3050 N.am  140  ASP140     -0.1973
    127  CA        10.3750   -4.4490   16.7410 C.3   140  ASP140      0.1709
    128  C          9.3620   -4.1810   17.8640 C.2   140  ASP140      0.2293
    129  O          9.7250   -4.0870   19.0420 O.2   140  ASP140     -0.2864
    130  CB        11.3980   -5.5290   17.1490 C.3   140  ASP140      0.1436
    131  CG        10.8530   -6.9430   17.2310 C.2   140  ASP140      0.3671
    132  OD1        9.6150   -7.1150   17.1140 O.co2 140  ASP140     -0.2456
    133  OD2       11.6650   -7.8780   17.4190 O.co2 140  ASP140     -0.2456
@<TRIPOS>BOND
     1    67    65   ar
     2    67    68   ar
     3    65    63   ar
     4    69    68    1
     5    68    66   ar
     6    63    62    1
     7    63    64   ar
     8    20    21    1
     9    62    59    1
    10    66    64   ar
    11    21    22    1
    12    21    24    1
    13    22    23    2
    14    80    81    1
    15    80    77    1
    16     8     6    1
    17     6     7    1
    18     6     5    1
    19     1     2    1
    20    44    43    2
    21    59    58    1
    22    59    60    1
    23    15    16    2
    24    15    14    1
    25    58    51   am
    26    77    76    1
    27    77    78    1
    28    41    42    1
    29    61    60    2
    30     2     5    1
    31     2     3    1
    32    25    26    1
    33    60    70   am
    34    76    72   am
    35    43    42    1
    36    43    49   am
    37    79    78    2
    38    28    27    2
    39    27    26    1
    40    51    50    1
    41    51    52    2
    42    50    49    1
    43    50    53    1
    44    42    45    1
    45    14    13    1
    46    14    17    1
    47    70    71    1
    48    26    29    1
    49     3     9   am
    50     3     4    2
    51    72    71    1
    52    72    73    2
    53    18    17    1
    54    54    53    1
    55    54    55    1
    56     9    10    1
    57    71    74    1
    58    12    11    2
    59    17    19    1
    60    45    46    1
    61    29    30    1
    62    57    55   ar
    63    55    56   ar
    64    46    47    1
    65    46    48    1
    66    11    10    1
    67    74    75    1
    68    82    83    1
    69    30    31    1
    70    83    84    1
    71    39    38    1
    72    31    32    1
    73    36    35    1
    74    36    37    2
    75    84    85    2
    76    84    86   am
    77   118   117    1
    78    38    35    1
    79    38    40    1
    80    35    34    1
    81    32    33    1
    82    86    87    1
    83   116   117    1
    84   116   113    1
    85   117   119    1
    86   102   100   ar
    87   114   113    1
    88   114   115    2
    89    94    92   ar
    90   100    99    1
    91   100   101   ar
    92    91    92    1
    93    91    90    1
    94   113   112    1
    95    99    96    1
    96    87    90    1
    97    87    88    1
    98    92    93   ar
    99   124   125    1
   100   124   121    1
   101    89    88    2
   102    98    97    2
   103    96    97    1
   104    96    95    1
   105   121   122    1
   106   121   120    1
   107   126   127    1
   108   126   122   am
   109   127   130    1
   110   127   128    1
   111   106   105    2
   112   122   123    2
   113   132   131   ar
   114   130   131    1
   115   131   133   ar
   116   128   129    2
   117   105   104    1
   118   104   107    1
   119   104   103    1
   120   107   108    1
   121   108   109    1
   122   109   111   ar
   123   109   110   ar
