@<TRIPOS>MOLECULE
tmp/4ft4A01.pdb
 181 172 0 0 0
SMALL
GASTEIGER

@<TRIPOS>ATOM
      1  N         -6.4310    2.3870  -54.6360 N.3   172  ASP172     -0.1239
      2  CA        -6.1700    0.9550  -54.7240 C.3   172  ASP172      0.1674
      3  C         -6.7350    0.2040  -53.5190 C.2   172  ASP172      0.2266
      4  O         -6.2150    0.3120  -52.4070 O.2   172  ASP172     -0.2867
      5  CB        -4.6660    0.7000  -54.8480 C.3   172  ASP172      0.1410
      6  CG        -4.3460   -0.7280  -55.2520 C.2   172  ASP172      0.3668
      7  OD1       -5.2760   -1.5610  -55.2930 O.co2 172  ASP172     -0.2456
      8  OD2       -3.1600   -1.0210  -55.5200 O.co2 172  ASP172     -0.2456
      9  N         -7.5040   -3.2090  -51.4580 N.3   174  TYR174     -0.1227
     10  CA        -6.9050   -4.5290  -51.3170 C.3   174  TYR174      0.1736
     11  C         -5.5830   -4.5110  -52.0700 C.2   174  TYR174      0.2596
     12  O         -5.2300   -5.4500  -52.7860 O.2   174  TYR174     -0.2718
     13  CB        -7.8530   -5.5980  -51.8630 C.3   174  TYR174      0.0548
     14  CG        -9.2450   -5.4970  -51.2770 C.ar  174  TYR174     -0.0200
     15  CD1      -10.2440   -4.7820  -51.9250 C.ar  174  TYR174     -0.0009
     16  CD2       -9.5520   -6.0960  -50.0630 C.ar  174  TYR174     -0.0009
     17  CE1      -11.5120   -4.6770  -51.3860 C.ar  174  TYR174      0.0417
     18  CE2      -10.8170   -5.9960  -49.5160 C.ar  174  TYR174      0.0417
     19  CZ       -11.7940   -5.2860  -50.1820 C.ar  174  TYR174      0.1957
     20  OH       -13.0570   -5.1820  -49.6420 O.3   174  TYR174     -0.2866
     21  N         -4.8510   -3.4220  -51.8680 N.am  175  SER175     -0.1938
     22  CA        -3.7140   -3.0490  -52.6980 C.3   175  SER175      0.2055
     23  C         -2.5280   -4.0040  -52.6730 C.2   175  SER175      0.2644
     24  O         -1.6900   -3.9690  -53.5750 O.2   175  SER175     -0.2714
     25  CB        -3.2400   -1.6450  -52.3140 C.3   175  SER175      0.2130
     26  OG        -2.9100   -1.5750  -50.9370 O.3   175  SER175     -0.2179
     27  N         -2.4420   -4.8490  -51.6530 N.am  176  GLY176     -0.1939
     28  CA        -1.2620   -5.6760  -51.4920 C.3   176  GLY176      0.2014
     29  C         -0.0430   -4.7750  -51.5250 C.2   176  GLY176      0.2639
     30  O         -0.1100   -3.6260  -51.0830 O.2   176  GLY176     -0.2714
     31  N          1.0640   -5.2780  -52.0610 N.am  177  CYS177     -0.1953
     32  CA         2.2780   -4.4740  -52.1640 C.3   177  CYS177      0.1843
     33  C          2.2210   -3.5150  -53.3510 C.2   177  CYS177      0.2626
     34  O          3.1350   -2.7170  -53.5560 O.2   177  CYS177     -0.2714
     35  CB         3.5250   -5.3570  -52.2460 C.3   177  CYS177      0.0997
     36  SG         3.7400   -6.2210  -53.8080 S.3   177  CYS177     -0.0797
     37  N          1.1480   -3.6010  -54.1310 N.am  178  GLY178     -0.1940
     38  CA         0.9130   -2.6470  -55.2000 C.3   178  GLY178      0.2014
     39  C          1.2900   -3.0960  -56.6000 C.2   178  GLY178      0.2639
     40  O          1.7140   -2.2850  -57.4240 O.2   178  GLY178     -0.2714
     41  N          1.1350   -4.3840  -56.8810 N.am  179  GLY179     -0.1939
     42  CA         1.3780   -4.8810  -58.2200 C.3   179  GLY179      0.2014
     43  C          0.5200   -4.1460  -59.2330 C.2   179  GLY179      0.2638
     44  O          1.0320   -3.4900  -60.1400 O.2   179  GLY179     -0.2714
     45  N         -0.7940   -4.2410  -59.0600 N.am  180  MET180     -0.1976
     46  CA        -1.7440   -3.6670  -60.0080 C.3   180  MET180      0.1605
     47  C         -1.6170   -2.1530  -60.1680 C.2   180  MET180      0.2287
     48  O         -1.5530   -1.6510  -61.2890 O.2   180  MET180     -0.2864
     49  CB        -3.1780   -4.0400  -59.6230 C.3   180  MET180      0.0413
     50  CG        -4.2390   -3.3750  -60.4880 C.3   180  MET180      0.0598
     51  SD        -5.7560   -4.3410  -60.6270 S.3   180  MET180     -0.1393
     52  CE        -6.1610   -4.5890  -58.9010 C.3   180  MET180      0.0692
     53  N         -5.4000    0.8440  -49.7150 N.3   201  VAL201     -0.1231
     54  CA        -6.0120    0.2190  -48.5530 C.3   201  VAL201      0.1692
     55  C         -5.7020   -1.2710  -48.4890 C.2   201  VAL201      0.2592
     56  O         -5.9950   -2.0230  -49.4220 O.2   201  VAL201     -0.2718
     57  CB        -7.5350    0.4250  -48.5620 C.3   201  VAL201      0.0266
     58  CG1       -8.1780   -0.2970  -47.3930 C.3   201  VAL201      0.0020
     59  CG2       -7.8680    1.9110  -48.5340 C.3   201  VAL201      0.0020
     60  N         -5.1100   -1.6880  -47.3760 N.am  202  ASP202     -0.1960
     61  CA        -4.7110   -3.0730  -47.1940 C.3   202  ASP202      0.1840
     62  C         -4.4650   -3.3490  -45.7160 C.2   202  ASP202      0.2622
     63  O         -3.8450   -2.5390  -45.0290 O.2   202  ASP202     -0.2715
     64  CB        -3.4460   -3.3530  -47.9950 C.3   202  ASP202      0.1450
     65  CG        -3.0720   -4.8080  -47.9860 C.2   202  ASP202      0.3671
     66  OD1       -3.7460   -5.6020  -47.2990 O.co2 202  ASP202     -0.2456
     67  OD2       -2.1090   -5.1760  -48.6820 O.co2 202  ASP202     -0.2456
     68  N         -4.9400   -4.4890  -45.2230 N.am  203  PHE203     -0.1960
     69  CA        -4.8530   -4.7610  -43.7880 C.3   203  PHE203      0.1771
     70  C         -3.6400   -5.5980  -43.3700 C.2   203  PHE203      0.2619
     71  O         -3.5090   -5.9800  -42.2050 O.2   203  PHE203     -0.2715
     72  CB        -6.1670   -5.3410  -43.2420 C.3   203  PHE203      0.0574
     73  CG        -6.3510   -6.8120  -43.4940 C.ar  203  PHE203     -0.0200
     74  CD1       -7.3210   -7.5150  -42.8010 C.ar  203  PHE203     -0.0042
     75  CD2       -5.5690   -7.4910  -44.4170 C.ar  203  PHE203     -0.0042
     76  CE1       -7.5090   -8.8670  -43.0190 C.ar  203  PHE203     -0.0003
     77  CE2       -5.7490   -8.8490  -44.6400 C.ar  203  PHE203     -0.0003
     78  CZ        -6.7210   -9.5360  -43.9400 C.ar  203  PHE203     -0.0000
     79  N         -2.7560   -5.8720  -44.3220 N.am  204  ASN204     -0.1972
     80  CA        -1.4780   -6.5050  -44.0180 C.3   204  ASN204      0.1688
     81  C         -0.3930   -5.4430  -43.8990 C.2   204  ASN204      0.2292
     82  O         -0.0670   -4.7690  -44.8740 O.2   204  ASN204     -0.2864
     83  CB        -1.1010   -7.5220  -45.0960 C.3   204  ASN204      0.1181
     84  CG         0.2020   -8.2390  -44.7910 C.2   204  ASN204      0.2629
     85  OD1        1.2850   -7.6840  -44.9750 O.2   204  ASN204     -0.2716
     86  ND2        0.1020   -9.4810  -44.3290 N.am  204  ASN204     -0.0877
     87  N          2.5830   -5.5430  -46.5010 N.3   207  ALA207     -0.1245
     88  CA         2.1910   -5.1320  -47.8430 C.3   207  ALA207      0.1562
     89  C          2.1950   -3.6100  -47.9320 C.2   207  ALA207      0.2260
     90  O          2.6960   -3.0340  -48.8980 O.2   207  ALA207     -0.2867
     91  CB         0.8170   -5.6800  -48.1860 C.3   207  ALA207      0.0290
     92  N         -5.5490   -1.0340  -42.8410 N.3   223  GLU223     -0.1231
     93  CA        -6.8600   -1.2250  -42.2310 C.3   223  GLU223      0.1699
     94  C         -7.7600   -2.0700  -43.1210 C.2   223  GLU223      0.2592
     95  O         -7.4030   -2.3820  -44.2550 O.2   223  GLU223     -0.2718
     96  CB        -7.5180    0.1320  -41.9880 C.3   223  GLU223      0.0402
     97  CG        -7.7560    0.9260  -43.2630 C.3   223  GLU223      0.1161
     98  CD        -8.1240    2.3750  -42.9990 C.2   223  GLU223      0.3649
     99  OE1       -7.8220    2.8820  -41.8970 O.co2 223  GLU223     -0.2457
    100  OE2       -8.7170    3.0090  -43.8960 O.co2 223  GLU223     -0.2457
    101  N         -8.9290   -2.4350  -42.6040 N.am  224  LYS224     -0.1966
    102  CA        -9.8970   -3.1930  -43.3880 C.3   224  LYS224      0.1728
    103  C        -10.7080   -2.2730  -44.2920 C.2   224  LYS224      0.2616
    104  O        -11.0400   -1.1490  -43.9150 O.2   224  LYS224     -0.2715
    105  CB       -10.8250   -4.0060  -42.4830 C.3   224  LYS224      0.0311
    106  CG       -10.1660   -5.2260  -41.8660 C.3   224  LYS224      0.0038
    107  CD       -11.2030   -6.2050  -41.3430 C.3   224  LYS224      0.0206
    108  CE       -10.5500   -7.4750  -40.8220 C.3   224  LYS224      0.1093
    109  NZ       -11.5570   -8.5040  -40.4410 N.3   224  LYS224     -0.1314
    110  N        -11.0190   -2.7580  -45.4890 N.am  225  ALA225     -0.1977
    111  CA       -11.7650   -1.9770  -46.4690 C.3   225  ALA225      0.1597
    112  C        -13.0560   -1.4040  -45.8870 C.2   225  ALA225      0.2287
    113  O        -13.3490   -0.2210  -46.0630 O.2   225  ALA225     -0.2864
    114  CB       -12.0650   -2.8200  -47.7000 C.3   225  ALA225      0.0319
    115  N         -8.5960   -5.9530  -55.9730 N.3   318  GLY318     -0.1225
    116  CA        -8.6290   -7.3980  -56.0940 C.3   318  GLY318      0.1811
    117  C         -9.2540   -8.0230  -54.8620 C.2   318  GLY318      0.2280
    118  O         -8.6000   -8.7720  -54.1360 O.2   318  GLY318     -0.2866
    119  N        -10.6140  -10.2160  -52.2070 N.3   320  PRO320     -0.2116
    120  CA       -10.4500  -11.6400  -52.0310 C.3   320  PRO320      0.1372
    121  C        -11.7420  -12.4000  -52.0230 C.2   320  PRO320      0.2244
    122  O        -12.6820  -12.0780  -51.3410 O.2   320  PRO320     -0.2868
    123  CB        -9.8170  -11.7130  -50.6670 C.3   320  PRO320      0.0268
    124  CG        -9.1350  -10.5150  -50.5490 C.3   320  PRO320      0.0207
    125  CD        -9.9600   -9.4910  -51.1260 C.3   320  PRO320      0.0892
    126  N        -16.6420  -15.5430  -46.9740 N.3   341  LYS341     -0.1245
    127  CA       -16.1900  -14.2260  -47.2640 C.3   341  LYS341      0.1561
    128  C        -15.9150  -14.0480  -48.7360 C.2   341  LYS341      0.2260
    129  O        -14.7850  -14.0380  -49.1980 O.2   341  LYS341     -0.2867
    130  CB       -15.0220  -13.8240  -46.3870 C.3   341  LYS341      0.0271
    131  CG       -15.2240  -12.4800  -45.7270 C.3   341  LYS341      0.0035
    132  CD       -13.9540  -11.6500  -45.7780 C.3   341  LYS341      0.0206
    133  CE       -12.7150  -12.5090  -45.6370 C.3   341  LYS341      0.1093
    134  NZ       -11.8190  -12.4030  -46.8100 N.3   341  LYS341     -0.1314
    135  N        -16.0190   -9.4030  -49.5530 N.3   344  GLN344     -0.1245
    136  CA       -15.2290   -8.2840  -49.9900 C.3   344  GLN344      0.1566
    137  C        -15.7490   -7.7970  -51.3280 C.2   344  GLN344      0.2260
    138  O        -15.5990   -6.6550  -51.6740 O.2   344  GLN344     -0.2867
    139  CB       -13.7540   -8.6320  -50.0180 C.3   344  GLN344      0.0367
    140  CG       -13.0860   -8.6880  -48.6460 C.3   344  GLN344      0.0905
    141  CD       -13.7150   -7.7910  -47.5960 C.2   344  GLN344      0.2608
    142  OE1      -13.4470   -6.6120  -47.5270 O.2   344  GLN344     -0.2717
    143  NE2      -14.5170   -8.3650  -46.7550 N.am  344  GLN344     -0.0878
    144  N         -9.9990   -6.7230  -60.4890 N.3   363  GLU363     -0.1245
    145  CA        -9.2480   -7.9260  -60.8180 C.3   363  GLU363      0.1567
    146  C         -9.6820   -9.0790  -59.9230 C.2   363  GLU363      0.2260
    147  O        -10.1630   -8.8600  -58.8100 O.2   363  GLU363     -0.2867
    148  CB        -7.7480   -7.6580  -60.6610 C.3   363  GLU363      0.0388
    149  CG        -6.8490   -8.8040  -61.0890 C.3   363  GLU363      0.1160
    150  CD        -6.6780   -9.8570  -60.0120 C.2   363  GLU363      0.3649
    151  OE1       -6.6580   -9.4910  -58.8170 O.co2 363  GLU363     -0.2457
    152  OE2       -6.5620  -11.0510  -60.3620 O.co2 363  GLU363     -0.2457
    153  N          3.3260  -11.4230  -50.5550 N.3   652  GLN652     -0.1245
    154  CA         3.1380  -10.2020  -51.3340 C.3   652  GLN652      0.1566
    155  C          3.3010  -10.4500  -52.8310 C.2   652  GLN652      0.2260
    156  O          2.4110  -10.1320  -53.6200 O.2   652  GLN652     -0.2867
    157  CB         4.1010   -9.1060  -50.8700 C.3   652  GLN652      0.0367
    158  CG         3.6600   -8.3930  -49.6060 C.3   652  GLN652      0.0905
    159  CD         4.7880   -7.6290  -48.9470 C.2   652  GLN652      0.2608
    160  OE1        5.3400   -6.6870  -49.5180 O.2   652  GLN652     -0.2717
    161  NE2        5.1440   -8.0400  -47.7370 N.am  652  GLN652     -0.0878
    162  N          0.5600  -12.8110  -54.2990 N.3   655  ASN655     -0.1225
    163  CA        -0.7720  -12.2250  -54.4080 C.3   655  ASN655      0.1785
    164  C         -0.8970  -11.3050  -55.6120 C.2   655  ASN655      0.2597
    165  O         -1.9700  -11.1730  -56.2020 O.2   655  ASN655     -0.2718
    166  CB        -1.1130  -11.4270  -53.1470 C.3   655  ASN655      0.1169
    167  CG        -1.6480  -12.2960  -52.0260 C.2   655  ASN655      0.2627
    168  OD1       -2.1780  -13.3810  -52.2630 O.2   655  ASN655     -0.2716
    169  ND2       -1.5230  -11.8130  -50.7930 N.am  655  ASN655     -0.0877
    170  N          0.2150  -10.6730  -55.9680 N.am  656  ALA656     -0.1966
    171  CA         0.2220   -9.5520  -56.9020 C.3   656  ALA656      0.1728
    172  C         -0.3900   -9.8300  -58.2720 C.2   656  ALA656      0.2616
    173  O         -0.4060  -10.9650  -58.7510 O.2   656  ALA656     -0.2715
    174  CB         1.6430   -9.0210  -57.0660 C.3   656  ALA656      0.0334
    175  N         -0.9000   -8.7690  -58.8880 N.am  657  VAL657     -0.1977
    176  CA        -1.2330   -8.7810  -60.3020 C.3   657  VAL657      0.1596
    177  C          0.0640   -8.5790  -61.0690 C.2   657  VAL657      0.2287
    178  O          0.8040   -7.6340  -60.7980 O.2   657  VAL657     -0.2864
    179  CB        -2.2060   -7.6430  -60.6600 C.3   657  VAL657      0.0276
    180  CG1       -2.1540   -7.3440  -62.1520 C.3   657  VAL657      0.0022
    181  CG2       -3.6190   -7.9940  -60.2200 C.3   657  VAL657      0.0022
@<TRIPOS>BOND
     1   180   179    1
     2    48    47    2
     3   149   148    1
     4   149   150    1
     5   177   178    2
     6   177   176    1
     7   145   148    1
     8   145   144    1
     9   145   146    1
    10   179   176    1
    11   179   181    1
    12    51    50    1
    13    51    52    1
    14    50    49    1
    15   152   150   ar
    16   176   175    1
    17    47    46    1
    18    44    43    2
    19   150   151   ar
    20    46    49    1
    21    46    45    1
    22   146   147    2
    23    43    45   am
    24    43    42    1
    25   175   172   am
    26   173   172    2
    27   172   171    1
    28    42    41    1
    29    40    39    2
    30   174   171    1
    31   171   170    1
    32    41    39   am
    33    39    38    1
    34   165   164    2
    35   116   115    1
    36   116   117    1
    37   170   164   am
    38   164   163    1
    39     8     6   ar
    40     7     6   ar
    41     6     5    1
    42    38    37    1
    43   117   118    2
    44     5     2    1
    45     2     1    1
    46     2     3    1
    47   163   162    1
    48   163   166    1
    49    37    33   am
    50    36    35    1
    51   156   155    2
    52    24    23    2
    53    34    33    2
    54     3     4    2
    55    33    32    1
    56   166   167    1
    57   155   154    1
    58    12    11    2
    59    22    23    1
    60    22    25    1
    61    22    21    1
    62    23    27   am
    63    25    26    1
    64   168   167    2
    65    35    32    1
    66   119   120    1
    67   119   125    1
    68    32    31    1
    69    11    21   am
    70    11    10    1
    71    31    29   am
    72   120   121    1
    73   120   123    1
    74   167   169   am
    75   121   122    2
    76    15    17   ar
    77    15    14   ar
    78    13    10    1
    79    13    14    1
    80   138   137    2
    81    27    28    1
    82    29    28    1
    83    29    30    2
    84     9    10    1
    85    17    19   ar
    86   154   157    1
    87   154   153    1
    88   137   136    1
    89    14    16   ar
    90   125   124    1
    91   157   158    1
    92   123   124    1
    93    19    20    1
    94    19    18   ar
    95    16    18   ar
    96   139   136    1
    97   139   140    1
    98   136   135    1
    99    53    54    1
   100   158   159    1
   101   160   159    2
   102    56    55    2
   103   129   128    2
   104   159   161   am
   105    90    89    2
   106   128   127    1
   107    67    65   ar
   108   140   141    1
   109    57    54    1
   110    57    59    1
   111    57    58    1
   112    54    55    1
   113    55    60   am
   114    91    88    1
   115    64    65    1
   116    64    61    1
   117    65    66   ar
   118    89    88    1
   119    88    87    1
   120   114   111    1
   121   141   142    2
   122   141   143   am
   123    60    61    1
   124   127   126    1
   125   127   130    1
   126    61    62    1
   127   134   133    1
   128   111   112    1
   129   111   110    1
   130   130   131    1
   131   113   112    2
   132   132   131    1
   133   132   133    1
   134    62    68   am
   135    62    63    2
   136   110   103   am
   137    68    69    1
   138    83    84    1
   139    83    80    1
   140    85    84    2
   141    82    81    2
   142    84    86   am
   143    77    75   ar
   144    77    78   ar
   145    75    73   ar
   146    79    80    1
   147    79    70   am
   148   103   104    2
   149   103   102    1
   150    95    94    2
   151    80    81    1
   152    78    76   ar
   153   100    98   ar
   154    69    70    1
   155    69    72    1
   156    73    72    1
   157    73    74   ar
   158   102   101    1
   159   102   105    1
   160    70    71    2
   161    97    98    1
   162    97    96    1
   163    94   101   am
   164    94    93    1
   165    76    74   ar
   166    98    99   ar
   167    92    93    1
   168   105   106    1
   169    93    96    1
   170   106   107    1
   171   107   108    1
   172   108   109    1
