@<TRIPOS>MOLECULE
tmp/4ft4A00.pdb
 146 145 0 0 0
SMALL
GASTEIGER

@<TRIPOS>ATOM
      1  N        -41.7010   -9.6200  -80.1460 N.3    50  VAL50      -0.1231
      2  CA       -41.7500  -10.8290  -80.9570 C.3    50  VAL50       0.1692
      3  C        -41.9940  -12.0730  -80.1100 C.2    50  VAL50       0.2592
      4  O        -41.4130  -12.2310  -79.0360 O.2    50  VAL50      -0.2718
      5  CB       -40.4580  -11.0080  -81.7740 C.3    50  VAL50       0.0266
      6  CG1      -40.5460  -12.2500  -82.6440 C.3    50  VAL50       0.0020
      7  CG2      -40.2030   -9.7750  -82.6260 C.3    50  VAL50       0.0020
      8  N        -42.8590  -12.9520  -80.6010 N.am   51  LYS51      -0.1966
      9  CA       -43.1810  -14.1810  -79.8950 C.3    51  LYS51       0.1728
     10  C        -41.9890  -15.1250  -79.8910 C.2    51  LYS51       0.2616
     11  O        -41.3780  -15.3770  -80.9310 O.2    51  LYS51      -0.2715
     12  CB       -44.3870  -14.8660  -80.5360 C.3    51  LYS51       0.0311
     13  CG       -44.9550  -16.0020  -79.7100 C.3    51  LYS51       0.0038
     14  CD       -45.4580  -15.4940  -78.3680 C.3    51  LYS51       0.0206
     15  CE       -45.9250  -16.6350  -77.4770 C.3    51  LYS51       0.1093
     16  NZ       -46.3880  -16.1320  -76.1530 N.3    51  LYS51      -0.1314
     17  N        -41.6550  -15.6320  -78.7100 N.am   52  ALA52      -0.1963
     18  CA       -40.5930  -16.6180  -78.5650 C.3    52  ALA52       0.1728
     19  C        -41.1870  -17.9950  -78.3030 C.2    52  ALA52       0.2617
     20  O        -42.3380  -18.2610  -78.6490 O.2    52  ALA52      -0.2715
     21  CB       -39.6520  -16.2270  -77.4400 C.3    52  ALA52       0.0334
     22  N        -40.3960  -18.8670  -77.6870 N.am   53  GLY53      -0.1940
     23  CA       -40.8410  -20.2140  -77.3770 C.3    53  GLY53       0.2014
     24  C        -41.9530  -20.2580  -76.3440 C.2    53  GLY53       0.2638
     25  O        -42.2410  -19.2620  -75.6830 O.2    53  GLY53      -0.2714
     26  N        -42.5810  -21.4210  -76.2060 N.am   54  GLU54      -0.1977
     27  CA       -43.6430  -21.6080  -75.2270 C.3    54  GLU54       0.1602
     28  C        -43.1530  -21.2360  -73.8290 C.2    54  GLU54       0.2287
     29  O        -42.1260  -21.7360  -73.3700 O.2    54  GLU54      -0.2864
     30  CB       -44.1340  -23.0570  -75.2520 C.3    54  GLU54       0.0415
     31  CG       -45.4500  -23.2790  -74.5270 C.3    54  GLU54       0.1163
     32  CD       -45.7700  -24.7480  -74.3300 C.2    54  GLU54       0.3649
     33  OE1      -44.8240  -25.5630  -74.3190 O.co2  54  GLU54      -0.2457
     34  OE2      -46.9640  -25.0890  -74.1870 O.co2  54  GLU54      -0.2457
     35  N        -39.3230  -11.6450  -77.2200 N.3    59  TYR59      -0.1227
     36  CA       -38.1240  -10.9400  -77.6410 C.3    59  TYR59       0.1736
     37  C        -38.4800   -9.4910  -77.9430 C.2    59  TYR59       0.2595
     38  O        -39.6540   -9.1490  -78.0790 O.2    59  TYR59      -0.2718
     39  CB       -37.5120  -11.6210  -78.8670 C.3    59  TYR59       0.0548
     40  CG       -37.1320  -13.0650  -78.6180 C.ar   59  TYR59      -0.0200
     41  CD1      -36.5130  -13.4440  -77.4340 C.ar   59  TYR59      -0.0009
     42  CD2      -37.4110  -14.0520  -79.5560 C.ar   59  TYR59      -0.0009
     43  CE1      -36.1680  -14.7620  -77.1950 C.ar   59  TYR59       0.0417
     44  CE2      -37.0700  -15.3730  -79.3260 C.ar   59  TYR59       0.0417
     45  CZ       -36.4480  -15.7210  -78.1440 C.ar   59  TYR59       0.1957
     46  OH       -36.1060  -17.0320  -77.9060 O.3    59  TYR59      -0.2866
     47  N        -37.4670   -8.6390  -78.0270 N.am   60  ILE60      -0.1980
     48  CA       -37.6820   -7.2310  -78.3270 C.3    60  ILE60       0.1595
     49  C        -36.7420   -6.8350  -79.4470 C.2    60  ILE60       0.2287
     50  O        -35.5250   -6.9450  -79.3060 O.2    60  ILE60      -0.2864
     51  CB       -37.4150   -6.3460  -77.1030 C.3    60  ILE60       0.0276
     52  CG1      -38.3280   -6.7580  -75.9470 C.3    60  ILE60       0.0022
     53  CG2      -37.6180   -4.8810  -77.4540 C.3    60  ILE60       0.0022
     54  CD1      -38.1500   -5.9240  -74.7030 C.3    60  ILE60       0.0001
     55  N        -31.8680   -7.4190  -82.2050 N.3    80  TRP80      -0.1227
     56  CA       -32.4760   -7.6030  -80.8840 C.3    80  TRP80       0.1737
     57  C        -32.0490   -6.6060  -79.8050 C.2    80  TRP80       0.2595
     58  O        -30.9000   -6.1600  -79.7590 O.2    80  TRP80      -0.2718
     59  CB       -32.2190   -9.0230  -80.3610 C.3    80  TRP80       0.0564
     60  CG       -32.7540  -10.1300  -81.2290 C.ar   80  TRP80       0.0003
     61  CD1      -32.0350  -11.1430  -81.7950 C.ar   80  TRP80       0.0946
     62  CD2      -34.1180  -10.3420  -81.6180 C.ar   80  TRP80       0.0152
     63  NE1      -32.8650  -11.9700  -82.5140 N.ar   80  TRP80      -0.2442
     64  CE2      -34.1490  -11.5000  -82.4220 C.ar   80  TRP80       0.0810
     65  CE3      -35.3150   -9.6650  -81.3680 C.ar   80  TRP80       0.0012
     66  CZ2      -35.3280  -11.9940  -82.9770 C.ar   80  TRP80       0.0191
     67  CZ3      -36.4850  -10.1570  -81.9210 C.ar   80  TRP80       0.0001
     68  CH2      -36.4830  -11.3100  -82.7160 C.ar   80  TRP80       0.0015
     69  N        -32.9950   -6.2840  -78.9270 N.am   81  PHE81      -0.1962
     70  CA       -32.7130   -5.5660  -77.6910 C.3    81  PHE81       0.1771
     71  C        -32.5940   -6.5820  -76.5640 C.2    81  PHE81       0.2619
     72  O        -33.3380   -7.5610  -76.5260 O.2    81  PHE81      -0.2715
     73  CB       -33.8440   -4.5930  -77.3540 C.3    81  PHE81       0.0574
     74  CG       -33.8670   -3.3550  -78.2050 C.ar   81  PHE81      -0.0200
     75  CD1      -33.1070   -2.2480  -77.8650 C.ar   81  PHE81      -0.0042
     76  CD2      -34.6660   -3.2910  -79.3320 C.ar   81  PHE81      -0.0042
     77  CE1      -33.1370   -1.1070  -78.6450 C.ar   81  PHE81      -0.0003
     78  CE2      -34.7000   -2.1540  -80.1130 C.ar   81  PHE81      -0.0003
     79  CZ       -33.9360   -1.0620  -79.7700 C.ar   81  PHE81      -0.0000
     80  N        -31.6600   -6.3480  -75.6480 N.am   82  PHE82      -0.1974
     81  CA       -31.5020   -7.2100  -74.4810 C.3    82  PHE82       0.1639
     82  C        -32.1220   -6.5740  -73.2470 C.2    82  PHE82       0.2290
     83  O        -31.8790   -5.4040  -72.9550 O.2    82  PHE82      -0.2864
     84  CB       -30.0210   -7.4740  -74.2020 C.3    82  PHE82       0.0560
     85  CG       -29.4210   -8.5540  -75.0510 C.ar   82  PHE82      -0.0200
     86  CD1      -29.0480   -9.7650  -74.4920 C.ar   82  PHE82      -0.0042
     87  CD2      -29.2230   -8.3590  -76.4060 C.ar   82  PHE82      -0.0042
     88  CE1      -28.4890  -10.7630  -75.2690 C.ar   82  PHE82      -0.0003
     89  CE2      -28.6650   -9.3550  -77.1880 C.ar   82  PHE82      -0.0003
     90  CZ       -28.2980  -10.5580  -76.6180 C.ar   82  PHE82      -0.0000
     91  N        -31.5040  -10.6840  -69.9680 N.3    86  ASP86      -0.1239
     92  CA       -31.1250  -11.3570  -71.2020 C.3    86  ASP86       0.1674
     93  C        -29.6120  -11.3630  -71.4200 C.2    86  ASP86       0.2266
     94  O        -29.0920  -12.2070  -72.1480 O.2    86  ASP86      -0.2867
     95  CB       -31.8570  -10.7380  -72.3970 C.3    86  ASP86       0.1410
     96  CG       -33.3670  -10.8870  -72.2940 C.2    86  ASP86       0.3668
     97  OD1      -33.8280  -11.9230  -71.7680 O.co2  86  ASP86      -0.2456
     98  OD2      -34.0920   -9.9690  -72.7340 O.co2  86  ASP86      -0.2456
     99  N        -27.1530   -8.5860  -82.5260 N.3   112  GLU112     -0.1231
    100  CA       -27.6440   -9.9280  -82.7980 C.3   112  GLU112      0.1699
    101  C        -28.8850   -9.8320  -83.6780 C.2   112  GLU112      0.2592
    102  O        -29.7420   -8.9740  -83.4700 O.2   112  GLU112     -0.2718
    103  CB       -27.9610  -10.6640  -81.4950 C.3   112  GLU112      0.0402
    104  CG       -26.7560  -10.8660  -80.5920 C.3   112  GLU112      0.1161
    105  CD       -25.6240  -11.5970  -81.2870 C.2   112  GLU112      0.3649
    106  OE1      -25.8430  -12.7300  -81.7670 O.co2 112  GLU112     -0.2457
    107  OE2      -24.5120  -11.0350  -81.3610 O.co2 112  GLU112     -0.2457
    108  N        -28.9690  -10.7130  -84.6670 N.am  113  LYS113     -0.1966
    109  CA       -30.0560  -10.6750  -85.6340 C.3   113  LYS113      0.1728
    110  C        -30.6760  -12.0500  -85.8230 C.2   113  LYS113      0.2616
    111  O        -29.9900  -13.0680  -85.7410 O.2   113  LYS113     -0.2715
    112  CB       -29.5430  -10.1500  -86.9750 C.3   113  LYS113      0.0311
    113  CG       -29.8210   -8.6800  -87.2190 C.3   113  LYS113      0.0038
    114  CD       -28.7120   -8.0420  -88.0380 C.3   113  LYS113      0.0206
    115  CE       -29.2760   -7.1430  -89.1250 C.3   113  LYS113      0.1093
    116  NZ       -28.4960   -5.8820  -89.2690 N.3   113  LYS113     -0.1314
    117  N        -31.9790  -12.0740  -86.0740 N.am  114  ASN114     -0.1958
    118  CA       -32.6650  -13.3190  -86.3900 C.3   114  ASN114      0.1819
    119  C        -33.8130  -13.1290  -87.3730 C.2   114  ASN114      0.2621
    120  O        -34.4070  -12.0530  -87.4580 O.2   114  ASN114     -0.2715
    121  CB       -33.1590  -14.0150  -85.1200 C.3   114  ASN114      0.1195
    122  CG       -32.0620  -14.7920  -84.4190 C.2   114  ASN114      0.2630
    123  OD1      -31.4620  -14.3120  -83.4580 O.2   114  ASN114     -0.2716
    124  ND2      -31.7950  -16.0010  -84.9000 N.am  114  ASN114     -0.0877
    125  N        -34.1120  -14.1860  -88.1190 N.am  115  ASP115     -0.1957
    126  CA       -35.2000  -14.1630  -89.0850 C.3   115  ASP115      0.1840
    127  C        -36.4320  -14.8340  -88.4980 C.2   115  ASP115      0.2622
    128  O        -36.3290  -15.6410  -87.5740 O.2   115  ASP115     -0.2715
    129  CB       -34.7780  -14.8590  -90.3770 C.3   115  ASP115      0.1450
    130  CG       -33.5900  -14.1870  -91.0350 C.2   115  ASP115      0.3671
    131  OD1      -33.4200  -12.9640  -90.8450 O.co2 115  ASP115     -0.2456
    132  OD2      -32.8260  -14.8790  -91.7390 O.co2 115  ASP115     -0.2456
    133  N        -37.5970  -14.5000  -89.0390 N.am  116  ASN116     -0.1972
    134  CA       -38.8470  -14.9900  -88.4810 C.3   116  ASN116      0.1688
    135  C        -40.0230  -14.9310  -89.4380 C.2   116  ASN116      0.2292
    136  O        -40.0930  -14.0530  -90.2890 O.2   116  ASN116     -0.2864
    137  CB       -39.1890  -14.1990  -87.2240 C.3   116  ASN116      0.1181
    138  CG       -38.7160  -14.8830  -85.9770 C.2   116  ASN116      0.2629
    139  OD1      -37.7160  -14.4930  -85.3720 O.2   116  ASN116     -0.2716
    140  ND2      -39.4210  -15.9360  -85.5940 N.am  116  ASN116     -0.0877
    141  N        -45.0260  -13.9600  -85.9820 N.3   120  CYS120     -0.1235
    142  CA       -44.4510  -13.9080  -84.6430 C.3   120  CYS120      0.1677
    143  C        -44.5650  -12.5050  -84.0660 C.2   120  CYS120      0.2270
    144  O        -44.5030  -12.3200  -82.8520 O.2   120  CYS120     -0.2867
    145  CB       -42.9850  -14.3340  -84.6710 C.3   120  CYS120      0.0956
    146  SG       -42.7140  -16.0570  -85.1440 S.3   120  CYS120     -0.0801
@<TRIPOS>BOND
     1   132   130   ar
     2   130   131   ar
     3   130   129    1
     4   129   126    1
     5   136   135    2
     6   135   134    1
     7   116   115    1
     8   115   114    1
     9   126   127    1
    10   126   125    1
    11   133   127   am
    12   133   134    1
    13   127   128    2
    14   134   137    1
    15   125   119   am
    16   114   113    1
    17   120   119    2
    18   119   118    1
    19   137   138    1
    20   113   112    1
    21   112   109    1
    22   118   117    1
    23   118   121    1
    24   117   110   am
    25   141   142    1
    26   138   140   am
    27   138   139    2
    28   110   111    2
    29   110   109    1
    30   109   108    1
    31   146   145    1
    32   121   122    1
    33   124   122   am
    34   145   142    1
    35   108   101   am
    36   142   143    1
    37   122   123    2
    38   143   144    2
    39   101   102    2
    40   101   100    1
    41    66    68   ar
    42    66    64   ar
    43   100    99    1
    44   100   103    1
    45    68    67   ar
    46     6     5    1
    47     7     5    1
    48    63    64   ar
    49    63    61   ar
    50    64    62   ar
    51    55    56    1
    52    67    65   ar
    53    61    60   ar
    54     5     2    1
    55   106   105   ar
    56    62    65   ar
    57    62    60   ar
    58   103   104    1
    59   107   105   ar
    60   105   104    1
    61    60    59    1
    62     2     1    1
    63     2     3    1
    64    11    10    2
    65    56    59    1
    66    56    57    1
    67     8     3   am
    68     8     9    1
    69    12     9    1
    70    12    13    1
    71    78    79   ar
    72    78    76   ar
    73     3     4    2
    74     9    10    1
    75    10    17   am
    76    57    58    2
    77    57    69   am
    78    79    77   ar
    79    13    14    1
    80    42    44   ar
    81    42    40   ar
    82    49    50    2
    83    49    48    1
    84    76    74   ar
    85    44    45   ar
    86    69    70    1
    87    39    40    1
    88    39    36    1
    89    17    18    1
    90    20    19    2
    91    77    75   ar
    92    40    41   ar
    93    18    19    1
    94    18    21    1
    95    14    15    1
    96    48    47    1
    97    48    51    1
    98    19    22   am
    99    74    75   ar
   100    74    73    1
   101    45    46    1
   102    45    43   ar
   103    38    37    2
   104    47    37   am
   105    37    36    1
   106    70    73    1
   107    70    71    1
   108    22    23    1
   109    36    35    1
   110    15    16    1
   111    53    51    1
   112    41    43   ar
   113    23    24    1
   114    89    90   ar
   115    89    87   ar
   116    51    52    1
   117    90    88   ar
   118    71    72    2
   119    71    80   am
   120    87    85   ar
   121    24    26   am
   122    24    25    2
   123    26    27    1
   124    52    54    1
   125    80    81    1
   126    88    86   ar
   127    30    27    1
   128    30    31    1
   129    27    28    1
   130    85    86   ar
   131    85    84    1
   132    31    32    1
   133    81    84    1
   134    81    82    1
   135    32    33   ar
   136    32    34   ar
   137    28    29    2
   138    82    83    2
   139    98    96   ar
   140    95    96    1
   141    95    92    1
   142    96    97   ar
   143    94    93    2
   144    93    92    1
   145    92    91    1
