@<TRIPOS>MOLECULE
tmp/4ft5A00.pdb
 142 132 0 0 0
SMALL
GASTEIGER

@<TRIPOS>ATOM
      1  N         17.8770   -9.7200    6.1870 N.3    13  LEU13      -0.1231
      2  CA        18.4560   -8.8480    7.1990 C.3    13  LEU13       0.1693
      3  C         18.4660   -9.5280    8.5790 C.2    13  LEU13       0.2592
      4  O         19.4650   -9.4250    9.2940 O.2    13  LEU13      -0.2718
      5  CB        17.7100   -7.5000    7.2480 C.3    13  LEU13       0.0284
      6  CG        17.8240   -6.5980    6.0100 C.3    13  LEU13       0.0019
      7  CD1       16.8120   -5.4750    6.0670 C.3    13  LEU13       0.0001
      8  CD2       19.2440   -6.0490    5.8350 C.3    13  LEU13       0.0001
      9  N         17.3750  -10.2230    8.9160 N.am   14  GLY14      -0.1957
     10  CA        17.2100  -10.9510   10.1700 C.3    14  GLY14       0.1869
     11  C         15.7760  -11.3590   10.4470 C.2    14  GLY14       0.2309
     12  O         15.3840  -11.5420   11.6030 O.2    14  GLY14      -0.2863
     13  N         13.1220  -10.9000    8.3250 N.3    16  VAL16      -0.1245
     14  CA        13.1640   -9.5120    7.8730 C.3    16  VAL16       0.1561
     15  C         14.0180   -9.4930    6.6090 C.2    16  VAL16       0.2260
     16  O         15.1650   -9.9460    6.6280 O.2    16  VAL16      -0.2867
     17  CB        13.6400   -8.5020    8.9600 C.3    16  VAL16       0.0252
     18  CG1       13.8970   -7.1180    8.3650 C.3    16  VAL16       0.0019
     19  CG2       12.6240   -8.4020   10.0920 C.3    16  VAL16       0.0019
     20  N         12.2660   -2.3040    4.7140 N.3    29  ALA29      -0.1245
     21  CA        12.4400   -3.5730    5.4110 C.3    29  ALA29       0.1562
     22  C         11.0860   -4.3040    5.4140 C.2    29  ALA29       0.2260
     23  O         10.0500   -3.7130    5.7420 O.2    29  ALA29      -0.2867
     24  CB        12.9460   -3.3390    6.8240 C.3    29  ALA29       0.0290
     25  N          9.0430   -7.3570    6.9350 N.3    31  LYS31      -0.1245
     26  CA         8.9300   -8.3880    7.9680 C.3    31  LYS31       0.1561
     27  C          7.8700   -9.3940    7.4790 C.2    31  LYS31       0.2260
     28  O          6.7240   -9.0100    7.1970 O.2    31  LYS31      -0.2867
     29  CB         8.5820   -7.7670    9.3390 C.3    31  LYS31       0.0271
     30  CG         8.7000   -8.7300   10.5060 C.3    31  LYS31       0.0035
     31  CD         8.4040   -8.0290   11.8220 C.3    31  LYS31       0.0206
     32  CE         8.5940   -8.9340   13.0080 C.3    31  LYS31       0.1093
     33  NZ         8.7420   -8.1610   14.2660 N.3    31  LYS31      -0.1314
     34  N          0.9870   -5.9670   16.7720 N.3    40  GLU40      -0.1245
     35  CA         2.1810   -5.3260   16.2110 C.3    40  GLU40       0.1567
     36  C          1.8040   -4.3160   15.1090 C.2    40  GLU40       0.2260
     37  O          2.3780   -3.2300   15.0660 O.2    40  GLU40      -0.2867
     38  CB         3.1420   -6.3860   15.6550 C.3    40  GLU40       0.0388
     39  CG         4.4470   -5.8250   15.1100 C.3    40  GLU40       0.1160
     40  CD         5.5630   -6.8210   14.8570 C.2    40  GLU40       0.3649
     41  OE1        5.3930   -8.0220   15.1700 O.co2  40  GLU40      -0.2457
     42  OE2        6.6280   -6.3860   14.3630 O.co2  40  GLU40      -0.2457
     43  N         11.1220    3.3840   14.1810 N.3    53  VAL53      -0.1245
     44  CA        11.0490    2.7930   12.8410 C.3    53  VAL53       0.1561
     45  C          9.6500    3.0670   12.2340 C.2    53  VAL53       0.2260
     46  O          8.6420    2.7780   12.8780 O.2    53  VAL53      -0.2867
     47  CB        11.3860    1.2730   12.8910 C.3    53  VAL53       0.0252
     48  CG1       11.0190    0.5650   11.5840 C.3    53  VAL53       0.0019
     49  CG2       12.8600    1.0600   13.2180 C.3    53  VAL53       0.0019
     50  N          8.2650   -1.8150    6.6750 N.3    69  LEU69      -0.1231
     51  CA         8.9090   -1.0220    7.7180 C.3    69  LEU69       0.1693
     52  C         10.1730   -0.3300    7.2130 C.2    69  LEU69       0.2592
     53  O         10.7300   -0.7110    6.1830 O.2    69  LEU69      -0.2718
     54  CB         9.2290   -1.9270    8.9240 C.3    69  LEU69       0.0284
     55  CG         8.0160   -2.6220    9.5930 C.3    69  LEU69       0.0019
     56  CD1        8.3880   -3.9910   10.1220 C.3    69  LEU69       0.0001
     57  CD2        7.3770   -1.7390   10.6640 C.3    69  LEU69       0.0001
     58  N         10.5910    0.7250    7.9180 N.am   70  GLU70      -0.1966
     59  CA        11.7590    1.5300    7.5720 C.3    70  GLU70       0.1733
     60  C         13.0430    0.6990    7.4900 C.2    70  GLU70       0.2616
     61  O         13.2840   -0.1770    8.3340 O.2    70  GLU70      -0.2715
     62  CB        11.9270    2.6560    8.5980 C.3    70  GLU70       0.0429
     63  CG        12.9810    3.6990    8.2670 C.3    70  GLU70       0.1163
     64  CD        13.0720    4.8430    9.2590 C.2    70  GLU70       0.3649
     65  OE1       12.2290    4.9130   10.1860 O.co2  70  GLU70      -0.2457
     66  OE2       13.9920    5.6780    9.1050 O.co2  70  GLU70      -0.2457
     67  N         13.8380    0.9620    6.4410 N.am   71  TYR71      -0.1960
     68  CA        15.1430    0.3510    6.2710 C.3    71  TYR71       0.1771
     69  C         16.1530    1.2670    6.9540 C.2    71  TYR71       0.2620
     70  O         16.1290    2.4880    6.7700 O.2    71  TYR71      -0.2715
     71  CB        15.4980    0.0920    4.7900 C.3    71  TYR71       0.0574
     72  CG        16.9270   -0.3580    4.5570 C.ar   71  TYR71      -0.0198
     73  CD1       17.4220   -1.5200    5.1480 C.ar   71  TYR71      -0.0009
     74  CD2       17.7720    0.3530    3.7100 C.ar   71  TYR71      -0.0009
     75  CE1       18.7310   -1.9490    4.9160 C.ar   71  TYR71       0.0417
     76  CE2       19.0750   -0.0760    3.4560 C.ar   71  TYR71       0.0417
     77  CZ        19.5540   -1.2230    4.0670 C.ar   71  TYR71       0.1957
     78  OH        20.8400   -1.6420    3.8090 O.3    71  TYR71      -0.2866
     79  N         16.9760    0.6740    7.8040 N.am   72  CYS72      -0.1954
     80  CA        17.9950    1.3620    8.5730 C.3    72  CYS72       0.1843
     81  C         19.3210    0.7160    8.1820 C.2    72  CYS72       0.2626
     82  O         19.6380   -0.3830    8.6340 O.2    72  CYS72      -0.2714
     83  CB        17.6840    1.2570   10.0670 C.3    72  CYS72       0.0997
     84  SG        16.0350    1.8750   10.5310 S.3    72  CYS72      -0.0797
     85  N         20.0200    1.3490    7.2180 N.am   73  SER73      -0.1950
     86  CA        21.2500    0.8480    6.5780 C.3    73  SER73       0.1924
     87  C         22.4440    0.7060    7.5280 C.2    73  SER73       0.2314
     88  O         23.3140   -0.1290    7.2640 O.2    73  SER73      -0.2863
     89  CB        21.6400    1.7340    5.4020 C.3    73  SER73       0.2116
     90  OG        22.0780    3.0100    5.8400 O.3    73  SER73      -0.2180
     91  N         22.3440   -0.5670   10.4070 N.3    75  GLY75      -0.1210
     92  CA        22.1480   -1.8150   11.1320 C.3    75  GLY75       0.1956
     93  C         21.8520   -1.6540   12.6060 C.2    75  GLY75       0.2611
     94  O         21.2620   -0.6580   13.0200 O.2    75  GLY75      -0.2717
     95  N         22.2690   -2.6380   13.4080 N.am   76  GLU76      -0.1979
     96  CA        21.9900   -2.6720   14.8360 C.3    76  GLU76       0.1602
     97  C         23.0150   -1.9540   15.6700 C.2    76  GLU76       0.2287
     98  O         24.2130   -2.1600   15.4790 O.2    76  GLU76      -0.2864
     99  CB        21.9260   -4.1210   15.3460 C.3    76  GLU76       0.0415
    100  CG        20.9040   -5.0170   14.6790 C.3    76  GLU76       0.1163
    101  CD        20.9260   -6.4440   15.1890 C.2    76  GLU76       0.3649
    102  OE1       21.6760   -6.7300   16.1470 O.co2  76  GLU76      -0.2457
    103  OE2       20.1870   -7.2820   14.6300 O.co2  76  GLU76      -0.2457
    104  N         19.9520   -4.9420   19.9480 N.3   119  GLU119     -0.1231
    105  CA        19.4610   -5.6650   18.7580 C.3   119  GLU119      0.1699
    106  C         18.2310   -4.9960   18.1470 C.2   119  GLU119      0.2592
    107  O         18.0230   -5.0990   16.9450 O.2   119  GLU119     -0.2718
    108  CB        19.0950   -7.1290   19.1030 C.3   119  GLU119      0.0402
    109  CG        20.2480   -7.9830   19.6110 C.3   119  GLU119      0.1161
    110  CD        20.5220   -7.9430   21.1040 C.2   119  GLU119      0.3649
    111  OE1       20.1630   -6.9420   21.7680 O.co2 119  GLU119     -0.2457
    112  OE2       21.1300   -8.9140   21.6070 O.co2 119  GLU119     -0.2457
    113  N         17.4140   -4.3280   18.9690 N.am  120  ASN120     -0.1974
    114  CA        16.1650   -3.6670   18.5530 C.3   120  ASN120      0.1688
    115  C         16.3480   -2.1910   18.3230 C.2   120  ASN120      0.2292
    116  O         15.3770   -1.5230   17.9970 O.2   120  ASN120     -0.2864
    117  CB        15.0790   -3.8930   19.6000 C.3   120  ASN120      0.1181
    118  CG        14.5700   -5.3180   19.6170 C.2   120  ASN120      0.2629
    119  OD1       14.6540   -6.0500   18.6280 O.2   120  ASN120     -0.2716
    120  ND2       13.9880   -5.7300   20.7230 N.am  120  ASN120     -0.0877
    121  N         18.0260    0.3850   15.9090 N.3   122  LEU122     -0.1245
    122  CA        18.6160    0.4250   14.5690 C.3   122  LEU122      0.1561
    123  C         19.1100    1.8190   14.2180 C.2   122  LEU122      0.2260
    124  O         18.7120    2.8030   14.8380 O.2   122  LEU122     -0.2867
    125  CB        17.6570   -0.1060   13.4890 C.3   122  LEU122      0.0270
    126  CG        17.0140   -1.4980   13.7360 C.3   122  LEU122      0.0019
    127  CD1       15.9960   -1.8110   12.6740 C.3   122  LEU122      0.0001
    128  CD2       18.0580   -2.6140   13.8380 C.3   122  LEU122      0.0001
    129  N         12.9930   -0.2960   17.1650 N.3   132  SER132     -0.1202
    130  CA        12.3040   -1.2250   16.2670 C.3   132  SER132      0.2020
    131  C         11.7040   -2.4240   16.9950 C.2   132  SER132      0.2618
    132  O         12.0850   -2.6930   18.1370 O.2   132  SER132     -0.2717
    133  CB        13.2600   -1.7140   15.1780 C.3   132  SER132      0.2103
    134  OG        14.1030   -2.7650   15.6020 O.3   132  SER132     -0.2182
    135  N         10.8020   -3.1710   16.2910 N.am  133  ASP133     -0.1973
    136  CA        10.1580   -4.4120   16.7200 C.3   133  ASP133      0.1709
    137  C          9.1630   -4.1870   17.8670 C.2   133  ASP133      0.2293
    138  O          9.5170   -4.1980   19.0560 O.2   133  ASP133     -0.2864
    139  CB        11.2040   -5.4800   17.0970 C.3   133  ASP133      0.1436
    140  CG        10.7210   -6.9160   16.9550 C.2   133  ASP133      0.3671
    141  OD1        9.4870   -7.1280   16.8810 O.co2 133  ASP133     -0.2456
    142  OD2       11.5790   -7.8310   16.9210 O.co2 133  ASP133     -0.2456
@<TRIPOS>BOND
     1    76    74   ar
     2    76    77   ar
     3    74    72   ar
     4    78    77    1
     5    77    75   ar
     6    72    71    1
     7    72    73   ar
     8    20    21    1
     9    71    68    1
    10    75    73   ar
    11    89    90    1
    12    89    86    1
    13    21    22    1
    14    21    24    1
    15    22    23    2
    16     8     6    1
    17     6     7    1
    18     6     5    1
    19    53    52    2
    20     1     2    1
    21    68    67    1
    22    68    69    1
    23    67    60   am
    24    86    85    1
    25    86    87    1
    26    15    16    2
    27    15    14    1
    28    50    51    1
    29    70    69    2
    30    25    26    1
    31    69    79   am
    32    28    27    2
    33     2     5    1
    34     2     3    1
    35    52    51    1
    36    52    58   am
    37    85    81   am
    38    88    87    2
    39    27    26    1
    40    60    59    1
    41    60    61    2
    42    59    58    1
    43    59    62    1
    44    51    54    1
    45    79    80    1
    46    14    13    1
    47    14    17    1
    48    26    29    1
    49    81    80    1
    50    81    82    2
    51    63    62    1
    52    63    64    1
    53    18    17    1
    54    80    83    1
    55     3     9   am
    56     3     4    2
    57     9    10    1
    58    54    55    1
    59    17    19    1
    60    66    64   ar
    61    64    65   ar
    62    29    30    1
    63    55    56    1
    64    55    57    1
    65    83    84    1
    66    10    11    1
    67    91    92    1
    68    11    12    2
    69    30    31    1
    70    92    93    1
    71    48    47    1
    72    31    32    1
    73    45    44    1
    74    45    46    2
    75    93    94    2
    76    93    95   am
    77   127   126    1
    78    44    47    1
    79    44    43    1
    80    47    49    1
    81    32    33    1
    82    95    96    1
    83   125   126    1
    84   125   122    1
    85   126   128    1
    86   123   122    1
    87   123   124    2
    88    42    40   ar
    89   122   121    1
    90   103   101   ar
    91   100   101    1
    92   100    99    1
    93    96    99    1
    94    96    97    1
    95    40    39    1
    96    40    41   ar
    97    37    36    2
    98    36    35    1
    99    39    38    1
   100   133   134    1
   101   133   130    1
   102   101   102   ar
   103    98    97    2
   104    38    35    1
   105    35    34    1
   106   130   131    1
   107   130   129    1
   108   135   136    1
   109   135   131   am
   110   136   139    1
   111   136   137    1
   112   141   140   ar
   113   142   140   ar
   114   107   106    2
   115   140   139    1
   116   131   132    2
   117   137   138    2
   118   116   115    2
   119   106   105    1
   120   106   113   am
   121   115   114    1
   122   114   113    1
   123   114   117    1
   124   119   118    2
   125   105   108    1
   126   105   104    1
   127   108   109    1
   128   117   118    1
   129   109   110    1
   130   118   120   am
   131   110   112   ar
   132   110   111   ar
