@<TRIPOS>MOLECULE
tmp/4ft6A03.pdb
 85 80 0 0 0
SMALL
GASTEIGER

@<TRIPOS>ATOM
      1  N        -66.2310   29.7350  -28.1600 N.3   304  TYR304     -0.1241
      2  CA       -66.6590   30.1630  -26.8430 C.3   304  TYR304      0.1605
      3  C        -66.6880   28.9520  -25.9500 C.2   304  TYR304      0.2264
      4  O        -67.1290   27.8830  -26.3770 O.2   304  TYR304     -0.2867
      5  CB       -68.0510   30.8050  -26.8800 C.3   304  TYR304      0.0534
      6  CG       -68.5670   31.1010  -25.4930 C.ar  304  TYR304     -0.0201
      7  CD1      -68.1280   32.2050  -24.8020 C.ar  304  TYR304     -0.0009
      8  CD2      -69.4520   30.2510  -24.8580 C.ar  304  TYR304     -0.0009
      9  CE1      -68.5750   32.4740  -23.5200 C.ar  304  TYR304      0.0417
     10  CE2      -69.9030   30.5130  -23.5800 C.ar  304  TYR304      0.0417
     11  CZ       -69.4620   31.6260  -22.9160 C.ar  304  TYR304      0.1957
     12  OH       -69.8980   31.8860  -21.6370 O.3   304  TYR304     -0.2866
     13  N        -69.4640   23.5910  -21.3930 N.3   318  ALA318     -0.1231
     14  CA       -70.1040   23.8280  -22.6750 C.3   318  ALA318      0.1694
     15  C        -69.1430   24.5620  -23.5920 C.2   318  ALA318      0.2592
     16  O        -68.3370   25.3760  -23.1390 O.2   318  ALA318     -0.2718
     17  CB       -71.3800   24.6280  -22.4940 C.3   318  ALA318      0.0304
     18  N        -69.2400   24.2810  -24.8840 N.am  319  MET319     -0.1965
     19  CA       -68.3500   24.8760  -25.8680 C.3   319  MET319      0.1736
     20  C        -69.1090   25.0460  -27.1770 C.2   319  MET319      0.2616
     21  O        -69.8640   24.1600  -27.5810 O.2   319  MET319     -0.2715
     22  CB       -67.1320   23.9570  -26.0750 C.3   319  MET319      0.0427
     23  CG       -66.0350   24.4810  -27.0150 C.3   319  MET319      0.0599
     24  SD       -66.3910   24.3720  -28.7920 S.3   319  MET319     -0.1393
     25  CE       -66.3290   22.6080  -29.0850 C.3   319  MET319      0.0692
     26  N        -68.9060   26.1780  -27.8440 N.am  320  ALA320     -0.1977
     27  CA       -69.4570   26.3740  -29.1810 C.3   320  ALA320      0.1597
     28  C        -68.3990   27.0390  -30.0430 C.2   320  ALA320      0.2287
     29  O        -67.6750   27.9220  -29.5710 O.2   320  ALA320     -0.2864
     30  CB       -70.7370   27.2280  -29.1330 C.3   320  ALA320      0.0319
     31  N        -70.3550   24.6240  -37.6120 N.3   341  ARG341     -0.1245
     32  CA       -70.7610   25.1360  -36.3070 C.3   341  ARG341      0.1563
     33  C        -70.8440   23.9300  -35.3860 C.2   341  ARG341      0.2260
     34  O        -71.6800   23.0490  -35.6020 O.2   341  ARG341     -0.2867
     35  CB       -72.1400   25.8070  -36.4160 C.3   341  ARG341      0.0307
     36  CG       -72.7040   26.3080  -35.1010 C.3   341  ARG341      0.0489
     37  CD       -74.0440   25.6810  -34.7750 C.3   341  ARG341      0.2205
     38  NE       -73.8880   24.2650  -34.4600 N.pl3 341  ARG341     -0.0865
     39  CZ       -74.8660   23.4590  -34.0660 C.cat 341  ARG341      0.5346
     40  NH1      -76.1020   23.9090  -33.9240 N.pl3 341  ARG341      0.1354
     41  NH2      -74.5920   22.1910  -33.8140 N.pl3 341  ARG341      0.1354
     42  N        -71.0670   22.2440  -31.3790 N.3   343  VAL343     -0.1245
     43  CA       -71.5200   22.5010  -30.0140 C.3   343  VAL343      0.1561
     44  C        -71.2000   21.3140  -29.1250 C.2   343  VAL343      0.2260
     45  O        -71.5500   20.1760  -29.4430 O.2   343  VAL343     -0.2867
     46  CB       -73.0280   22.7950  -29.9380 C.3   343  VAL343      0.0252
     47  CG1      -73.5130   22.7270  -28.4890 C.3   343  VAL343      0.0019
     48  CG2      -73.3270   24.1540  -30.5310 C.3   343  VAL343      0.0019
     49  N        -71.3290   19.7910  -25.2010 N.3   345  VAL345     -0.1245
     50  CA       -71.7400   19.8740  -23.8070 C.3   345  VAL345      0.1561
     51  C        -71.2540   18.6230  -23.1020 C.2   345  VAL345      0.2260
     52  O        -71.3800   17.5160  -23.6330 O.2   345  VAL345     -0.2867
     53  CB       -73.2490   19.9960  -23.6600 C.3   345  VAL345      0.0252
     54  CG1      -73.6100   20.1580  -22.1960 C.3   345  VAL345      0.0019
     55  CG2      -73.7550   21.1860  -24.4610 C.3   345  VAL345      0.0019
     56  N        -72.2260   15.2820  -25.2190 N.3   361  TRP361     -0.1241
     57  CA       -72.9630   15.3490  -26.4700 C.3   361  TRP361      0.1605
     58  C        -72.2450   16.2970  -27.4320 C.2   361  TRP361      0.2264
     59  O        -71.8920   17.4230  -27.0650 O.2   361  TRP361     -0.2867
     60  CB       -74.4000   15.7920  -26.1890 C.3   361  TRP361      0.0550
     61  CG       -75.1840   16.2260  -27.3870 C.ar  361  TRP361      0.0003
     62  CD1      -75.3770   15.5260  -28.5480 C.ar  361  TRP361      0.0946
     63  CD2      -75.9290   17.4470  -27.5220 C.ar  361  TRP361      0.0152
     64  NE1      -76.1840   16.2530  -29.4030 N.ar  361  TRP361     -0.2442
     65  CE2      -76.5300   17.4350  -28.7970 C.ar  361  TRP361      0.0810
     66  CE3      -76.1300   18.5550  -26.6970 C.ar  361  TRP361      0.0012
     67  CZ2      -77.3210   18.4930  -29.2620 C.ar  361  TRP361      0.0191
     68  CZ3      -76.9160   19.6020  -27.1570 C.ar  361  TRP361      0.0001
     69  CH2      -77.5030   19.5640  -28.4270 C.ar  361  TRP361      0.0015
     70  N        -72.5170   18.0890  -31.2200 N.3   363  ASN363     -0.1240
     71  CA       -73.4090   18.4060  -32.3230 C.3   363  ASN363      0.1653
     72  C        -72.7100   19.3030  -33.3400 C.2   363  ASN363      0.2266
     73  O        -72.0350   20.2620  -32.9550 O.2   363  ASN363     -0.2867
     74  CB       -74.6630   19.1050  -31.7870 C.3   363  ASN363      0.1155
     75  CG       -75.7320   19.2470  -32.8320 C.2   363  ASN363      0.2627
     76  OD1      -75.7130   20.1760  -33.6320 O.2   363  ASN363     -0.2716
     77  ND2      -76.6770   18.3210  -32.8350 N.am  363  ASN363     -0.0877
     78  N        -73.0030   21.2100  -37.4560 N.3   365  MET365     -0.1245
     79  CA       -73.6040   21.4980  -38.7430 C.3   365  MET365      0.1570
     80  C        -72.4870   21.8700  -39.6980 C.2   365  MET365      0.2261
     81  O        -71.5970   22.6500  -39.3430 O.2   365  MET365     -0.2867
     82  CB       -74.5750   22.6820  -38.6450 C.3   365  MET365      0.0387
     83  CG       -75.8580   22.4310  -37.8620 C.3   365  MET365      0.0595
     84  SD       -77.0510   23.7710  -38.0960 S.3   365  MET365     -0.1393
     85  CE       -78.4650   23.1570  -37.1890 C.3   365  MET365      0.0692
@<TRIPOS>BOND
     1    80    81    2
     2    80    79    1
     3    79    82    1
     4    79    78    1
     5    82    83    1
     6    84    83    1
     7    84    85    1
     8    31    32    1
     9    35    32    1
    10    35    36    1
    11    32    33    1
    12    34    33    2
    13    36    37    1
    14    37    38    1
    15    38    39    2
    16    39    40    1
    17    39    41    1
    18    76    75    2
    19    72    73    2
    20    72    71    1
    21    77    75   am
    22    75    74    1
    23    71    74    1
    24    71    70    1
    25    42    43    1
    26    48    46    1
    27    28    29    2
    28    28    27    1
    29    43    46    1
    30    43    44    1
    31    46    47    1
    32    45    44    2
    33    64    65   ar
    34    64    62   ar
    35    67    65   ar
    36    67    69   ar
    37    27    30    1
    38    27    26    1
    39    25    24    1
    40    65    63   ar
    41    24    23    1
    42    62    61   ar
    43    69    68   ar
    44     1     2    1
    45    26    20   am
    46    21    20    2
    47    63    61   ar
    48    63    66   ar
    49    58    59    2
    50    58    57    1
    51    61    60    1
    52    20    19    1
    53    68    66   ar
    54    23    22    1
    55     5     2    1
    56     5     6    1
    57     2     3    1
    58    57    60    1
    59    57    56    1
    60     4     3    2
    61    22    19    1
    62    19    18    1
    63     6     8   ar
    64     6     7   ar
    65    49    50    1
    66    18    15   am
    67     8    10   ar
    68     7     9   ar
    69    55    53    1
    70    50    53    1
    71    50    51    1
    72    53    54    1
    73    52    51    2
    74    15    16    2
    75    15    14    1
    76    10    11   ar
    77     9    11   ar
    78    11    12    1
    79    14    17    1
    80    14    13    1
