@<TRIPOS>MOLECULE
tmp/4ft6A04.pdb
 96 92 0 0 0
SMALL
GASTEIGER

@<TRIPOS>ATOM
      1  N        -59.1250    0.1000  -17.1940 N.3    11  LEU11      -0.1245
      2  CA       -60.0650   -0.3620  -18.1990 C.3    11  LEU11       0.1561
      3  C        -60.9460    0.8080  -18.6020 C.2    11  LEU11       0.2260
      4  O        -61.8060    1.2520  -17.8290 O.2    11  LEU11      -0.2867
      5  CB       -60.9350   -1.4900  -17.6510 C.3    11  LEU11       0.0270
      6  CG       -62.0660   -1.8990  -18.5980 C.3    11  LEU11       0.0019
      7  CD1      -61.4980   -2.3930  -19.9270 C.3    11  LEU11       0.0001
      8  CD2      -62.9710   -2.9430  -17.9670 C.3    11  LEU11       0.0001
      9  N        -63.9000   -1.1050  -25.2330 N.3    39  PHE39      -0.1241
     10  CA       -63.1270   -1.4040  -24.0340 C.3    39  PHE39       0.1605
     11  C        -61.6680   -1.1240  -24.3180 C.2    39  PHE39       0.2264
     12  O        -61.1420   -1.5830  -25.3300 O.2    39  PHE39      -0.2867
     13  CB       -63.2670   -2.8780  -23.6750 C.3    39  PHE39       0.0534
     14  CG       -64.6780   -3.2990  -23.3880 C.ar   39  PHE39      -0.0203
     15  CD1      -65.5660   -3.5630  -24.4250 C.ar   39  PHE39      -0.0042
     16  CD2      -65.1210   -3.4360  -22.0850 C.ar   39  PHE39      -0.0042
     17  CE1      -66.8710   -3.9420  -24.1680 C.ar   39  PHE39      -0.0003
     18  CE2      -66.4290   -3.8230  -21.8180 C.ar   39  PHE39      -0.0003
     19  CZ       -67.3020   -4.0770  -22.8630 C.ar   39  PHE39      -0.0000
     20  N        -57.9990   -1.5890  -22.6200 N.3    41  LEU41      -0.1245
     21  CA       -57.1640   -2.1400  -21.5580 C.3    41  LEU41       0.1561
     22  C        -55.7560   -1.5850  -21.6710 C.2    41  LEU41       0.2260
     23  O        -55.0890   -1.7350  -22.7060 O.2    41  LEU41      -0.2867
     24  CB       -57.1100   -3.6640  -21.6480 C.3    41  LEU41       0.0270
     25  CG       -56.4330   -4.3500  -20.4660 C.3    41  LEU41       0.0019
     26  CD1      -57.0720   -3.8730  -19.1680 C.3    41  LEU41       0.0001
     27  CD2      -56.5320   -5.8730  -20.6020 C.3    41  LEU41       0.0001
     28  N        -54.9000   -3.1460  -24.9250 N.3    60  GLY60      -0.1210
     29  CA       -55.9070   -4.0890  -25.3720 C.3    60  GLY60       0.1956
     30  C        -57.1450   -3.3320  -25.8190 C.2    60  GLY60       0.2612
     31  O        -57.5930   -2.3790  -25.1470 O.2    60  GLY60      -0.2717
     32  N        -57.7070   -3.7510  -26.9510 N.am   61  GLN61      -0.1965
     33  CA       -58.9010   -3.1050  -27.4870 C.3    61  GLN61       0.1733
     34  C        -60.0130   -4.1210  -27.7610 C.2    61  GLN61       0.2616
     35  O        -59.7490   -5.2490  -28.1770 O.2    61  GLN61      -0.2715
     36  CB       -58.5490   -2.3500  -28.7710 C.3    61  GLN61       0.0408
     37  CG       -57.4210   -1.3470  -28.6330 C.3    61  GLN61       0.0908
     38  CD       -57.1870   -0.5660  -29.9150 C.2    61  GLN61       0.2608
     39  OE1      -58.1260   -0.0560  -30.5240 O.2    61  GLN61      -0.2717
     40  NE2      -55.9350   -0.4780  -30.3370 N.am   61  GLN61      -0.0878
     41  N        -61.2530   -3.7070  -27.5340 N.am   62  LEU62      -0.1977
     42  CA       -62.4310   -4.5070  -27.8710 C.3    62  LEU62       0.1596
     43  C        -63.5800   -3.5580  -28.1920 C.2    62  LEU62       0.2287
     44  O        -63.9830   -2.7470  -27.3410 O.2    62  LEU62      -0.2864
     45  CB       -62.8250   -5.4080  -26.6990 C.3    62  LEU62       0.0297
     46  CG       -64.0780   -6.2850  -26.8320 C.3    62  LEU62       0.0022
     47  CD1      -64.0210   -7.1710  -28.0690 C.3    62  LEU62       0.0001
     48  CD2      -64.2560   -7.1520  -25.5900 C.3    62  LEU62       0.0001
     49  N        -61.1660   -6.7890  -32.0650 N.3    91  ALA91      -0.1231
     50  CA       -60.3050   -6.6830  -30.9050 C.3    91  ALA91       0.1694
     51  C        -58.8750   -6.5290  -31.3600 C.2    91  ALA91       0.2592
     52  O        -58.5390   -6.7770  -32.5280 O.2    91  ALA91      -0.2718
     53  CB       -60.4550   -7.8850  -29.9960 C.3    91  ALA91       0.0304
     54  N        -58.0320   -6.0850  -30.4410 N.am   92  ARG92      -0.1966
     55  CA       -56.6280   -5.9310  -30.7560 C.3    92  ARG92       0.1729
     56  C        -55.8210   -5.9470  -29.4660 C.2    92  ARG92       0.2616
     57  O        -56.2750   -5.4690  -28.4190 O.2    92  ARG92      -0.2715
     58  CB       -56.4040   -4.6330  -31.5160 C.3    92  ARG92       0.0348
     59  CG       -55.0730   -4.5720  -32.2150 C.3    92  ARG92       0.0492
     60  CD       -54.8370   -3.2390  -32.9120 C.3    92  ARG92       0.2205
     61  NE       -53.4060   -3.1000  -33.1680 N.pl3  92  ARG92      -0.0865
     62  CZ       -52.7650   -3.7380  -34.1350 C.cat  92  ARG92       0.5346
     63  NH1      -53.4370   -4.5350  -34.9580 N.pl3  92  ARG92       0.1354
     64  NH2      -51.4570   -3.5700  -34.2830 N.pl3  92  ARG92       0.1354
     65  N        -54.6270   -6.5130  -29.5320 N.am   93  LEU93      -0.1977
     66  CA       -53.7830   -6.5980  -28.3640 C.3    93  LEU93       0.1596
     67  C        -52.3450   -6.3760  -28.7990 C.2    93  LEU93       0.2287
     68  O        -51.8200   -7.1130  -29.6330 O.2    93  LEU93      -0.2864
     69  CB       -53.9360   -7.9670  -27.7170 C.3    93  LEU93       0.0297
     70  CG       -53.2420   -8.2250  -26.3770 C.3    93  LEU93       0.0022
     71  CD1      -53.5860   -7.1190  -25.3900 C.3    93  LEU93       0.0001
     72  CD2      -53.6440   -9.6110  -25.8220 C.3    93  LEU93       0.0001
     73  N        -59.0820   -4.1410  -36.4730 N.3   159  SER159     -0.1202
     74  CA       -58.2150   -5.0250  -35.7170 C.3   159  SER159      0.2020
     75  C        -56.8190   -4.9970  -36.3280 C.2   159  SER159      0.2619
     76  O        -55.8120   -5.1790  -35.6360 O.2   159  SER159     -0.2717
     77  CB       -58.7590   -6.4540  -35.7530 C.3   159  SER159      0.2103
     78  OG       -59.9710   -6.5340  -35.0420 O.3   159  SER159     -0.2182
     79  N        -56.7710   -4.7610  -37.6350 N.am  160  ASP160     -0.1959
     80  CA       -55.5620   -5.0140  -38.4140 C.3   160  ASP160      0.1840
     81  C        -54.6070   -3.8310  -38.4460 C.2   160  ASP160      0.2622
     82  O        -54.9810   -2.7010  -38.1050 O.2   160  ASP160     -0.2715
     83  CB       -55.9350   -5.4070  -39.8470 C.3   160  ASP160      0.1450
     84  CG       -56.9740   -6.5080  -39.8980 C.2   160  ASP160      0.3671
     85  OD1      -57.0010   -7.3420  -38.9640 O.co2 160  ASP160     -0.2456
     86  OD2      -57.7580   -6.5350  -40.8730 O.co2 160  ASP160     -0.2456
     87  N        -53.3670   -4.0980  -38.8480 N.am  161  HIS161     -0.1973
     88  CA       -52.4310   -3.0260  -39.1450 C.3   161  HIS161      0.1656
     89  C        -52.1210   -3.0050  -40.6450 C.2   161  HIS161      0.2291
     90  O        -52.3350   -3.9990  -41.3570 O.2   161  HIS161     -0.2864
     91  CB       -51.1460   -3.1380  -38.3100 C.3   161  HIS161      0.0771
     92  CG       -50.2800   -4.3020  -38.6870 C.ar  161  HIS161      0.0820
     93  ND1      -49.5750   -4.3510  -39.8750 N.ar  161  HIS161     -0.2267
     94  CD2      -50.0050   -5.4440  -38.0370 C.ar  161  HIS161      0.1154
     95  CE1      -48.9230   -5.4940  -39.9420 C.ar  161  HIS161      0.1986
     96  NE2      -49.1660   -6.1830  -38.8420 N.ar  161  HIS161     -0.2212
@<TRIPOS>BOND
     1    90    89    2
     2    86    84   ar
     3    89    88    1
     4    95    93   ar
     5    95    96   ar
     6    84    83    1
     7    84    85   ar
     8    93    92   ar
     9    83    80    1
    10    88    87    1
    11    88    91    1
    12    87    81   am
    13    96    94   ar
    14    92    91    1
    15    92    94   ar
    16    81    80    1
    17    81    82    2
    18    80    79    1
    19    79    75   am
    20    73    74    1
    21    75    74    1
    22    75    76    2
    23    77    74    1
    24    77    78    1
    25    63    62    1
    26    64    62    1
    27    62    61    2
    28    61    60    1
    29    60    59    1
    30    52    51    2
    31    59    58    1
    32    49    50    1
    33    58    55    1
    34    51    50    1
    35    51    54   am
    36    50    53    1
    37    55    54    1
    38    55    56    1
    39    39    38    2
    40    40    38   am
    41    38    37    1
    42    68    67    2
    43    65    56   am
    44    65    66    1
    45    56    57    2
    46    67    66    1
    47    36    37    1
    48    36    33    1
    49    66    69    1
    50    43    42    1
    51    43    44    2
    52    35    34    2
    53    47    46    1
    54    42    41    1
    55    42    45    1
    56    34    41   am
    57    34    33    1
    58    69    70    1
    59    33    32    1
    60    32    30   am
    61    46    45    1
    62    46    48    1
    63    70    72    1
    64    70    71    1
    65    30    29    1
    66    30    31    2
    67    29    28    1
    68    12    11    2
    69     9    10    1
    70    15    17   ar
    71    15    14   ar
    72    11    10    1
    73    17    19   ar
    74    10    13    1
    75    13    14    1
    76    14    16   ar
    77    19    18   ar
    78    23    22    2
    79    20    21    1
    80    16    18   ar
    81    22    21    1
    82    24    21    1
    83    24    25    1
    84    27    25    1
    85    25    26    1
    86     7     6    1
    87     3     2    1
    88     3     4    2
    89     6     8    1
    90     6     5    1
    91     2     5    1
    92     2     1    1
