@<TRIPOS>MOLECULE
tmp/4ft7A00.pdb
 154 144 0 0 0
SMALL
GASTEIGER

@<TRIPOS>ATOM
      1  N         18.5770   -9.6990    5.8420 N.3    13  LEU13      -0.1231
      2  CA        19.2130   -8.8130    6.8090 C.3    13  LEU13       0.1693
      3  C         19.3410   -9.5210    8.1570 C.2    13  LEU13       0.2592
      4  O         20.3250   -9.3040    8.8600 O.2    13  LEU13      -0.2718
      5  CB        18.4520   -7.4840    6.9430 C.3    13  LEU13       0.0284
      6  CG        18.3400   -6.6130    5.6820 C.3    13  LEU13       0.0019
      7  CD1       17.3510   -5.4850    5.8930 C.3    13  LEU13       0.0001
      8  CD2       19.7070   -6.0710    5.2350 C.3    13  LEU13       0.0001
      9  N         18.3720  -10.3830    8.4730 N.am   14  GLY14      -0.1957
     10  CA        18.3370  -11.1750    9.6990 C.3    14  GLY14       0.1869
     11  C         17.2590  -12.2400    9.6980 C.2    14  GLY14       0.2309
     12  O         16.2530  -12.0990    8.9990 O.2    14  GLY14      -0.2863
     13  N         10.4960  -15.0110   14.4930 N.3    18  TYR18      -0.1241
     14  CA         9.4610  -14.5050   13.6360 C.3    18  TYR18       0.1605
     15  C          9.4670  -15.0960   12.2490 C.2    18  TYR18       0.2264
     16  O          8.4440  -15.4250   11.6860 O.2    18  TYR18      -0.2867
     17  CB         9.6900  -12.9990   13.4560 C.3    18  TYR18       0.0534
     18  CG        11.1630  -12.5940   13.3580 C.ar   18  TYR18      -0.0201
     19  CD1       11.6670  -11.9840   12.2070 C.ar   18  TYR18      -0.0009
     20  CD2       12.0490  -12.8400   14.3940 C.ar   18  TYR18      -0.0009
     21  CE1       12.9900  -11.6330   12.1030 C.ar   18  TYR18       0.0417
     22  CE2       13.3550  -12.4830   14.2770 C.ar   18  TYR18       0.0417
     23  CZ        13.8200  -11.8750   13.1250 C.ar   18  TYR18       0.1957
     24  OH        15.1290  -11.5160   13.0080 O.3    18  TYR18      -0.2866
     25  N         13.8910  -11.0000    7.9930 N.3    21  VAL21      -0.1245
     26  CA        13.8470   -9.5990    7.5950 C.3    21  VAL21       0.1561
     27  C         14.7040   -9.5070    6.3410 C.2    21  VAL21       0.2260
     28  O         15.8700   -9.9240    6.3560 O.2    21  VAL21      -0.2867
     29  CB        14.2720   -8.6110    8.7180 C.3    21  VAL21       0.0252
     30  CG1       14.3260   -7.1740    8.1960 C.3    21  VAL21       0.0019
     31  CG2       13.3170   -8.7050    9.9000 C.3    21  VAL21       0.0019
     32  N         12.9730   -2.3890    4.6740 N.3    34  ALA34      -0.1245
     33  CA        13.1510   -3.6870    5.3050 C.3    34  ALA34       0.1562
     34  C         11.7860   -4.3820    5.3470 C.2    34  ALA34       0.2260
     35  O         10.7940   -3.7740    5.7670 O.2    34  ALA34      -0.2867
     36  CB        13.7340   -3.5300    6.7020 C.3    34  ALA34       0.0290
     37  N          9.6740   -7.4360    6.8700 N.3    36  LYS36      -0.1245
     38  CA         9.5980   -8.4390    7.9260 C.3    36  LYS36       0.1561
     39  C          8.5460   -9.4590    7.4840 C.2    36  LYS36       0.2260
     40  O          7.3790   -9.1020    7.2910 O.2    36  LYS36      -0.2867
     41  CB         9.2730   -7.7790    9.2870 C.3    36  LYS36       0.0271
     42  CG         9.2390   -8.7390   10.4690 C.3    36  LYS36       0.0035
     43  CD         8.9990   -7.9700   11.7650 C.3    36  LYS36       0.0206
     44  CE         9.1400   -8.8440   12.9780 C.3    36  LYS36       0.1093
     45  NZ         9.2900   -8.0470   14.2220 N.3    36  LYS36      -0.1314
     46  N          1.4400   -6.1240   16.8770 N.3    45  GLU45      -0.1245
     47  CA         2.6530   -5.4720   16.3720 C.3    45  GLU45       0.1567
     48  C          2.3080   -4.4840   15.2480 C.2    45  GLU45       0.2260
     49  O          2.8490   -3.3790   15.2390 O.2    45  GLU45      -0.2867
     50  CB         3.6910   -6.4990   15.8960 C.3    45  GLU45       0.0388
     51  CG         4.9740   -5.8670   15.3640 C.3    45  GLU45       0.1160
     52  CD         6.0980   -6.8100   14.9920 C.2    45  GLU45       0.3649
     53  OE1        5.9660   -8.0280   15.2440 O.co2  45  GLU45      -0.2457
     54  OE2        7.1320   -6.3240   14.4790 O.co2  45  GLU45      -0.2457
     55  N         11.6110    3.1930   14.4250 N.3    58  VAL58      -0.1245
     56  CA        11.6010    2.5770   13.0990 C.3    58  VAL58       0.1561
     57  C         10.2360    2.8400   12.4250 C.2    58  VAL58       0.2260
     58  O          9.1930    2.4920   12.9850 O.2    58  VAL58      -0.2867
     59  CB        11.9410    1.0610   13.1540 C.3    58  VAL58       0.0252
     60  CG1       11.5580    0.3590   11.8460 C.3    58  VAL58       0.0019
     61  CG2       13.4160    0.8370   13.4690 C.3    58  VAL58       0.0019
     62  N          8.9500   -1.9940    6.7910 N.3    74  LEU74      -0.1231
     63  CA         9.5860   -1.1790    7.8210 C.3    74  LEU74       0.1693
     64  C         10.8190   -0.4570    7.3140 C.2    74  LEU74       0.2592
     65  O         11.3430   -0.7710    6.2460 O.2    74  LEU74      -0.2718
     66  CB         9.9590   -2.0610    9.0280 C.3    74  LEU74       0.0284
     67  CG         8.8010   -2.8440    9.6740 C.3    74  LEU74       0.0019
     68  CD1        9.3080   -4.0920   10.3630 C.3    74  LEU74       0.0001
     69  CD2        7.9630   -1.9580   10.5860 C.3    74  LEU74       0.0001
     70  N         11.2750    0.5260    8.0920 N.am   75  GLU75      -0.1966
     71  CA        12.4280    1.3430    7.7430 C.3    75  GLU75       0.1733
     72  C         13.7040    0.5130    7.6310 C.2    75  GLU75       0.2616
     73  O         13.9760   -0.3390    8.4890 O.2    75  GLU75      -0.2715
     74  CB        12.5980    2.4360    8.7950 C.3    75  GLU75       0.0429
     75  CG        13.5940    3.5260    8.4420 C.3    75  GLU75       0.1163
     76  CD        13.7310    4.5800    9.5230 C.2    75  GLU75       0.3649
     77  OE1       12.8580    4.6390   10.4230 O.co2  75  GLU75      -0.2457
     78  OE2       14.7130    5.3550    9.4630 O.co2  75  GLU75      -0.2457
     79  N         14.4610    0.7450    6.5460 N.am   76  TYR76      -0.1960
     80  CA        15.7720    0.1390    6.3490 C.3    76  TYR76       0.1771
     81  C         16.7850    1.0460    7.0240 C.2    76  TYR76       0.2620
     82  O         16.8680    2.2320    6.7050 O.2    76  TYR76      -0.2715
     83  CB        16.1120   -0.0720    4.8580 C.3    76  TYR76       0.0574
     84  CG        17.5460   -0.5050    4.6040 C.ar   76  TYR76      -0.0198
     85  CD1       18.0560   -1.6720    5.1710 C.ar   76  TYR76      -0.0009
     86  CD2       18.3680    0.2120    3.7380 C.ar   76  TYR76      -0.0009
     87  CE1       19.3640   -2.0880    4.9200 C.ar   76  TYR76       0.0417
     88  CE2       19.6740   -0.2000    3.4710 C.ar   76  TYR76       0.0417
     89  CZ        20.1670   -1.3510    4.0640 C.ar   76  TYR76       0.1957
     90  OH        21.4520   -1.7620    3.7990 O.3    76  TYR76      -0.2866
     91  N         17.5170    0.4930    7.9820 N.am   77  CYS77      -0.1954
     92  CA        18.5350    1.1950    8.7460 C.3    77  CYS77       0.1843
     93  C         19.8650    0.5540    8.3690 C.2    77  CYS77       0.2626
     94  O         20.1970   -0.5170    8.8810 O.2    77  CYS77      -0.2714
     95  CB        18.2270    1.1020   10.2450 C.3    77  CYS77       0.0997
     96  SG        16.5510    1.6450   10.6970 S.3    77  CYS77      -0.0797
     97  N         20.5840    1.1630    7.3950 N.am   78  SER78      -0.1950
     98  CA        21.8190    0.6020    6.8180 C.3    78  SER78       0.1924
     99  C         22.9820    0.4320    7.8160 C.2    78  SER78       0.2314
    100  O         23.8620   -0.3930    7.5660 O.2    78  SER78      -0.2863
    101  CB        22.2860    1.4150    5.6120 C.3    78  SER78       0.2116
    102  OG        22.7150    2.7210    5.9610 O.3    78  SER78      -0.2180
    103  N         22.7850   -0.9550   10.6410 N.3    80  GLY80      -0.1210
    104  CA        22.5300   -2.2000   11.3630 C.3    80  GLY80       0.1956
    105  C         22.2120   -1.9610   12.8270 C.2    80  GLY80       0.2614
    106  O         21.7160   -0.8990   13.1880 O.2    80  GLY80      -0.2717
    107  N         22.5420   -2.9200   13.6810 N.am   81  GLU81      -0.1933
    108  CA        22.2630   -2.8470   15.1180 C.3    81  GLU81       0.1818
    109  C         23.3330   -2.1010   15.8860 C.2    81  GLU81       0.2332
    110  O         24.5150   -2.2180   15.5790 O.2    81  GLU81      -0.2860
    111  CB        22.1210   -4.2500   15.7320 C.2    81  GLU81       0.0097
    112  CG        21.1920   -5.1900   14.9860 C.2    81  GLU81       0.0837
    113  CD        20.9780   -6.5540   15.6150 C.2    81  GLU81       0.3877
    114  OE1       21.7560   -6.9370   16.5160 O.co2  81  GLU81      -0.2406
    115  OE2       20.0220   -7.2450   15.2020 O.co2  81  GLU81      -0.2406
    116  N         20.3100   -4.9370   20.3110 N.3   124  GLU124     -0.1231
    117  CA        19.8390   -5.6880   19.1400 C.3   124  GLU124      0.1699
    118  C         18.5400   -5.0760   18.5830 C.2   124  GLU124      0.2592
    119  O         18.2090   -5.3140   17.4260 O.2   124  GLU124     -0.2718
    120  CB        19.6110   -7.1840   19.4930 C.3   124  GLU124      0.0402
    121  CG        20.8370   -7.8830   20.0730 C.3   124  GLU124      0.1161
    122  CD        20.9920   -7.8780   21.5850 C.2   124  GLU124      0.3649
    123  OE1       20.5790   -6.8960   22.2460 O.co2 124  GLU124     -0.2457
    124  OE2       21.5820   -8.8500   22.1060 O.co2 124  GLU124     -0.2457
    125  N         17.8140   -4.2720   19.3970 N.am  125  ASN125     -0.1974
    126  CA        16.5570   -3.6330   18.9850 C.3   125  ASN125      0.1688
    127  C         16.6980   -2.1300   18.8270 C.2   125  ASN125      0.2292
    128  O         15.7020   -1.4030   18.8340 O.2   125  ASN125     -0.2864
    129  CB        15.4280   -3.9710   19.9640 C.3   125  ASN125      0.1181
    130  CG        14.9260   -5.3840   19.8010 C.2   125  ASN125      0.2629
    131  OD1       14.9050   -5.9410   18.6970 O.2   125  ASN125     -0.2716
    132  ND2       14.4980   -5.9910   20.8890 N.am  125  ASN125     -0.0877
    133  N         18.4250    0.3010   16.0910 N.3   127  LEU127     -0.1245
    134  CA        19.0490    0.3090   14.7650 C.3   127  LEU127      0.1561
    135  C         19.5500    1.6910   14.3820 C.2   127  LEU127      0.2260
    136  O         19.0890    2.6970   14.9240 O.2   127  LEU127     -0.2867
    137  CB        18.1070   -0.2540   13.6760 C.3   127  LEU127      0.0270
    138  CG        17.3660   -1.5900   14.0050 C.3   127  LEU127      0.0019
    139  CD1       16.5400   -2.0490   12.8210 C.3   127  LEU127      0.0001
    140  CD2       18.3320   -2.7160   14.4600 C.3   127  LEU127      0.0001
    141  N         13.4440   -0.3770   17.4690 N.3   137  SER137     -0.1202
    142  CA        12.9460   -1.3940   16.5480 C.3   137  SER137      0.2020
    143  C         12.2250   -2.5510   17.2480 C.2   137  SER137      0.2618
    144  O         12.4920   -2.8750   18.4100 O.2   137  SER137     -0.2717
    145  CB        14.1390   -1.9470   15.7690 C.3   137  SER137      0.2103
    146  OG        13.8770   -3.1180   14.9940 O.3   137  SER137     -0.2182
    147  N         11.3320   -3.1970   16.4900 N.am  138  ASP138     -0.1973
    148  CA        10.5750   -4.3970   16.8410 C.3   138  ASP138      0.1709
    149  C          9.5940   -4.1650   17.9790 C.2   138  ASP138      0.2293
    150  O          9.9740   -4.1700   19.1580 O.2   138  ASP138     -0.2864
    151  CB        11.5370   -5.5590   17.1810 C.3   138  ASP138      0.1436
    152  CG        10.9170   -6.9420   17.2500 C.2   138  ASP138      0.3671
    153  OD1        9.7070   -7.0320   17.4870 O.co2 138  ASP138     -0.2456
    154  OD2       11.6540   -7.9170   17.0850 O.co2 138  ASP138     -0.2456
@<TRIPOS>BOND
     1    88    86   ar
     2    88    89   ar
     3    86    84   ar
     4    90    89    1
     5    89    87   ar
     6    84    83    1
     7    84    85   ar
     8    32    33    1
     9    83    80    1
    10    87    85   ar
    11     8     6    1
    12    33    34    1
    13    33    36    1
    14    34    35    2
    15   101   102    1
    16   101    98    1
    17     6     7    1
    18     6     5    1
    19     1     2    1
    20    65    64    2
    21    27    28    2
    22    27    26    1
    23    80    79    1
    24    80    81    1
    25    79    72   am
    26    82    81    2
    27    62    63    1
    28     2     5    1
    29     2     3    1
    30    98    97    1
    31    98    99    1
    32    37    38    1
    33    81    91   am
    34    40    39    2
    35    64    63    1
    36    64    70   am
    37    97    93   am
    38    39    38    1
    39   100    99    2
    40    26    25    1
    41    26    29    1
    42    72    71    1
    43    72    73    2
    44    71    70    1
    45    71    74    1
    46    63    66    1
    47    38    41    1
    48    91    92    1
    49     3     9   am
    50     3     4    2
    51    30    29    1
    52    93    92    1
    53    93    94    2
    54    75    74    1
    55    75    76    1
    56     9    10    1
    57    29    31    1
    58    92    95    1
    59    12    11    2
    60    66    67    1
    61    41    42    1
    62    78    76   ar
    63    76    77   ar
    64    67    68    1
    65    67    69    1
    66    11    10    1
    67    95    96    1
    68    42    43    1
    69   103   104    1
    70   104   105    1
    71    16    15    2
    72    43    44    1
    73    60    59    1
    74    21    19   ar
    75    21    23   ar
    76    19    18   ar
    77    15    14    1
    78    57    58    2
    79    57    56    1
    80   139   138    1
    81   105   106    2
    82   105   107   am
    83    44    45    1
    84    24    23    1
    85    56    59    1
    86    56    55    1
    87    23    22   ar
    88    59    61    1
    89    18    17    1
    90    18    20   ar
    91    17    14    1
    92    14    13    1
    93   137   138    1
    94   137   134    1
    95   107   108    1
    96   138   140    1
    97    22    20   ar
    98   135   134    1
    99   135   136    2
   100    54    52   ar
   101   134   133    1
   102   112   113    1
   103   112   111    2
   104    52    53   ar
   105    52    51    1
   106   146   145    1
   107   108   111    1
   108   108   109    1
   109   115   113   ar
   110    49    48    2
   111    48    47    1
   112    51    50    1
   113   110   109    2
   114   113   114   ar
   115   145   142    1
   116    50    47    1
   117    47    46    1
   118   147   148    1
   119   147   143   am
   120   142   143    1
   121   142   141    1
   122   148   151    1
   123   148   149    1
   124   154   152   ar
   125   151   152    1
   126   143   144    2
   127   152   153   ar
   128   119   118    2
   129   149   150    2
   130   118   117    1
   131   118   125   am
   132   131   130    2
   133   127   128    2
   134   127   126    1
   135   126   125    1
   136   126   129    1
   137   117   120    1
   138   117   116    1
   139   120   121    1
   140   130   129    1
   141   130   132   am
   142   121   122    1
   143   122   124   ar
   144   122   123   ar
