@<TRIPOS>MOLECULE
tmp/4ft9A00.pdb
 146 136 0 0 0
SMALL
GASTEIGER

@<TRIPOS>ATOM
      1  N         18.3250   -9.0400   -0.0240 N.3    12  GLN12      -0.1245
      2  CA        19.1720   -9.6520    1.0140 C.3    12  GLN12       0.1566
      3  C         18.4940   -9.7610    2.3750 C.2    12  GLN12       0.2260
      4  O         17.6870   -8.9060    2.7540 O.2    12  GLN12      -0.2867
      5  CB        20.5470   -8.9600    1.1660 C.3    12  GLN12       0.0367
      6  CG        20.5690   -7.5240    1.6640 C.3    12  GLN12       0.0905
      7  CD        22.0010   -7.0510    1.7530 C.2    12  GLN12       0.2608
      8  OE1       22.5700   -6.5280    0.7860 O.2    12  GLN12      -0.2717
      9  NE2       22.6340   -7.2810    2.8940 N.am   12  GLN12      -0.0878
     10  N         18.3010   -9.4680    6.2870 N.3    14  LEU14      -0.1231
     11  CA        18.8280   -8.4980    7.2440 C.3    14  LEU14       0.1693
     12  C         18.8580   -9.0700    8.6630 C.2    14  LEU14       0.2592
     13  O         19.7230   -8.7050    9.4580 O.2    14  LEU14      -0.2718
     14  CB        17.9990   -7.1940    7.2190 C.3    14  LEU14       0.0284
     15  CG        17.9850   -6.3750    5.9220 C.3    14  LEU14       0.0019
     16  CD1       17.0320   -5.2150    6.0520 C.3    14  LEU14       0.0001
     17  CD2       19.3880   -5.8730    5.5490 C.3    14  LEU14       0.0001
     18  N         17.8890   -9.9200    8.9620 N.am   15  GLY15      -0.1957
     19  CA        17.7360  -10.5840   10.2470 C.3    15  GLY15       0.1869
     20  C         16.7990  -11.7660   10.1480 C.2    15  GLY15       0.2309
     21  O         16.0820  -11.9100    9.1540 O.2    15  GLY15      -0.2863
     22  N         13.6670  -10.8260    8.0570 N.3    20  VAL20      -0.1245
     23  CA        13.6150   -9.4330    7.6360 C.3    20  VAL20       0.1561
     24  C         14.4570   -9.3560    6.3840 C.2    20  VAL20       0.2260
     25  O         15.6360   -9.7100    6.4260 O.2    20  VAL20      -0.2867
     26  CB        14.0820   -8.4340    8.7480 C.3    20  VAL20       0.0252
     27  CG1       14.1920   -7.0040    8.2120 C.3    20  VAL20       0.0019
     28  CG2       13.1610   -8.4820    9.9620 C.3    20  VAL20       0.0019
     29  N         12.6980   -2.1730    4.6860 N.3    33  ALA33      -0.1245
     30  CA        12.8450   -3.4620    5.3440 C.3    33  ALA33       0.1562
     31  C         11.4780   -4.1550    5.3340 C.2    33  ALA33       0.2260
     32  O         10.4650   -3.5540    5.7190 O.2    33  ALA33      -0.2867
     33  CB        13.3610   -3.2880    6.7630 C.3    33  ALA33       0.0290
     34  N          9.4540   -7.2700    6.8210 N.3    35  LYS35      -0.1245
     35  CA         9.4010   -8.2970    7.8640 C.3    35  LYS35       0.1561
     36  C          8.3720   -9.3250    7.4100 C.2    35  LYS35       0.2260
     37  O          7.2030   -8.9750    7.1920 O.2    35  LYS35      -0.2867
     38  CB         9.0640   -7.6790    9.2390 C.3    35  LYS35       0.0271
     39  CG         9.0780   -8.6440   10.4150 C.3    35  LYS35       0.0035
     40  CD         8.9110   -7.8750   11.7270 C.3    35  LYS35       0.0206
     41  CE         8.5940   -8.7710   12.8970 C.3    35  LYS35       0.1093
     42  NZ         8.8410   -8.0840   14.2000 N.3    35  LYS35      -0.1314
     43  N          1.1800   -6.1150   16.7280 N.3    45  GLU45      -0.1245
     44  CA         2.3970   -5.4420   16.2600 C.3    45  GLU45       0.1567
     45  C          2.0620   -4.4260   15.1570 C.2    45  GLU45       0.2260
     46  O          2.6310   -3.3340   15.1480 O.2    45  GLU45      -0.2867
     47  CB         3.4240   -6.4560   15.7590 C.3    45  GLU45       0.0388
     48  CG         4.7460   -5.8110   15.3690 C.3    45  GLU45       0.1160
     49  CD         5.8430   -6.7670   14.9550 C.2    45  GLU45       0.3649
     50  OE1        5.7180   -7.9760   15.2480 O.co2  45  GLU45      -0.2457
     51  OE2        6.8400   -6.3040   14.3550 O.co2  45  GLU45      -0.2457
     52  N         11.4600    3.2890   14.3800 N.3    58  VAL58      -0.1245
     53  CA        11.3910    2.6960   13.0410 C.3    58  VAL58       0.1561
     54  C          9.9920    2.9550   12.4290 C.2    58  VAL58       0.2260
     55  O          8.9790    2.6610   13.0640 O.2    58  VAL58      -0.2867
     56  CB        11.7320    1.1860   13.0760 C.3    58  VAL58       0.0252
     57  CG1       11.2780    0.4940   11.7830 C.3    58  VAL58       0.0019
     58  CG2       13.2260    0.9780   13.3210 C.3    58  VAL58       0.0019
     59  N          8.6810   -1.7670    6.6840 N.3    74  LEU74      -0.1231
     60  CA         9.3330   -1.0010    7.7430 C.3    74  LEU74       0.1693
     61  C         10.5730   -0.2750    7.2570 C.2    74  LEU74       0.2592
     62  O         11.1840   -0.6640    6.2590 O.2    74  LEU74      -0.2718
     63  CB         9.7130   -1.9560    8.9020 C.3    74  LEU74       0.0284
     64  CG         8.5360   -2.7540    9.5480 C.3    74  LEU74       0.0019
     65  CD1        9.0240   -4.0440   10.1830 C.3    74  LEU74       0.0001
     66  CD2        7.7480   -1.9000   10.5290 C.3    74  LEU74       0.0001
     67  N         10.9400    0.7910    7.9830 N.am   75  GLU75      -0.1966
     68  CA        12.0920    1.6290    7.6820 C.3    75  GLU75       0.1733
     69  C         13.3870    0.8160    7.5510 C.2    75  GLU75       0.2616
     70  O         13.6480   -0.0540    8.3970 O.2    75  GLU75      -0.2715
     71  CB        12.2580    2.6690    8.7870 C.3    75  GLU75       0.0429
     72  CG        13.3090    3.7160    8.4750 C.3    75  GLU75       0.1163
     73  CD        13.4040    4.8140    9.5100 C.2    75  GLU75       0.3649
     74  OE1       12.5100    4.8990   10.3820 O.co2  75  GLU75      -0.2457
     75  OE2       14.3710    5.6030    9.4370 O.co2  75  GLU75      -0.2457
     76  N         14.1560    1.0700    6.4710 N.am   76  TYR76      -0.1960
     77  CA        15.4660    0.4450    6.2960 C.3    76  TYR76       0.1771
     78  C         16.5280    1.3320    6.9410 C.2    76  TYR76       0.2620
     79  O         16.6050    2.5280    6.6550 O.2    76  TYR76      -0.2715
     80  CB        15.8120    0.1480    4.8290 C.3    76  TYR76       0.0574
     81  CG        17.2470   -0.3010    4.6170 C.ar   76  TYR76      -0.0198
     82  CD1       17.7240   -1.4840    5.1840 C.ar   76  TYR76      -0.0009
     83  CD2       18.1150    0.4320    3.8130 C.ar   76  TYR76      -0.0009
     84  CE1       19.0350   -1.9170    4.9600 C.ar   76  TYR76       0.0417
     85  CE2       19.4130   -0.0020    3.5620 C.ar   76  TYR76       0.0417
     86  CZ        19.8760   -1.1700    4.1450 C.ar   76  TYR76       0.1957
     87  OH        21.1670   -1.5730    3.8820 O.3    76  TYR76      -0.2866
     88  N         17.2930    0.7510    7.8600 N.am   77  CYS77      -0.1954
     89  CA        18.3480    1.4370    8.6170 C.3    77  CYS77       0.1843
     90  C         19.6830    0.7970    8.2100 C.2    77  CYS77       0.2626
     91  O         20.0470   -0.2640    8.7160 O.2    77  CYS77      -0.2714
     92  CB        18.0770    1.3510   10.1260 C.3    77  CYS77       0.0997
     93  SG        16.4060    1.8810   10.6230 S.3    77  CYS77      -0.0797
     94  N         20.3610    1.3990    7.2120 N.am   78  SER78      -0.1936
     95  CA        21.6080    0.8860    6.6200 C.3    78  SER78       0.2055
     96  C         22.7960    0.7650    7.6160 C.2    78  SER78       0.2644
     97  O         23.7320    0.0190    7.3260 O.2    78  SER78      -0.2714
     98  CB        22.0280    1.7510    5.4420 C.3    78  SER78       0.2130
     99  OG        22.3800    3.0500    5.8850 O.3    78  SER78      -0.2179
    100  N         22.7310    1.4520    8.7620 N.am   79  GLY79      -0.1939
    101  CA        23.7720    1.4030    9.7930 C.3    79  GLY79       0.2014
    102  C         23.7890    0.1260   10.6110 C.2    79  GLY79       0.2639
    103  O         24.7490   -0.1430   11.3440 O.2    79  GLY79      -0.2714
    104  N         22.7290   -0.6530   10.4890 N.am   80  GLY80      -0.1939
    105  CA        22.5560   -1.9130   11.1970 C.3    80  GLY80       0.2014
    106  C         22.1770   -1.7140   12.6460 C.2    80  GLY80       0.2638
    107  O         21.6270   -0.6770   13.0160 O.2    80  GLY80      -0.2714
    108  N         22.4940   -2.7000   13.4780 N.am   81  GLU81      -0.1977
    109  CA        22.1620   -2.6840   14.8970 C.3    81  GLU81       0.1602
    110  C         23.2210   -1.9680   15.7170 C.2    81  GLU81       0.2287
    111  O         24.4050   -2.0430   15.3960 O.2    81  GLU81      -0.2864
    112  CB        21.9790   -4.1160   15.4360 C.3    81  GLU81       0.0415
    113  CG        21.1000   -4.9840   14.5540 C.3    81  GLU81       0.1163
    114  CD        20.7660   -6.3710   15.0630 C.2    81  GLU81       0.3649
    115  OE1       21.4610   -6.8790   15.9750 O.co2  81  GLU81      -0.2457
    116  OE2       19.7810   -6.9440   14.5480 O.co2  81  GLU81      -0.2457
    117  N         26.3730   -4.0200   17.0190 N.3    84  ASP84      -0.1239
    118  CA        27.6410   -4.1510   16.2890 C.3    84  ASP84       0.1674
    119  C         28.5260   -2.9120   16.3280 C.2    84  ASP84       0.2266
    120  O         29.6000   -2.9380   15.7360 O.2    84  ASP84      -0.2867
    121  CB        27.4170   -4.6050   14.8450 C.3    84  ASP84       0.1410
    122  CG        26.7950   -5.9890   14.8080 C.2    84  ASP84       0.3668
    123  OD1       27.3790   -6.9160   15.4080 O.co2  84  ASP84      -0.2456
    124  OD2       25.6760   -6.1190   14.2740 O.co2  84  ASP84      -0.2456
    125  N         18.3480    0.3460   15.9420 N.3   127  LEU127     -0.1245
    126  CA        18.9430    0.3870   14.6070 C.3   127  LEU127      0.1561
    127  C         19.4870    1.7460   14.2920 C.2   127  LEU127      0.2260
    128  O         19.0840    2.7270   14.9140 O.2   127  LEU127     -0.2867
    129  CB        17.9490   -0.0640   13.5100 C.3   127  LEU127      0.0270
    130  CG        17.3460   -1.4750   13.6790 C.3   127  LEU127      0.0019
    131  CD1       16.3490   -1.7700   12.5720 C.3   127  LEU127      0.0001
    132  CD2       18.4160   -2.5590   13.7080 C.3   127  LEU127      0.0001
    133  N         13.3650   -0.3740   17.2660 N.3   137  SER137     -0.1202
    134  CA        12.7320   -1.3230   16.3500 C.3   137  SER137      0.2020
    135  C         12.1050   -2.5230   17.0600 C.2   137  SER137      0.2618
    136  O         12.4200   -2.8210   18.2250 O.2   137  SER137     -0.2717
    137  CB        13.7420   -1.8240   15.3180 C.3   137  SER137      0.2103
    138  OG        14.8080   -2.5420   15.9120 O.3   137  SER137     -0.2182
    139  N         11.2120   -3.2250   16.3220 N.am  138  ASP138     -0.1973
    140  CA        10.5050   -4.4300   16.7260 C.3   138  ASP138      0.1709
    141  C          9.5490   -4.2220   17.9010 C.2   138  ASP138      0.2293
    142  O          9.9380   -4.3070   19.0690 O.2   138  ASP138     -0.2864
    143  CB        11.5130   -5.5620   17.0350 C.3   138  ASP138      0.1436
    144  CG        10.9170   -6.9450   16.9880 C.2   138  ASP138      0.3671
    145  OD1        9.6940   -7.0620   17.1360 O.co2 138  ASP138     -0.2456
    146  OD2       11.6870   -7.9140   16.8390 O.co2 138  ASP138     -0.2456
@<TRIPOS>BOND
     1     1     2    1
     2     8     7    2
     3     2     5    1
     4     2     3    1
     5     5     6    1
     6     6     7    1
     7     7     9   am
     8     3     4    2
     9    85    83   ar
    10    85    86   ar
    11    83    81   ar
    12    87    86    1
    13    86    84   ar
    14    81    80    1
    15    81    82   ar
    16    29    30    1
    17    80    77    1
    18    84    82   ar
    19    31    30    1
    20    31    32    2
    21    30    33    1
    22    98    99    1
    23    98    95    1
    24    17    15    1
    25    15    16    1
    26    15    14    1
    27    62    61    2
    28    10    11    1
    29    77    76    1
    30    77    78    1
    31    24    25    2
    32    24    23    1
    33    76    69   am
    34    95    94    1
    35    95    96    1
    36    79    78    2
    37    59    60    1
    38    34    35    1
    39    78    88   am
    40    37    36    2
    41    94    90   am
    42    14    11    1
    43    11    12    1
    44    61    60    1
    45    61    67   am
    46    97    96    2
    47    36    35    1
    48    69    68    1
    49    69    70    2
    50    96   100   am
    51    23    22    1
    52    23    26    1
    53    68    67    1
    54    68    71    1
    55    60    63    1
    56    88    89    1
    57    35    38    1
    58    90    89    1
    59    90    91    2
    60    27    26    1
    61    72    71    1
    62    72    73    1
    63    89    92    1
    64    12    18   am
    65    12    13    2
    66    26    28    1
    67   100   101    1
    68    63    64    1
    69    18    19    1
    70    21    20    2
    71    38    39    1
    72    75    73   ar
    73    73    74   ar
    74    64    65    1
    75    64    66    1
    76   101   102    1
    77    92    93    1
    78    20    19    1
    79    39    40    1
    80   104   102   am
    81   104   105    1
    82   102   103    2
    83   105   106    1
    84    40    41    1
    85    57    56    1
    86    54    53    1
    87    54    55    2
    88   131   130    1
    89   106   107    2
    90   106   108   am
    91    41    42    1
    92    53    56    1
    93    53    52    1
    94    56    58    1
    95   108   109    1
    96   129   130    1
    97   129   126    1
    98   130   132    1
    99   124   122   ar
   100   127   126    1
   101   127   128    2
   102    51    49   ar
   103   116   114   ar
   104   113   114    1
   105   113   112    1
   106   126   125    1
   107   122   121    1
   108   122   123   ar
   109   121   118    1
   110   109   112    1
   111   109   110    1
   112    49    50   ar
   113    49    48    1
   114   114   115   ar
   115    46    45    2
   116    45    44    1
   117   137   138    1
   118   137   134    1
   119    48    47    1
   120   111   110    2
   121   120   119    2
   122    47    44    1
   123    44    43    1
   124   118   119    1
   125   118   117    1
   126   139   140    1
   127   139   135   am
   128   134   135    1
   129   134   133    1
   130   140   143    1
   131   140   141    1
   132   146   144   ar
   133   144   143    1
   134   144   145   ar
   135   135   136    2
   136   141   142    2
