@<TRIPOS>MOLECULE
tmp/4ftaA00.pdb
 146 136 0 0 0
SMALL
GASTEIGER

@<TRIPOS>ATOM
      1  N         18.3840   -9.2330   -0.0230 N.3    11  GLN11      -0.1245
      2  CA        19.1910   -9.8930    1.0210 C.3    11  GLN11       0.1566
      3  C         18.4690   -9.9680    2.3780 C.2    11  GLN11       0.2260
      4  O         17.5260   -9.2110    2.6330 O.2    11  GLN11      -0.2867
      5  CB        20.5700   -9.2180    1.2020 C.3    11  GLN11       0.0367
      6  CG        20.5440   -7.7800    1.7110 C.3    11  GLN11       0.0905
      7  CD        21.9390   -7.2900    1.9630 C.2    11  GLN11       0.2608
      8  OE1       22.6020   -6.7420    1.0750 O.2    11  GLN11      -0.2717
      9  NE2       22.4260   -7.4970    3.1740 N.am   11  GLN11      -0.0878
     10  N         18.2570   -9.5140    6.4250 N.3    13  LEU13      -0.1231
     11  CA        18.6860   -8.5120    7.3950 C.3    13  LEU13       0.1693
     12  C         18.6770   -9.0700    8.8330 C.2    13  LEU13       0.2592
     13  O         19.4890   -8.6450    9.6570 O.2    13  LEU13      -0.2718
     14  CB        17.8000   -7.2510    7.3040 C.3    13  LEU13       0.0284
     15  CG        17.8420   -6.4560    6.0040 C.3    13  LEU13       0.0019
     16  CD1       16.8580   -5.3210    6.0570 C.3    13  LEU13       0.0001
     17  CD2       19.2530   -5.9380    5.6930 C.3    13  LEU13       0.0001
     18  N         17.7630   -9.9970    9.1050 N.am   14  GLY14      -0.1957
     19  CA        17.6160  -10.6410   10.4040 C.3    14  GLY14       0.1869
     20  C         16.5780  -11.7460   10.4190 C.2    14  GLY14       0.2309
     21  O         15.9460  -12.0260    9.3920 O.2    14  GLY14      -0.2863
     22  N         13.5370  -11.0080    8.2740 N.3    18  VAL18      -0.1245
     23  CA        13.5470   -9.6120    7.8210 C.3    18  VAL18       0.1561
     24  C         14.4060   -9.5290    6.5500 C.2    18  VAL18       0.2260
     25  O         15.5890   -9.8780    6.5820 O.2    18  VAL18      -0.2867
     26  CB        14.0140   -8.6050    8.9200 C.3    18  VAL18       0.0252
     27  CG1       14.0600   -7.1710    8.3840 C.3    18  VAL18       0.0019
     28  CG2       13.1260   -8.6800   10.1550 C.3    18  VAL18       0.0019
     29  N         12.5570   -2.4450    4.6340 N.3    31  ALA31      -0.1245
     30  CA        12.7750   -3.7320    5.2890 C.3    31  ALA31       0.1562
     31  C         11.4320   -4.4640    5.3400 C.2    31  ALA31       0.2260
     32  O         10.4060   -3.8620    5.6700 O.2    31  ALA31      -0.2867
     33  CB        13.3660   -3.5440    6.6770 C.3    31  ALA31       0.0290
     34  N          9.3300   -7.5250    6.9400 N.3    33  LYS33      -0.1245
     35  CA         9.2330   -8.5220    8.0060 C.3    33  LYS33       0.1561
     36  C          8.1820   -9.5510    7.5670 C.2    33  LYS33       0.2260
     37  O          7.0210   -9.1860    7.3510 O.2    33  LYS33      -0.2867
     38  CB         8.8900   -7.8500    9.3540 C.3    33  LYS33       0.0271
     39  CG         9.0140   -8.7610   10.5640 C.3    33  LYS33       0.0035
     40  CD         8.6800   -8.0000   11.8350 C.3    33  LYS33       0.0206
     41  CE         8.8820   -8.8530   13.0520 C.3    33  LYS33       0.1093
     42  NZ         8.9630   -8.0400   14.2900 N.3    33  LYS33      -0.1314
     43  N          1.1510   -5.9710   16.8590 N.3    40  GLU40      -0.1245
     44  CA         2.3470   -5.3470   16.2720 C.3    40  GLU40       0.1567
     45  C          1.9740   -4.4030   15.1200 C.2    40  GLU40       0.2260
     46  O          2.5800   -3.3380   14.9930 O.2    40  GLU40      -0.2867
     47  CB         3.3350   -6.4170   15.7730 C.3    40  GLU40       0.0388
     48  CG         4.6020   -5.8590   15.1310 C.3    40  GLU40       0.1160
     49  CD         5.7520   -6.8190   14.8840 C.2    40  GLU40       0.3649
     50  OE1        5.6060   -8.0330   15.1560 O.co2  40  GLU40      -0.2457
     51  OE2        6.8180   -6.3410   14.4360 O.co2  40  GLU40      -0.2457
     52  N         11.3280    3.2870   14.2140 N.3    53  VAL53      -0.1245
     53  CA        11.2810    2.6600   12.8860 C.3    53  VAL53       0.1561
     54  C          9.8960    2.9280   12.2500 C.2    53  VAL53       0.2260
     55  O          8.8660    2.6730   12.8750 O.2    53  VAL53      -0.2867
     56  CB        11.6070    1.1410   12.9660 C.3    53  VAL53       0.0252
     57  CG1       11.2220    0.4230   11.6770 C.3    53  VAL53       0.0019
     58  CG2       13.0800    0.9050   13.2930 C.3    53  VAL53       0.0019
     59  N          8.5380   -1.9780    6.6160 N.3    69  LEU69      -0.1231
     60  CA         9.1720   -1.1270    7.6150 C.3    69  LEU69       0.1693
     61  C         10.4220   -0.4360    7.1110 C.2    69  LEU69       0.2592
     62  O         10.9700   -0.7840    6.0610 O.2    69  LEU69      -0.2718
     63  CB         9.5100   -1.9710    8.8600 C.3    69  LEU69       0.0284
     64  CG         8.3310   -2.7270    9.4980 C.3    69  LEU69       0.0019
     65  CD1        8.7830   -4.0550   10.0590 C.3    69  LEU69       0.0001
     66  CD2        7.5870   -1.8630   10.5270 C.3    69  LEU69       0.0001
     67  N         10.8600    0.5690    7.8770 N.am   70  GLU70      -0.1966
     68  CA        12.0140    1.4050    7.5710 C.3    70  GLU70       0.1733
     69  C         13.3070    0.6220    7.4820 C.2    70  GLU70       0.2616
     70  O         13.6110   -0.2210    8.3530 O.2    70  GLU70      -0.2715
     71  CB        12.1630    2.4990    8.6270 C.3    70  GLU70       0.0429
     72  CG        13.0450    3.6670    8.2220 C.3    70  GLU70       0.1163
     73  CD        13.1730    4.7150    9.3100 C.2    70  GLU70       0.3649
     74  OE1       12.3620    4.6960   10.2670 O.co2  70  GLU70      -0.2457
     75  OE2       14.0940    5.5570    9.2050 O.co2  70  GLU70      -0.2457
     76  N         14.0580    0.9080    6.4040 N.am   71  TYR71      -0.1960
     77  CA        15.3720    0.3430    6.2130 C.3    71  TYR71       0.1771
     78  C         16.3660    1.2640    6.9000 C.2    71  TYR71       0.2620
     79  O         16.3150    2.4870    6.7440 O.2    71  TYR71      -0.2715
     80  CB        15.7280    0.1150    4.7380 C.3    71  TYR71       0.0574
     81  CG        17.1540   -0.3640    4.5390 C.ar   71  TYR71      -0.0198
     82  CD1       17.5970   -1.5600    5.1060 C.ar   71  TYR71      -0.0009
     83  CD2       18.0580    0.3720    3.7780 C.ar   71  TYR71      -0.0009
     84  CE1       18.9070   -2.0040    4.9280 C.ar   71  TYR71       0.0417
     85  CE2       19.3650   -0.0720    3.5770 C.ar   71  TYR71       0.0417
     86  CZ        19.7880   -1.2560    4.1630 C.ar   71  TYR71       0.1957
     87  OH        21.0750   -1.6990    3.9690 O.3    71  TYR71      -0.2866
     88  N         17.2150    0.6700    7.7230 N.am   72  CYS72      -0.1954
     89  CA        18.2260    1.3830    8.4860 C.3    72  CYS72       0.1843
     90  C         19.5690    0.7720    8.0930 C.2    72  CYS72       0.2626
     91  O         19.9010   -0.3370    8.5170 O.2    72  CYS72      -0.2714
     92  CB        17.9290    1.2850    9.9870 C.3    72  CYS72       0.0997
     93  SG        16.2720    1.8770   10.4630 S.3    72  CYS72      -0.0797
     94  N         20.2620    1.4420    7.1510 N.am   73  SER73      -0.1936
     95  CA        21.5140    0.9760    6.5310 C.3    73  SER73       0.2055
     96  C         22.6880    0.8150    7.5160 C.2    73  SER73       0.2644
     97  O         23.5620   -0.0150    7.2550 O.2    73  SER73      -0.2714
     98  CB        21.9180    1.8850    5.3730 C.3    73  SER73       0.2130
     99  OG        22.3100    3.1810    5.7930 O.3    73  SER73      -0.2179
    100  N         22.6780    1.5540    8.6350 N.am   74  GLY74      -0.1939
    101  CA        23.7100    1.4640    9.6750 C.3    74  GLY74       0.2014
    102  C         23.6520    0.2070   10.5300 C.2    74  GLY74       0.2639
    103  O         24.5660   -0.0570   11.3180 O.2    74  GLY74      -0.2714
    104  N         22.5830   -0.5680   10.3780 N.am   75  GLY75      -0.1939
    105  CA        22.3790   -1.8160   11.1040 C.3    75  GLY75       0.2014
    106  C         22.0220   -1.6240   12.5630 C.2    75  GLY75       0.2638
    107  O         21.4870   -0.5840   12.9410 O.2    75  GLY75      -0.2714
    108  N         22.3510   -2.6180   13.3900 N.am   76  GLU76      -0.1977
    109  CA        22.0500   -2.6290   14.8270 C.3    76  GLU76       0.1602
    110  C         23.1450   -1.9810   15.6490 C.2    76  GLU76       0.2287
    111  O         24.3290   -2.1970   15.3800 O.2    76  GLU76      -0.2864
    112  CB        21.8440   -4.0680   15.3500 C.3    76  GLU76       0.0415
    113  CG        20.9010   -4.9180   14.5190 C.3    76  GLU76       0.1163
    114  CD        20.7250   -6.3490   14.9820 C.2    76  GLU76       0.3649
    115  OE1       21.5320   -6.8270   15.8120 O.co2  76  GLU76      -0.2457
    116  OE2       19.7560   -6.9900   14.5200 O.co2  76  GLU76      -0.2457
    117  N         26.3040   -3.9220   16.9860 N.3    79  ASP79      -0.1239
    118  CA        27.5560   -4.0690   16.2330 C.3    79  ASP79       0.1674
    119  C         28.4360   -2.8300   16.2930 C.2    79  ASP79       0.2266
    120  O         29.5260   -2.8370   15.7300 O.2    79  ASP79      -0.2867
    121  CB        27.2780   -4.4850   14.7860 C.3    79  ASP79       0.1410
    122  CG        26.6300   -5.8600   14.7220 C.2    79  ASP79       0.3668
    123  OD1       27.1990   -6.8170   15.3000 O.co2  79  ASP79      -0.2456
    124  OD2       25.5250   -5.9630   14.1710 O.co2  79  ASP79      -0.2456
    125  N         18.2620    0.3570   15.8060 N.3   122  LEU122     -0.1245
    126  CA        18.8440    0.4280   14.4600 C.3   122  LEU122      0.1561
    127  C         19.3580    1.8220   14.1500 C.2   122  LEU122      0.2260
    128  O         18.9260    2.7930   14.7620 O.2   122  LEU122     -0.2867
    129  CB        17.8430   -0.0260   13.3810 C.3   122  LEU122      0.0270
    130  CG        17.1330   -1.3790   13.6300 C.3   122  LEU122      0.0019
    131  CD1       16.1740   -1.6940   12.5210 C.3   122  LEU122      0.0001
    132  CD2       18.1250   -2.5320   13.8180 C.3   122  LEU122      0.0001
    133  N         13.2520   -0.3010   17.2060 N.3   132  SER132     -0.1202
    134  CA        12.7600   -1.3480   16.3240 C.3   132  SER132      0.2020
    135  C         11.9940   -2.4560   17.0450 C.2   132  SER132      0.2618
    136  O         12.2460   -2.7200   18.2270 O.2   132  SER132     -0.2717
    137  CB        13.9580   -1.9860   15.6200 C.3   132  SER132      0.2103
    138  OG        13.5540   -2.7570   14.5050 O.3   132  SER132     -0.2182
    139  N         11.1320   -3.1620   16.2840 N.am  133  ASP133     -0.1973
    140  CA        10.4060   -4.3720   16.6790 C.3   133  ASP133      0.1709
    141  C          9.3910   -4.1430   17.8050 C.2   133  ASP133      0.2293
    142  O          9.7250   -4.1910   18.9980 O.2   133  ASP133     -0.2864
    143  CB        11.4100   -5.4870   17.0620 C.3   133  ASP133      0.1436
    144  CG        10.8450   -6.8810   17.2000 C.2   133  ASP133      0.3671
    145  OD1        9.6130   -7.0170   17.2660 O.co2 133  ASP133     -0.2456
    146  OD2       11.6440   -7.8330   17.2940 O.co2 133  ASP133     -0.2456
@<TRIPOS>BOND
     1     1     2    1
     2     2     5    1
     3     2     3    1
     4     8     7    2
     5     5     6    1
     6     6     7    1
     7     7     9   am
     8     3     4    2
     9    85    83   ar
    10    85    86   ar
    11    83    81   ar
    12    87    86    1
    13    86    84   ar
    14    81    80    1
    15    81    82   ar
    16    29    30    1
    17    80    77    1
    18    84    82   ar
    19    30    31    1
    20    30    33    1
    21    31    32    2
    22    98    99    1
    23    98    95    1
    24    17    15    1
    25    15    16    1
    26    15    14    1
    27    62    61    2
    28    77    76    1
    29    77    78    1
    30    76    69   am
    31    10    11    1
    32    95    94    1
    33    95    96    1
    34    24    25    2
    35    24    23    1
    36    59    60    1
    37    79    78    2
    38    78    88   am
    39    34    35    1
    40    61    60    1
    41    61    67   am
    42    94    90   am
    43    97    96    2
    44    14    11    1
    45    37    36    2
    46    11    12    1
    47    69    68    1
    48    69    70    2
    49    96   100   am
    50    36    35    1
    51    68    67    1
    52    68    71    1
    53    60    63    1
    54    88    89    1
    55    23    22    1
    56    23    26    1
    57    35    38    1
    58    90    89    1
    59    90    91    2
    60    72    71    1
    61    72    73    1
    62    27    26    1
    63    89    92    1
    64   100   101    1
    65    12    18   am
    66    12    13    2
    67    63    64    1
    68    26    28    1
    69    18    19    1
    70    75    73   ar
    71    73    74   ar
    72    38    39    1
    73    21    20    2
    74    64    65    1
    75    64    66    1
    76   101   102    1
    77    92    93    1
    78   104   102   am
    79   104   105    1
    80    19    20    1
    81   102   103    2
    82    39    40    1
    83   105   106    1
    84    57    56    1
    85    40    41    1
    86    54    55    2
    87    54    53    1
    88   131   130    1
    89   106   107    2
    90   106   108   am
    91    53    56    1
    92    53    52    1
    93    56    58    1
    94    41    42    1
    95   129   130    1
    96   129   126    1
    97   108   109    1
    98   130   132    1
    99   127   126    1
   100   127   128    2
   101   124   122   ar
   102    51    49   ar
   103   126   125    1
   104   138   137    1
   105   113   114    1
   106   113   112    1
   107   116   114   ar
   108   122   121    1
   109   122   123   ar
   110   121   118    1
   111   109   112    1
   112   109   110    1
   113    49    48    1
   114    49    50   ar
   115   114   115   ar
   116    46    45    2
   117    45    44    1
   118    48    47    1
   119   111   110    2
   120   137   134    1
   121   120   119    2
   122    47    44    1
   123   118   119    1
   124   118   117    1
   125    44    43    1
   126   139   140    1
   127   139   135   am
   128   134   135    1
   129   134   133    1
   130   140   143    1
   131   140   141    1
   132   135   136    2
   133   143   144    1
   134   144   145   ar
   135   144   146   ar
   136   141   142    2
