@<TRIPOS>MOLECULE
tmp/4ftcA00.pdb
 146 136 0 0 0
SMALL
GASTEIGER

@<TRIPOS>ATOM
      1  N         18.3680   -9.2630    0.1020 N.3    12  GLN12      -0.1245
      2  CA        19.1730   -9.9180    1.1480 C.3    12  GLN12       0.1566
      3  C         18.4280  -10.0280    2.4930 C.2    12  GLN12       0.2260
      4  O         17.5330   -9.2290    2.7800 O.2    12  GLN12      -0.2867
      5  CB        20.5500   -9.2340    1.3450 C.3    12  GLN12       0.0367
      6  CG        20.5550   -7.8990    2.0870 C.3    12  GLN12       0.0905
      7  CD        21.8990   -7.6280    2.7250 C.2    12  GLN12       0.2608
      8  OE1       22.5760   -6.6470    2.4050 O.2    12  GLN12      -0.2717
      9  NE2       22.3190   -8.4870    3.6480 N.am   12  GLN12      -0.0878
     10  N         18.1520   -9.6090    6.4130 N.3    14  LEU14      -0.1231
     11  CA        18.6610   -8.6540    7.3950 C.3    14  LEU14       0.1693
     12  C         18.7080   -9.2380    8.8200 C.2    14  LEU14       0.2592
     13  O         19.6150   -8.9020    9.5840 O.2    14  LEU14      -0.2718
     14  CB        17.8260   -7.3590    7.3770 C.3    14  LEU14       0.0284
     15  CG        17.8030   -6.5700    6.0620 C.3    14  LEU14       0.0019
     16  CD1       16.8490   -5.4000    6.1550 C.3    14  LEU14       0.0001
     17  CD2       19.2080   -6.1020    5.6530 C.3    14  LEU14       0.0001
     18  N         17.7420  -10.0890    9.1550 N.am   15  GLY15      -0.1957
     19  CA        17.6480  -10.7310   10.4610 C.3    15  GLY15       0.1869
     20  C         16.6820  -11.8970   10.4890 C.2    15  GLY15       0.2309
     21  O         15.9410  -12.1240    9.5310 O.2    15  GLY15      -0.2863
     22  N         13.3610  -11.0550    8.2380 N.3    18  VAL18      -0.1245
     23  CA        13.4020   -9.6570    7.8170 C.3    18  VAL18       0.1561
     24  C         14.3100   -9.5970    6.5920 C.2    18  VAL18       0.2260
     25  O         15.4710   -9.9980    6.6750 O.2    18  VAL18      -0.2867
     26  CB        13.8470   -8.6770    8.9420 C.3    18  VAL18       0.0252
     27  CG1       13.9280   -7.2410    8.4230 C.3    18  VAL18       0.0019
     28  CG2       12.9150   -8.7530   10.1450 C.3    18  VAL18       0.0019
     29  N         12.6300   -2.3850    4.6270 N.3    31  ALA31      -0.1245
     30  CA        12.7890   -3.6820    5.2820 C.3    31  ALA31       0.1562
     31  C         11.4280   -4.3670    5.3280 C.2    31  ALA31       0.2260
     32  O         10.4450   -3.7620    5.7640 O.2    31  ALA31      -0.2867
     33  CB        13.3630   -3.5170    6.6820 C.3    31  ALA31       0.0290
     34  N          9.2590   -7.4040    6.8310 N.3    33  LYS33      -0.1245
     35  CA         9.1390   -8.4050    7.8860 C.3    33  LYS33       0.1561
     36  C          8.0910   -9.4270    7.4400 C.2    33  LYS33       0.2260
     37  O          6.9320   -9.0730    7.2050 O.2    33  LYS33      -0.2867
     38  CB         8.7830   -7.7520    9.2390 C.3    33  LYS33       0.0271
     39  CG         8.8690   -8.6950   10.4290 C.3    33  LYS33       0.0035
     40  CD         8.7320   -7.9340   11.7400 C.3    33  LYS33       0.0206
     41  CE         8.7750   -8.8530   12.9300 C.3    33  LYS33       0.1093
     42  NZ         8.8000   -8.0990   14.2090 N.3    33  LYS33      -0.1314
     43  N          1.0500   -6.0000   16.7440 N.3    42  GLU42      -0.1245
     44  CA         2.2520   -5.3500   16.1940 C.3    42  GLU42       0.1567
     45  C          1.8900   -4.3400   15.0930 C.2    42  GLU42       0.2260
     46  O          2.4120   -3.2270   15.1080 O.2    42  GLU42      -0.2867
     47  CB         3.2490   -6.3880   15.6570 C.3    42  GLU42       0.0388
     48  CG         4.5520   -5.7840   15.1460 C.3    42  GLU42       0.1160
     49  CD         5.6770   -6.7560   14.8500 C.2    42  GLU42       0.3649
     50  OE1        5.5450   -7.9540   15.1930 O.co2  42  GLU42      -0.2457
     51  OE2        6.7190   -6.3010   14.3260 O.co2  42  GLU42      -0.2457
     52  N         11.3530    3.2540   14.2520 N.3    55  VAL55      -0.1245
     53  CA        11.3220    2.6550   12.9110 C.3    55  VAL55       0.1561
     54  C          9.9630    2.9430   12.2470 C.2    55  VAL55       0.2260
     55  O          8.9200    2.6290   12.8180 O.2    55  VAL55      -0.2867
     56  CB        11.6430    1.1350   12.9410 C.3    55  VAL55       0.0252
     57  CG1       11.2180    0.4540   11.6360 C.3    55  VAL55       0.0019
     58  CG2       13.1250    0.9050   13.2060 C.3    55  VAL55       0.0019
     59  N          8.6080   -1.8690    6.5930 N.3    71  LEU71      -0.1231
     60  CA         9.2340   -1.0550    7.6300 C.3    71  LEU71       0.1693
     61  C         10.4940   -0.3510    7.1520 C.2    71  LEU71       0.2592
     62  O         11.0710   -0.7100    6.1190 O.2    71  LEU71      -0.2718
     63  CB         9.5670   -1.9580    8.8350 C.3    71  LEU71       0.0284
     64  CG         8.3810   -2.7240    9.4630 C.3    71  LEU71       0.0019
     65  CD1        8.8430   -4.0390   10.0700 C.3    71  LEU71       0.0001
     66  CD2        7.6360   -1.8640   10.4750 C.3    71  LEU71       0.0001
     67  N         10.9170    0.6670    7.9130 N.am   72  GLU72      -0.1966
     68  CA        12.0980    1.4590    7.6030 C.3    72  GLU72       0.1733
     69  C         13.3760    0.6110    7.5110 C.2    72  GLU72       0.2616
     70  O         13.6320   -0.2320    8.3780 O.2    72  GLU72      -0.2715
     71  CB        12.2740    2.5440    8.6610 C.3    72  GLU72       0.0429
     72  CG        13.2630    3.6320    8.2880 C.3    72  GLU72       0.1163
     73  CD        13.3210    4.7740    9.2830 C.2    72  GLU72       0.3649
     74  OE1       12.4310    4.8590   10.1620 O.co2  72  GLU72      -0.2457
     75  OE2       14.2740    5.5790    9.1880 O.co2  72  GLU72      -0.2457
     76  N         14.1530    0.8220    6.4330 N.am   73  TYR73      -0.1960
     77  CA        15.4540    0.1850    6.2810 C.3    73  TYR73       0.1771
     78  C         16.4680    1.1220    6.9040 C.2    73  TYR73       0.2620
     79  O         16.4480    2.3260    6.6320 O.2    73  TYR73      -0.2715
     80  CB        15.8010   -0.1570    4.8130 C.3    73  TYR73       0.0574
     81  CG        17.2440   -0.5780    4.6140 C.ar   73  TYR73      -0.0198
     82  CD1       17.7370   -1.7490    5.1860 C.ar   73  TYR73      -0.0009
     83  CD2       18.1220    0.2020    3.8650 C.ar   73  TYR73      -0.0009
     84  CE1       19.0660   -2.1350    5.0130 C.ar   73  TYR73       0.0417
     85  CE2       19.4490   -0.1840    3.6690 C.ar   73  TYR73       0.0417
     86  CZ        19.9180   -1.3510    4.2490 C.ar   73  TYR73       0.1957
     87  OH        21.2290   -1.7270    4.0720 O.3    73  TYR73      -0.2866
     88  N         17.3040    0.5860    7.7910 N.am   74  CYS74      -0.1954
     89  CA        18.3070    1.3540    8.5170 C.3    74  CYS74       0.1843
     90  C         19.6670    0.7830    8.1350 C.2    74  CYS74       0.2626
     91  O         20.0300   -0.3070    8.5850 O.2    74  CYS74      -0.2714
     92  CB        18.0380    1.2940   10.0250 C.3    74  CYS74       0.0997
     93  SG        16.3760    1.8440   10.5130 S.3    74  CYS74      -0.0797
     94  N         20.3730    1.4820    7.2200 N.am   75  SER75      -0.1936
     95  CA        21.6380    1.0430    6.6170 C.3    75  SER75       0.2055
     96  C         22.8150    0.9580    7.6050 C.2    75  SER75       0.2644
     97  O         23.7830    0.2550    7.3160 O.2    75  SER75      -0.2714
     98  CB        22.0170    1.9300    5.4330 C.3    75  SER75       0.2130
     99  OG        22.2140    3.2860    5.7950 O.3    75  SER75      -0.2179
    100  N         22.7080    1.6160    8.7590 N.am   76  GLY76      -0.1939
    101  CA        23.7410    1.5630    9.7910 C.3    76  GLY76       0.2014
    102  C         23.7160    0.2870   10.6160 C.2    76  GLY76       0.2639
    103  O         24.6250    0.0450   11.4120 O.2    76  GLY76      -0.2714
    104  N         22.6810   -0.5230   10.4330 N.am   77  GLY77      -0.1939
    105  CA        22.5070   -1.7880   11.1390 C.3    77  GLY77       0.2014
    106  C         22.1460   -1.6090   12.6030 C.2    77  GLY77       0.2638
    107  O         21.6350   -0.5650   12.9980 O.2    77  GLY77      -0.2714
    108  N         22.4450   -2.6150   13.4170 N.am   78  GLU78      -0.1977
    109  CA        22.1130   -2.6280   14.8390 C.3    78  GLU78       0.1602
    110  C         23.1510   -1.9230   15.6820 C.2    78  GLU78       0.2287
    111  O         24.3450   -2.0600   15.4310 O.2    78  GLU78      -0.2864
    112  CB        21.9800   -4.0710   15.3530 C.3    78  GLU78       0.0415
    113  CG        20.9690   -4.9330   14.6180 C.3    78  GLU78       0.1163
    114  CD        20.9660   -6.3850   15.0510 C.2    78  GLU78       0.3649
    115  OE1       21.6350   -6.7150   16.0580 O.co2  78  GLU78      -0.2457
    116  OE2       20.2780   -7.1930   14.3910 O.co2  78  GLU78      -0.2457
    117  N         26.1480   -4.0050   17.0050 N.3    81  ASP81      -0.1239
    118  CA        27.4160   -4.1550   16.2720 C.3    81  ASP81       0.1674
    119  C         28.3470   -2.9420   16.3690 C.2    81  ASP81       0.2266
    120  O         29.4590   -3.0130   15.8610 O.2    81  ASP81      -0.2867
    121  CB        27.1570   -4.5390   14.8140 C.3    81  ASP81       0.1410
    122  CG        26.4810   -5.8970   14.7290 C.2    81  ASP81       0.3668
    123  OD1       26.9730   -6.8470   15.3750 O.co2  81  ASP81      -0.2456
    124  OD2       25.4200   -5.9870   14.0960 O.co2  81  ASP81      -0.2456
    125  N         18.1650    0.3170   15.9120 N.3   124  LEU124     -0.1245
    126  CA        18.7930    0.3720   14.5840 C.3   124  LEU124      0.1561
    127  C         19.3220    1.7550   14.2660 C.2   124  LEU124      0.2260
    128  O         18.9170    2.7350   14.8890 O.2   124  LEU124     -0.2867
    129  CB        17.8330   -0.1030   13.4780 C.3   124  LEU124      0.0270
    130  CG        17.1870   -1.4770   13.6830 C.3   124  LEU124      0.0019
    131  CD1       16.1650   -1.7490   12.6030 C.3   124  LEU124      0.0001
    132  CD2       18.2290   -2.6030   13.7180 C.3   124  LEU124      0.0001
    133  N         13.1500   -0.3560   17.2050 N.3   134  SER134     -0.1202
    134  CA        12.5580   -1.3470   16.3050 C.3   134  SER134      0.2020
    135  C         11.9140   -2.5230   17.0380 C.2   134  SER134      0.2618
    136  O         12.2310   -2.8000   18.2090 O.2   134  SER134     -0.2717
    137  CB        13.6170   -1.8880   15.3450 C.3   134  SER134      0.2103
    138  OG        14.4510   -2.8630   15.9480 O.3   134  SER134     -0.2182
    139  N         11.0260   -3.2440   16.3050 N.am  135  ASP135     -0.1973
    140  CA        10.3030   -4.4520   16.7050 C.3   135  ASP135      0.1709
    141  C          9.2960   -4.2110   17.8340 C.2   135  ASP135      0.2293
    142  O          9.6410   -4.2880   19.0190 O.2   135  ASP135     -0.2864
    143  CB        11.3000   -5.5730   17.0880 C.3   135  ASP135      0.1436
    144  CG        10.6820   -6.9590   17.1400 C.2   135  ASP135      0.3671
    145  OD1        9.4400   -7.0510   17.2010 O.co2 135  ASP135     -0.2456
    146  OD2       11.4420   -7.9480   17.0920 O.co2 135  ASP135     -0.2456
@<TRIPOS>BOND
     1     1     2    1
     2     2     5    1
     3     2     3    1
     4     5     6    1
     5     6     7    1
     6     8     7    2
     7     3     4    2
     8     7     9   am
     9    85    83   ar
    10    85    86   ar
    11    83    81   ar
    12    87    86    1
    13    86    84   ar
    14    81    80    1
    15    81    82   ar
    16    29    30    1
    17    80    77    1
    18    84    82   ar
    19    30    31    1
    20    30    33    1
    21    31    32    2
    22    98    99    1
    23    98    95    1
    24    17    15    1
    25    15    16    1
    26    15    14    1
    27    62    61    2
    28    77    76    1
    29    77    78    1
    30    10    11    1
    31    76    69   am
    32    24    25    2
    33    24    23    1
    34    59    60    1
    35    95    94    1
    36    95    96    1
    37    79    78    2
    38    34    35    1
    39    78    88   am
    40    61    60    1
    41    61    67   am
    42    37    36    2
    43    94    90   am
    44    97    96    2
    45    14    11    1
    46    11    12    1
    47    36    35    1
    48    69    68    1
    49    69    70    2
    50    68    67    1
    51    68    71    1
    52    96   100   am
    53    60    63    1
    54    88    89    1
    55    23    22    1
    56    23    26    1
    57    35    38    1
    58    90    89    1
    59    90    91    2
    60    72    71    1
    61    72    73    1
    62    27    26    1
    63    89    92    1
    64   100   101    1
    65    12    18   am
    66    12    13    2
    67    63    64    1
    68    26    28    1
    69    18    19    1
    70    75    73   ar
    71    38    39    1
    72    73    74   ar
    73    64    65    1
    74    64    66    1
    75    21    20    2
    76   101   102    1
    77    92    93    1
    78    39    40    1
    79   104   102   am
    80   104   105    1
    81    19    20    1
    82   102   103    2
    83   105   106    1
    84    57    56    1
    85    40    41    1
    86    54    55    2
    87    54    53    1
    88   131   130    1
    89   106   107    2
    90   106   108   am
    91    53    56    1
    92    53    52    1
    93    41    42    1
    94    56    58    1
    95   108   109    1
    96   129   130    1
    97   129   126    1
    98   130   132    1
    99   124   122   ar
   100   127   126    1
   101   127   128    2
   102    51    49   ar
   103   116   114   ar
   104   126   125    1
   105   113   114    1
   106   113   112    1
   107   122   121    1
   108   122   123   ar
   109   121   118    1
   110   109   112    1
   111   109   110    1
   112    49    48    1
   113    49    50   ar
   114   114   115   ar
   115    45    46    2
   116    45    44    1
   117    48    47    1
   118   137   138    1
   119   137   134    1
   120   111   110    2
   121    47    44    1
   122   120   119    2
   123    44    43    1
   124   118   119    1
   125   118   117    1
   126   139   140    1
   127   139   135   am
   128   134   135    1
   129   134   133    1
   130   140   143    1
   131   140   141    1
   132   135   136    2
   133   143   144    1
   134   146   144   ar
   135   144   145   ar
   136   141   142    2
