@<TRIPOS>MOLECULE
tmp/4fteB00.pdb
 69 66 0 0 0
SMALL
GASTEIGER

@<TRIPOS>ATOM
      1  N         64.4450   42.4170  134.6190 N.3   104  SER104     -0.1217
      2  CA        63.2910   41.5740  134.3750 C.3   104  SER104      0.1889
      3  C         61.9440   42.2950  134.4670 C.2   104  SER104      0.2288
      4  O         60.9140   41.7000  134.1760 O.2   104  SER104     -0.2866
      5  CB        63.3170   40.3370  135.2890 C.3   104  SER104      0.2089
      6  OG        63.4560   40.6680  136.6580 O.3   104  SER104     -0.2183
      7  N         59.0220   40.0590  134.3900 N.3   206  GLY206     -0.1210
      8  CA        59.7360   39.3530  135.4340 C.3   206  GLY206      0.1956
      9  C         60.1990   37.9330  135.2300 C.2   206  GLY206      0.2612
     10  O         60.7470   37.3500  136.1640 O.2   206  GLY206     -0.2717
     11  N         60.0140   37.3680  134.0420 N.am  207  ILE207     -0.1965
     12  CA        60.4230   35.9830  133.8440 C.3   207  ILE207      0.1727
     13  C         61.8790   35.8140  133.4760 C.2   207  ILE207      0.2616
     14  O         62.3460   36.3760  132.4840 O.2   207  ILE207     -0.2715
     15  CB        59.5550   35.2980  132.7920 C.3   207  ILE207      0.0290
     16  CG1       58.0980   35.3340  133.2490 C.3   207  ILE207      0.0022
     17  CG2       59.9850   33.8600  132.6300 C.3   207  ILE207      0.0023
     18  CD1       57.1170   34.9900  132.1790 C.3   207  ILE207      0.0001
     19  N         62.5820   35.0360  134.2960 N.am  208  GLN208     -0.1963
     20  CA        63.9970   34.7660  134.0950 C.3   208  GLN208      0.1733
     21  C         64.3070   33.2740  134.0860 C.2   208  GLN208      0.2617
     22  O         65.2780   32.8460  133.4520 O.2   208  GLN208     -0.2715
     23  CB        64.8370   35.4650  135.1680 C.3   208  GLN208      0.0408
     24  CG        64.8490   36.9690  135.0080 C.3   208  GLN208      0.0908
     25  CD        65.4560   37.4000  133.6930 C.2   208  GLN208      0.2608
     26  OE1       64.9500   38.3120  133.0290 O.2   208  GLN208     -0.2717
     27  NE2       66.5520   36.7520  133.3090 N.am  208  GLN208     -0.0878
     28  N         63.5030   32.4800  134.7910 N.am  209  THR209     -0.1951
     29  CA        63.7170   31.0310  134.8100 C.3   209  THR209      0.1897
     30  C         62.4070   30.2820  134.9660 C.2   209  THR209      0.2313
     31  O         61.4620   30.7840  135.5890 O.2   209  THR209     -0.2863
     32  CB        64.6620   30.5970  135.9390 C.3   209  THR209      0.1794
     33  OG1       64.0800   30.9240  137.2060 O.3   209  THR209     -0.2208
     34  CG2       66.0060   31.2940  135.7980 C.3   209  THR209      0.0378
     35  N         60.3300   28.9730  137.8110 N.3   212  PRO212     -0.2102
     36  CA        60.8100   30.2220  138.4040 C.3   212  PRO212      0.1504
     37  C         61.5760   30.0810  139.7210 C.2   212  PRO212      0.2575
     38  O         61.7170   28.9860  140.2810 O.2   212  PRO212     -0.2718
     39  CB        59.5320   31.0470  138.5600 C.3   212  PRO212      0.0282
     40  CG        58.4770   30.0040  138.7460 C.3   212  PRO212      0.0208
     41  CD        58.8600   28.9690  137.7150 C.3   212  PRO212      0.0893
     42  N         62.0720   31.2160  140.2000 N.am  213  ALA213     -0.1980
     43  CA        62.8150   31.2580  141.4350 C.3   213  ALA213      0.1597
     44  C         61.9230   30.7410  142.5490 C.2   213  ALA213      0.2287
     45  O         60.7480   31.0910  142.6130 O.2   213  ALA213     -0.2864
     46  CB        63.2280   32.6680  141.7120 C.3   213  ALA213      0.0319
     47  N         69.3660   33.3500  132.3770 N.3   229  GLY229     -0.1210
     48  CA        70.4940   34.0230  133.0050 C.3   229  GLY229      0.1956
     49  C         70.2520   35.4020  133.5990 C.2   229  GLY229      0.2612
     50  O         69.1560   35.7060  134.0940 O.2   229  GLY229     -0.2717
     51  N         71.2920   36.2360  133.5570 N.am  230  ALA230     -0.1965
     52  CA        71.2320   37.5930  134.0930 C.3   230  ALA230      0.1728
     53  C         70.1470   38.4090  133.4230 C.2   230  ALA230      0.2616
     54  O         70.1000   38.5190  132.1970 O.2   230  ALA230     -0.2715
     55  CB        72.5790   38.2840  133.9290 C.3   230  ALA230      0.0334
     56  N         69.2710   38.9800  134.2400 N.am  231  GLU231     -0.1963
     57  CA        68.1800   39.7920  133.7250 C.3   231  GLU231      0.1733
     58  C         68.7330   40.9050  132.8490 C.2   231  GLU231      0.2616
     59  O         68.0520   41.4130  131.9590 O.2   231  GLU231     -0.2715
     60  CB        67.4050   40.4120  134.8780 C.3   231  GLU231      0.0429
     61  CG        68.2090   41.4310  135.6550 C.3   231  GLU231      0.1163
     62  CD        67.3870   42.1220  136.7160 C.2   231  GLU231      0.3649
     63  OE1       67.9670   42.9020  137.4910 O.co2 231  GLU231     -0.2457
     64  OE2       66.1620   41.8900  136.7760 O.co2 231  GLU231     -0.2457
     65  N         69.9790   41.2760  133.1150 N.am  232  ALA232     -0.1977
     66  CA        70.6330   42.3450  132.3860 C.3   232  ALA232      0.1597
     67  C         71.0880   41.9660  130.9810 C.2   232  ALA232      0.2287
     68  O         71.4260   42.8430  130.1880 O.2   232  ALA232     -0.2864
     69  CB        71.8100   42.8570  133.1940 C.3   232  ALA232      0.0319
@<TRIPOS>BOND
     1    68    67    2
     2    67    66    1
     3    59    58    2
     4    18    16    1
     5    54    53    2
     6    47    48    1
     7    66    65    1
     8    66    69    1
     9    14    13    2
    10    17    15    1
    11    15    16    1
    12    15    12    1
    13    58    65   am
    14    58    57    1
    15    48    49    1
    16    26    25    2
    17    27    25   am
    18    53    52    1
    19    53    56   am
    20    22    21    2
    21    13    12    1
    22    13    19   am
    23    51    49   am
    24    51    52    1
    25    49    50    2
    26    25    24    1
    27    57    56    1
    28    57    60    1
    29    12    11    1
    30    55    52    1
    31    11     9   am
    32    21    20    1
    33    21    28   am
    34    20    19    1
    35    20    23    1
    36     4     3    2
    37     2     3    1
    38     2     1    1
    39     2     5    1
    40     7     8    1
    41    28    29    1
    42    29    30    1
    43    29    32    1
    44    60    61    1
    45    30    31    2
    46    24    23    1
    47     9     8    1
    48     9    10    2
    49     5     6    1
    50    61    62    1
    51    34    32    1
    52    32    33    1
    53    62    64   ar
    54    62    63   ar
    55    41    35    1
    56    41    40    1
    57    35    36    1
    58    36    39    1
    59    36    37    1
    60    39    40    1
    61    37    42   am
    62    37    38    2
    63    42    43    1
    64    43    46    1
    65    43    44    1
    66    44    45    2
