@<TRIPOS>MOLECULE
tmp/4ftgB00.pdb
 146 142 0 0 0
SMALL
GASTEIGER

@<TRIPOS>ATOM
      1  N         59.3270   36.6050   32.7420 N.3    37  GLU37      -0.1231
      2  CA        59.7170   35.2220   33.0350 C.3    37  GLU37       0.1699
      3  C         58.5880   34.1690   32.9720 C.2    37  GLU37       0.2592
      4  O         58.8290   33.0170   32.5800 O.2    37  GLU37      -0.2718
      5  CB        60.4620   35.1510   34.3640 C.3    37  GLU37       0.0402
      6  CG        61.6960   36.0610   34.4080 C.3    37  GLU37       0.1161
      7  CD        62.8450   35.5390   33.5420 C.2    37  GLU37       0.3649
      8  OE1       63.0980   34.3190   33.5730 O.co2  37  GLU37      -0.2457
      9  OE2       63.4870   36.3380   32.8190 O.co2  37  GLU37      -0.2457
     10  N         57.3630   34.5480   33.3310 N.am   38  PHE38      -0.1963
     11  CA        56.2810   33.5630   33.3380 C.3    38  PHE38       0.1756
     12  C         54.9990   33.9680   32.5870 C.2    38  PHE38       0.2461
     13  O         53.9060   33.9230   33.1630 O.2    38  PHE38      -0.2730
     14  CB        55.9050   33.2260   34.7750 C.3    38  PHE38       0.0574
     15  CG        57.0670   32.9370   35.6590 C.ar   38  PHE38      -0.0200
     16  CD1       57.8100   31.7830   35.4940 C.ar   38  PHE38      -0.0042
     17  CD2       57.3910   33.7980   36.6900 C.ar   38  PHE38      -0.0042
     18  CE1       58.8730   31.5200   36.3190 C.ar   38  PHE38      -0.0003
     19  CE2       58.4420   33.5390   37.5130 C.ar   38  PHE38      -0.0003
     20  CZ        59.1900   32.4030   37.3330 C.ar   38  PHE38      -0.0000
     21  N         55.1190   34.3170   31.2960 N.am   39  PRO39      -0.2716
     22  CA        53.9980   34.9180   30.5400 C.3    39  PRO39       0.1536
     23  C         52.7840   33.9900   30.3490 C.2    39  PRO39       0.2599
     24  O         51.6310   34.4230   30.4810 O.2    39  PRO39      -0.2715
     25  CB        54.6270   35.2390   29.1880 C.3    39  PRO39       0.0310
     26  CG        55.7140   34.1770   29.0350 C.3    39  PRO39       0.0237
     27  CD        56.2550   33.9460   30.4260 C.3    39  PRO39       0.0939
     28  N         53.0510   32.7260   30.0390 N.am   40  GLY40      -0.1941
     29  CA        52.0070   31.7360   29.8910 C.3    40  GLY40       0.2014
     30  C         51.3000   31.4880   31.2020 C.2    40  GLY40       0.2638
     31  O         50.1030   31.2160   31.2210 O.2    40  GLY40      -0.2714
     32  N         52.0320   31.5700   32.3070 N.am   41  PHE41      -0.1973
     33  CA        51.3830   31.4120   33.5900 C.3    41  PHE41       0.1639
     34  C         50.3470   32.5030   33.8110 C.2    41  PHE41       0.2290
     35  O         49.2320   32.2140   34.2450 O.2    41  PHE41      -0.2864
     36  CB        52.3540   31.4100   34.7700 C.3    41  PHE41       0.0560
     37  CG        51.6460   31.4430   36.0970 C.ar   41  PHE41      -0.0200
     38  CD1       50.9990   30.3030   36.5780 C.ar   41  PHE41      -0.0042
     39  CD2       51.5750   32.6090   36.8350 C.ar   41  PHE41      -0.0042
     40  CE1       50.3130   30.3150   37.7900 C.ar   41  PHE41      -0.0003
     41  CE2       50.8760   32.6300   38.0470 C.ar   41  PHE41      -0.0003
     42  CZ        50.2490   31.4800   38.5210 C.ar   41  PHE41      -0.0000
     43  N         47.1280   32.3010   31.4180 N.3    44  ASN44      -0.1225
     44  CA        46.2440   31.1780   31.7790 C.3    44  ASN44       0.1785
     45  C         45.3480   31.4940   32.9840 C.2    44  ASN44       0.2597
     46  O         44.3210   30.8480   33.1940 O.2    44  ASN44      -0.2718
     47  CB        47.0550   29.8830   32.0030 C.3    44  ASN44       0.1169
     48  CG        46.1960   28.7080   32.4910 C.2    44  ASN44       0.2627
     49  OD1       46.3030   28.2820   33.6430 O.2    44  ASN44      -0.2716
     50  ND2       45.3580   28.1730   31.6060 N.am   44  ASN44      -0.0877
     51  N         45.7500   32.4810   33.7770 N.am   45  GLN45      -0.1979
     52  CA        44.8510   33.0800   34.7460 C.3    45  GLN45       0.1601
     53  C         44.1330   34.1740   33.9870 C.2    45  GLN45       0.2287
     54  O         44.7460   35.1640   33.5840 O.2    45  GLN45      -0.2864
     55  CB        45.6040   33.7240   35.9150 C.3    45  GLN45       0.0394
     56  CG        46.9670   33.1470   36.2030 C.3    45  GLN45       0.0908
     57  CD        46.9020   31.7570   36.7940 C.2    45  GLN45       0.2608
     58  OE1       46.1680   31.5080   37.7580 O.2    45  GLN45      -0.2717
     59  NE2       47.6730   30.8350   36.2170 N.am   45  GLN45      -0.0878
     60  N         42.6920   36.7540   34.8720 N.3    47  ASP47      -0.1239
     61  CA        42.5070   37.7520   35.9190 C.3    47  ASP47       0.1674
     62  C         43.5790   38.8260   35.8000 C.2    47  ASP47       0.2266
     63  O         44.7480   38.5740   36.0700 O.2    47  ASP47      -0.2867
     64  CB        42.5550   37.1190   37.3180 C.3    47  ASP47       0.1410
     65  CG        42.4930   38.1620   38.4490 C.2    47  ASP47       0.3668
     66  OD1       42.1780   39.3410   38.1950 O.co2  47  ASP47      -0.2456
     67  OD2       42.7400   37.8000   39.6140 O.co2  47  ASP47      -0.2456
     68  N         46.1590   39.0260   38.9880 N.3    50  ALA50      -0.1245
     69  CA        46.9030   37.8850   39.5220 C.3    50  ALA50       0.1562
     70  C         48.1230   38.3550   40.3210 C.2    50  ALA50       0.2260
     71  O         48.4390   37.8090   41.3850 O.2    50  ALA50      -0.2867
     72  CB        47.3210   36.9470   38.3920 C.3    50  ALA50       0.0290
     73  N         46.8620   39.3480   43.6320 N.3    53  LYS53      -0.1231
     74  CA        46.6510   38.1740   44.4760 C.3    53  LYS53       0.1693
     75  C         47.9980   37.6930   45.0100 C.2    53  LYS53       0.2591
     76  O         48.1780   37.4870   46.2060 O.2    53  LYS53      -0.2718
     77  CB        45.9820   37.0420   43.6830 C.3    53  LYS53       0.0285
     78  CG        44.4610   37.1560   43.5240 C.3    53  LYS53       0.0035
     79  CD        43.8710   35.8280   43.0510 C.3    53  LYS53       0.0206
     80  CE        42.3580   35.8760   42.9740 C.3    53  LYS53       0.1093
     81  NZ        41.8770   36.8860   41.9850 N.3    53  LYS53      -0.1314
     82  N         48.9570   37.5330   44.1110 N.am   54  ILE54      -0.1980
     83  CA        50.2780   37.0800   44.5110 C.3    54  ILE54       0.1595
     84  C         50.9940   38.0830   45.4260 C.2    54  ILE54       0.2287
     85  O         51.5240   37.6940   46.4650 O.2    54  ILE54      -0.2864
     86  CB        51.1230   36.7480   43.2760 C.3    54  ILE54       0.0276
     87  CG1       50.4370   35.6300   42.4900 C.3    54  ILE54       0.0022
     88  CG2       52.5450   36.3510   43.6750 C.3    54  ILE54       0.0022
     89  CD1       50.9080   35.5050   41.0640 C.3    54  ILE54       0.0001
     90  N         55.4660   27.9090   42.9070 N.3    78  LEU78      -0.1231
     91  CA        55.3040   27.4840   41.5170 C.3    78  LEU78       0.1693
     92  C         55.9760   26.1550   41.2090 C.2    78  LEU78       0.2592
     93  O         55.3620   25.2490   40.6370 O.2    78  LEU78      -0.2718
     94  CB        55.8600   28.5490   40.5700 C.3    78  LEU78       0.0284
     95  CG        55.1030   29.8720   40.6670 C.3    78  LEU78       0.0019
     96  CD1       55.7850   30.9730   39.8690 C.3    78  LEU78       0.0001
     97  CD2       53.6540   29.6560   40.2070 C.3    78  LEU78       0.0001
     98  N         57.2480   26.0470   41.5670 N.am   79  THR79      -0.1953
     99  CA        58.0030   24.8620   41.2200 C.3    79  THR79       0.1897
    100  C         57.4090   23.6540   41.9090 C.2    79  THR79       0.2313
    101  O         57.3890   22.5600   41.3570 O.2    79  THR79      -0.2863
    102  CB        59.4760   25.0210   41.6200 C.3    79  THR79       0.1794
    103  OG1       59.9910   26.2010   41.0070 O.3    79  THR79      -0.2208
    104  CG2       60.3100   23.8260   41.1690 C.3    79  THR79       0.0378
    105  N         54.1540   23.2470   42.7560 N.3    81  ALA81      -0.1231
    106  CA        52.9360   22.9180   42.0260 C.3    81  ALA81       0.1694
    107  C         53.2370   22.2430   40.6810 C.2    81  ALA81       0.2592
    108  O         52.5210   21.3380   40.2720 O.2    81  ALA81      -0.2718
    109  CB        52.0790   24.1610   41.8290 C.3    81  ALA81       0.0304
    110  N         54.2950   22.6760   40.0020 N.am   82  CYS82      -0.1970
    111  CA        54.7100   22.0280   38.7650 C.3    82  CYS82       0.1712
    112  C         55.1350   20.5920   39.0100 C.2    82  CYS82       0.2296
    113  O         54.8370   19.6910   38.2240 O.2    82  CYS82      -0.2864
    114  CB        55.8790   22.7640   38.1280 C.3    82  CYS82       0.0983
    115  SG        55.4910   24.3490   37.4060 S.3    82  CYS82      -0.0798
    116  N         52.0080   18.4120   39.7010 N.3    85  TYR85      -0.1227
    117  CA        51.4580   18.1600   38.3780 C.3    85  TYR85       0.1736
    118  C         52.2390   17.0520   37.6850 C.2    85  TYR85       0.2595
    119  O         51.6730   16.0400   37.2880 O.2    85  TYR85      -0.2718
    120  CB        51.4890   19.4280   37.5170 C.3    85  TYR85       0.0548
    121  CG        50.7490   19.2580   36.2160 C.ar   85  TYR85      -0.0200
    122  CD1       51.3150   18.5600   35.1570 C.ar   85  TYR85      -0.0009
    123  CD2       49.4740   19.7740   36.0470 C.ar   85  TYR85      -0.0009
    124  CE1       50.6330   18.3780   33.9580 C.ar   85  TYR85       0.0417
    125  CE2       48.7810   19.6030   34.8480 C.ar   85  TYR85       0.0417
    126  CZ        49.3690   18.9010   33.8110 C.ar   85  TYR85       0.1957
    127  OH        48.7010   18.7170   32.6270 O.3    85  TYR85      -0.2866
    128  N         53.5430   17.2660   37.5580 N.am   86  PHE86      -0.1976
    129  CA        54.4690   16.3510   36.9010 C.3    86  PHE86       0.1639
    130  C         54.3760   14.9180   37.4140 C.2    86  PHE86       0.2290
    131  O         54.4490   13.9760   36.6340 O.2    86  PHE86      -0.2864
    132  CB        55.8940   16.8820   37.1090 C.3    86  PHE86       0.0560
    133  CG        56.9710   16.0410   36.4950 C.ar   86  PHE86      -0.0200
    134  CD1       57.2730   16.1500   35.1520 C.ar   86  PHE86      -0.0042
    135  CD2       57.7130   15.1700   37.2710 C.ar   86  PHE86      -0.0042
    136  CE1       58.2810   15.3870   34.5910 C.ar   86  PHE86      -0.0003
    137  CE2       58.7300   14.3990   36.7130 C.ar   86  PHE86      -0.0003
    138  CZ        59.0120   14.5100   35.3740 C.ar   86  PHE86      -0.0000
    139  N         52.9260   13.5070   34.0180 N.3    90  MET90      -0.1245
    140  CA        53.9750   13.3450   33.0000 C.3    90  MET90       0.1570
    141  C         54.9610   12.1620   33.0990 C.2    90  MET90       0.2261
    142  O         55.7970   11.9870   32.2060 O.2    90  MET90      -0.2867
    143  CB        54.7120   14.6780   32.7810 C.3    90  MET90       0.0387
    144  CG        53.7560   15.8310   32.4630 C.3    90  MET90       0.0595
    145  SD        54.5180   17.3930   31.9620 S.3    90  MET90      -0.1393
    146  CE        53.0720   18.2790   31.3650 C.3    90  MET90       0.0692
@<TRIPOS>BOND
     1    26    25    1
     2    26    27    1
     3    25    22    1
     4    29    28    1
     5    29    30    1
     6    28    23   am
     7    23    24    2
     8    23    22    1
     9    27    21    1
    10    22    21    1
    11    30    31    2
    12    30    32   am
    13    21    12   am
    14   146   145    1
    15    43    44    1
    16    50    48   am
    17    44    47    1
    18    44    45    1
    19   145   144    1
    20    47    48    1
    21   142   141    2
    22    32    33    1
    23   144   143    1
    24    48    49    2
    25     4     3    2
    26    12    13    2
    27    12    11    1
    28   127   126    1
    29     1     2    1
    30   143   140    1
    31     9     7   ar
    32     3     2    1
    33     3    10   am
    34    45    46    2
    35    45    51   am
    36   140   141    1
    37   140   139    1
    38     2     5    1
    39    10    11    1
    40    11    14    1
    41     7     8   ar
    42     7     6    1
    43    54    53    2
    44    33    34    1
    45    33    36    1
    46    51    52    1
    47   126   124   ar
    48   126   125   ar
    49    34    35    2
    50   124   122   ar
    51    53    52    1
    52     5     6    1
    53   136   134   ar
    54   136   138   ar
    55    52    55    1
    56    36    37    1
    57    14    15    1
    58   125   123   ar
    59    60    61    1
    60   134   133   ar
    61   122   121   ar
    62   138   137   ar
    63    16    15   ar
    64    16    18   ar
    65    15    17   ar
    66    62    61    1
    67    62    63    2
    68    55    56    1
    69    61    64    1
    70   123   121   ar
    71    37    38   ar
    72    37    39   ar
    73    56    57    1
    74   121   120    1
    75    59    57   am
    76    18    20   ar
    77   133   132    1
    78   133   135   ar
    79    38    40   ar
    80   131   130    2
    81    17    19   ar
    82   137   135   ar
    83    57    58    2
    84    39    41   ar
    85   129   132    1
    86   129   130    1
    87   129   128    1
    88   119   118    2
    89    64    65    1
    90    20    19   ar
    91   115   114    1
    92   120   117    1
    93   128   118   am
    94   118   117    1
    95    40    42   ar
    96    41    42   ar
    97   114   111    1
    98    66    65   ar
    99   113   112    2
   100   117   116    1
   101    72    69    1
   102    65    67   ar
   103   111   112    1
   104   111   110    1
   105    68    69    1
   106    69    70    1
   107    96    95    1
   108   110   107   am
   109    97    95    1
   110   108   107    2
   111    70    71    2
   112    94    95    1
   113    94    91    1
   114    93    92    2
   115   107   106    1
   116   103   102    1
   117    89    87    1
   118   104   102    1
   119    92    91    1
   120    92    98   am
   121    99    98    1
   122    99   102    1
   123    99   100    1
   124   101   100    2
   125    91    90    1
   126   109   106    1
   127    81    80    1
   128   106   105    1
   129    87    86    1
   130    80    79    1
   131    79    78    1
   132    86    88    1
   133    86    83    1
   134    78    77    1
   135    73    74    1
   136    77    74    1
   137    82    83    1
   138    82    75   am
   139    74    75    1
   140    83    84    1
   141    75    76    2
   142    84    85    2
