@<TRIPOS>MOLECULE
tmp/4ftiA00.pdb
 157 146 0 0 0
SMALL
GASTEIGER

@<TRIPOS>ATOM
      1  N         18.3380   -8.9910   -0.1150 N.3    11  GLN11      -0.1231
      2  CA        19.1920   -9.6050    0.9100 C.3    11  GLN11       0.1698
      3  C         18.4870   -9.7860    2.2540 C.2    11  GLN11       0.2593
      4  O         17.5440   -9.0620    2.5810 O.2    11  GLN11      -0.2718
      5  CB        20.5220   -8.8480    1.1010 C.3    11  GLN11       0.0381
      6  CG        20.4540   -7.4790    1.7480 C.3    11  GLN11       0.0905
      7  CD        21.8520   -6.9970    2.0450 C.2    11  GLN11       0.2608
      8  OE1       22.4880   -6.3120    1.2310 O.2    11  GLN11      -0.2717
      9  NE2       22.3830   -7.3880    3.1950 N.am   11  GLN11      -0.0878
     10  N         18.9670  -10.7710    3.0300 N.am   12  THR12      -0.1939
     11  CA        18.4530  -11.0950    4.3560 C.3    12  THR12       0.2028
     12  C         19.1320  -10.1660    5.3450 C.2    12  THR12       0.2642
     13  O         20.3600  -10.1510    5.4470 O.2    12  THR12      -0.2714
     14  CB        18.6470  -12.5910    4.6680 C.3    12  THR12       0.1808
     15  OG1       17.8740  -13.3490    3.7300 O.3    12  THR12      -0.2208
     16  CG2       18.2140  -12.9600    6.0840 C.3    12  THR12       0.0379
     17  N         18.3280   -9.3680    6.0450 N.am   13  LEU13      -0.1963
     18  CA        18.8190   -8.4310    7.0470 C.3    13  LEU13       0.1728
     19  C         18.8330   -9.0800    8.4310 C.2    13  LEU13       0.2616
     20  O         19.7240   -8.7950    9.2300 O.2    13  LEU13      -0.2715
     21  CB        17.9630   -7.1480    7.0600 C.3    13  LEU13       0.0311
     22  CG        17.9700   -6.2980    5.7830 C.3    13  LEU13       0.0022
     23  CD1       17.0170   -5.1270    5.9130 C.3    13  LEU13       0.0001
     24  CD2       19.3860   -5.8140    5.4270 C.3    13  LEU13       0.0001
     25  N         17.8520   -9.9340    8.6930 N.am   14  GLY14      -0.1955
     26  CA        17.7030  -10.6290    9.9640 C.3    14  GLY14       0.1869
     27  C         16.8290  -11.8570    9.8600 C.2    14  GLY14       0.2309
     28  O         15.9560  -11.9260    8.9920 O.2    14  GLY14      -0.2863
     29  N         13.6040  -10.8170    8.1180 N.3    21  VAL21      -0.1245
     30  CA        13.5650   -9.4280    7.6800 C.3    21  VAL21       0.1561
     31  C         14.3950   -9.3910    6.4050 C.2    21  VAL21       0.2260
     32  O         15.5510   -9.8090    6.4200 O.2    21  VAL21      -0.2867
     33  CB        14.0360   -8.3970    8.7520 C.3    21  VAL21       0.0252
     34  CG1       13.9540   -6.9680    8.2110 C.3    21  VAL21       0.0019
     35  CG2       13.2180   -8.5230   10.0340 C.3    21  VAL21       0.0019
     36  N         12.6460   -2.3050    4.5530 N.3    34  ALA34      -0.1245
     37  CA        12.8030   -3.6030    5.1960 C.3    34  ALA34       0.1562
     38  C         11.4390   -4.3000    5.2170 C.2    34  ALA34       0.2260
     39  O         10.4360   -3.6970    5.6070 O.2    34  ALA34      -0.2867
     40  CB        13.3520   -3.4340    6.6040 C.3    34  ALA34       0.0290
     41  N          9.3340   -7.2840    6.8130 N.3    36  LYS36      -0.1245
     42  CA         9.2560   -8.2850    7.8800 C.3    36  LYS36       0.1561
     43  C          8.2550   -9.3530    7.4160 C.2    36  LYS36       0.2260
     44  O          7.0970   -9.0320    7.1380 O.2    36  LYS36      -0.2867
     45  CB         8.8590   -7.6340    9.2220 C.3    36  LYS36       0.0271
     46  CG         9.0300   -8.5260   10.4420 C.3    36  LYS36       0.0035
     47  CD         8.6720   -7.7450   11.6970 C.3    36  LYS36       0.0206
     48  CE         8.8600   -8.5290   12.9660 C.3    36  LYS36       0.1093
     49  NZ         8.9760   -7.6290   14.1450 N.3    36  LYS36      -0.1314
     50  N          0.9720   -5.9850   16.8030 N.3    46  GLU46      -0.1245
     51  CA         2.1980   -5.3710   16.2880 C.3    46  GLU46       0.1567
     52  C          1.8850   -4.3720   15.1710 C.2    46  GLU46       0.2260
     53  O          2.4420   -3.2750   15.1640 O.2    46  GLU46      -0.2867
     54  CB         3.1880   -6.4360   15.7860 C.3    46  GLU46       0.0388
     55  CG         4.5440   -5.8430   15.4080 C.3    46  GLU46       0.1160
     56  CD         5.6520   -6.7930   14.9930 C.2    46  GLU46       0.3649
     57  OE1        5.5100   -8.0180   15.2050 O.co2  46  GLU46      -0.2457
     58  OE2        6.6890   -6.2980   14.4930 O.co2  46  GLU46      -0.2457
     59  N         11.3700    3.3290   14.3080 N.3    59  VAL59      -0.1245
     60  CA        11.3030    2.7440   12.9680 C.3    59  VAL59       0.1561
     61  C          9.8890    2.9760   12.3820 C.2    59  VAL59       0.2260
     62  O          8.9000    2.6290   13.0250 O.2    59  VAL59      -0.2867
     63  CB        11.6880    1.2440   12.9830 C.3    59  VAL59       0.0252
     64  CG1       11.2600    0.5490   11.6860 C.3    59  VAL59       0.0019
     65  CG2       13.1870    1.0800   13.2090 C.3    59  VAL59       0.0019
     66  N          8.5950   -1.8040    6.5610 N.3    75  LEU75      -0.1231
     67  CA         9.1850   -0.9270    7.5630 C.3    75  LEU75       0.1693
     68  C         10.4480   -0.2510    7.0830 C.2    75  LEU75       0.2592
     69  O         11.0840   -0.6790    6.1080 O.2    75  LEU75      -0.2718
     70  CB         9.5050   -1.7360    8.8420 C.3    75  LEU75       0.0284
     71  CG         8.3120   -2.4330    9.5190 C.3    75  LEU75       0.0019
     72  CD1        8.6690   -3.8490    9.9170 C.3    75  LEU75       0.0001
     73  CD2        7.7890   -1.6210   10.6810 C.3    75  LEU75       0.0001
     74  N         10.8260    0.8040    7.8150 N.am   76  GLU76      -0.1966
     75  CA        12.0140    1.6010    7.5600 C.3    76  GLU76       0.1733
     76  C         13.2790    0.7420    7.4900 C.2    76  GLU76       0.2616
     77  O         13.5020   -0.1260    8.3470 O.2    76  GLU76      -0.2715
     78  CB        12.1530    2.6380    8.6730 C.3    76  GLU76       0.0429
     79  CG        13.0890    3.7880    8.3590 C.3    76  GLU76       0.1163
     80  CD        13.0940    4.8750    9.4150 C.2    76  GLU76       0.3649
     81  OE1       12.2130    4.8570   10.3080 O.co2  76  GLU76      -0.2457
     82  OE2       13.9920    5.7460    9.3520 O.co2  76  GLU76      -0.2457
     83  N         14.0710    0.9530    6.4340 N.am   77  TYR77      -0.1960
     84  CA        15.3750    0.3250    6.2970 C.3    77  TYR77       0.1771
     85  C         16.3710    1.2610    6.9740 C.2    77  TYR77       0.2620
     86  O         16.3360    2.4670    6.7400 O.2    77  TYR77      -0.2715
     87  CB        15.7510    0.0540    4.8210 C.3    77  TYR77       0.0574
     88  CG        17.1890   -0.3830    4.6260 C.ar   77  TYR77      -0.0198
     89  CD1       17.6810   -1.5300    5.2450 C.ar   77  TYR77      -0.0009
     90  CD2       18.0540    0.3380    3.8050 C.ar   77  TYR77      -0.0009
     91  CE1       18.9970   -1.9500    5.0500 C.ar   77  TYR77       0.0417
     92  CE2       19.3680   -0.0820    3.5900 C.ar   77  TYR77       0.0417
     93  CZ        19.8370   -1.2220    4.2210 C.ar   77  TYR77       0.1957
     94  OH        21.1310   -1.6410    4.0240 O.3    77  TYR77      -0.2866
     95  N         17.2090    0.7170    7.8460 N.am   78  CYS78      -0.1954
     96  CA        18.2090    1.4730    8.5930 C.3    78  CYS78       0.1843
     97  C         19.5550    0.8880    8.2000 C.2    78  CYS78       0.2626
     98  O         19.9170   -0.1760    8.6890 O.2    78  CYS78      -0.2714
     99  CB        17.9340    1.3940   10.1020 C.3    78  CYS78       0.0997
    100  SG        16.2280    1.8060   10.5720 S.3    78  CYS78      -0.0797
    101  N         20.2470    1.5320    7.2300 N.am   79  SER79      -0.1950
    102  CA        21.5010    1.0420    6.6190 C.3    79  SER79       0.1924
    103  C         22.6660    0.8940    7.5930 C.2    79  SER79       0.2314
    104  O         23.5360    0.0490    7.3550 O.2    79  SER79      -0.2863
    105  CB        21.9280    1.9220    5.4460 C.3    79  SER79       0.2116
    106  OG        22.0790    3.2850    5.8040 O.3    79  SER79      -0.2180
    107  N         22.6210   -0.4810   10.4210 N.3    81  GLY81      -0.1210
    108  CA        22.4580   -1.7440   11.1360 C.3    81  GLY81       0.1956
    109  C         22.1010   -1.5690   12.6040 C.2    81  GLY81       0.2611
    110  O         21.5750   -0.5350   12.9970 O.2    81  GLY81      -0.2717
    111  N         22.4300   -2.5650   13.4230 N.am   82  GLU82      -0.1979
    112  CA        22.1450   -2.5920   14.8540 C.3    82  GLU82       0.1602
    113  C         23.2050   -1.8920   15.6890 C.2    82  GLU82       0.2287
    114  O         24.3930   -2.0010   15.3970 O.2    82  GLU82      -0.2864
    115  CB        22.0350   -4.0470   15.3590 C.3    82  GLU82       0.0415
    116  CG        21.1270   -4.9500   14.5390 C.3    82  GLU82       0.1163
    117  CD        21.0790   -6.3880   15.0130 C.2    82  GLU82       0.3649
    118  OE1       21.9050   -6.7760   15.8720 O.co2  82  GLU82      -0.2457
    119  OE2       20.1990   -7.1290   14.5280 O.co2  82  GLU82      -0.2457
    120  N         26.3030   -3.9970   16.9850 N.3    85  ASP85      -0.1239
    121  CA        27.5620   -4.1260   16.2390 C.3    85  ASP85       0.1674
    122  C         28.4650   -2.8990   16.3460 C.2    85  ASP85       0.2266
    123  O         29.5470   -2.9030   15.7690 O.2    85  ASP85      -0.2867
    124  CB        27.3030   -4.4750   14.7670 C.3    85  ASP85       0.1410
    125  CG        26.7160   -5.8680   14.6140 C.2    85  ASP85       0.3668
    126  OD1       27.3220   -6.8300   15.1390 O.co2  85  ASP85      -0.2456
    127  OD2       25.6290   -5.9890   14.0160 O.co2  85  ASP85      -0.2456
    128  N         17.7200   -4.3860   19.0870 N.3   126  ASN126     -0.1240
    129  CA        16.4690   -3.7150   18.6830 C.3   126  ASN126      0.1653
    130  C         16.6500   -2.2400   18.4050 C.2   126  ASN126      0.2266
    131  O         15.6760   -1.5710   18.0870 O.2   126  ASN126     -0.2867
    132  CB        15.3950   -3.9010   19.7880 C.3   126  ASN126      0.1155
    133  CG        14.8660   -5.3070   19.7560 C.2   126  ASN126      0.2627
    134  OD1       14.9340   -5.9860   18.7310 O.2   126  ASN126     -0.2716
    135  ND2       14.3760   -5.7960   20.8670 N.am  126  ASN126     -0.0877
    136  N         18.2260    0.3370   15.9820 N.3   128  LEU128     -0.1245
    137  CA        18.8040    0.4010   14.6350 C.3   128  LEU128      0.1561
    138  C         19.3190    1.7860   14.3120 C.2   128  LEU128      0.2260
    139  O         18.9290    2.7500   14.9580 O.2   128  LEU128     -0.2867
    140  CB        17.8060   -0.0760   13.5660 C.3   128  LEU128      0.0270
    141  CG        17.1680   -1.4620   13.8020 C.3   128  LEU128      0.0019
    142  CD1       16.1370   -1.7560   12.7580 C.3   128  LEU128      0.0001
    143  CD2       18.2080   -2.5850   13.8440 C.3   128  LEU128      0.0001
    144  N         13.1640   -0.3130   17.3220 N.3   138  SER138     -0.1202
    145  CA        12.5180   -1.2680   16.4220 C.3   138  SER138      0.2020
    146  C         11.9470   -2.4790   17.1510 C.2   138  SER138      0.2618
    147  O         12.3180   -2.7480   18.2930 O.2   138  SER138     -0.2717
    148  CB        13.5160   -1.7540   15.3720 C.3   138  SER138      0.2103
    149  OG        14.3290   -2.8220   15.8310 O.3   138  SER138     -0.2182
    150  N         11.0780   -3.2340   16.4450 N.am  139  ASP139     -0.1973
    151  CA        10.4380   -4.4810   16.8470 C.3   139  ASP139      0.1709
    152  C          9.4340   -4.2760   17.9640 C.2   139  ASP139      0.2293
    153  O          9.7640   -4.4200   19.1390 O.2   139  ASP139     -0.2864
    154  CB        11.4910   -5.5450   17.2330 C.3   139  ASP139      0.1436
    155  CG        10.9510   -6.9580   17.2810 C.2   139  ASP139      0.3671
    156  OD1        9.7260   -7.1300   17.0970 O.co2 139  ASP139     -0.2456
    157  OD2       11.7610   -7.8960   17.4830 O.co2 139  ASP139     -0.2456
@<TRIPOS>BOND
     1     1     2    1
     2     2     5    1
     3     2     3    1
     4     5     6    1
     5     8     7    2
     6     6     7    1
     7     7     9   am
     8     3     4    2
     9     3    10   am
    10    10    11    1
    11    92    90   ar
    12    92    93   ar
    13    15    14    1
    14    90    88   ar
    15    94    93    1
    16    93    91   ar
    17    11    14    1
    18    11    12    1
    19    36    37    1
    20    88    87    1
    21    88    89   ar
    22    14    16    1
    23    87    84    1
    24    91    89   ar
    25    37    38    1
    26    37    40    1
    27    38    39    2
    28    12    13    2
    29    12    17   am
    30    24    22    1
    31   105   106    1
    32   105   102    1
    33    22    23    1
    34    22    21    1
    35    17    18    1
    36    69    68    2
    37    84    83    1
    38    84    85    1
    39    31    32    2
    40    31    30    1
    41    83    76   am
    42    66    67    1
    43   102   101    1
    44   102   103    1
    45    86    85    2
    46    41    42    1
    47    85    95   am
    48    18    21    1
    49    18    19    1
    50    68    67    1
    51    68    74   am
    52    44    43    2
    53   101    97   am
    54   104   103    2
    55    43    42    1
    56    76    75    1
    57    76    77    2
    58    75    74    1
    59    75    78    1
    60    67    70    1
    61    30    29    1
    62    30    33    1
    63    95    96    1
    64    42    45    1
    65    97    96    1
    66    97    98    2
    67    34    33    1
    68    79    78    1
    69    79    80    1
    70    19    25   am
    71    19    20    2
    72    96    99    1
    73    25    26    1
    74    33    35    1
    75    70    71    1
    76    28    27    2
    77    45    46    1
    78    82    80   ar
    79    80    81   ar
    80    71    72    1
    81    71    73    1
    82    27    26    1
    83    99   100    1
    84   107   108    1
    85    46    47    1
    86   108   109    1
    87    64    63    1
    88    47    48    1
    89    61    60    1
    90    61    62    2
    91   109   110    2
    92   109   111   am
    93   142   141    1
    94    48    49    1
    95    60    63    1
    96    60    59    1
    97    63    65    1
    98   111   112    1
    99   140   141    1
   100   140   137    1
   101   141   143    1
   102   127   125   ar
   103   138   137    1
   104   138   139    2
   105    58    56   ar
   106   119   117   ar
   107   116   117    1
   108   116   115    1
   109   125   124    1
   110   125   126   ar
   111   137   136    1
   112   124   121    1
   113   112   115    1
   114   112   113    1
   115    56    57   ar
   116    56    55    1
   117   117   118   ar
   118    53    52    2
   119    52    51    1
   120   148   149    1
   121   148   145    1
   122   114   113    2
   123    55    54    1
   124   123   122    2
   125    54    51    1
   126   121   122    1
   127   121   120    1
   128    51    50    1
   129   145   146    1
   130   145   144    1
   131   150   151    1
   132   150   146   am
   133   151   154    1
   134   151   152    1
   135   156   155   ar
   136   146   147    2
   137   154   155    1
   138   155   157   ar
   139   152   153    2
   140   131   130    2
   141   130   129    1
   142   129   128    1
   143   129   132    1
   144   134   133    2
   145   133   132    1
   146   133   135   am
