@<TRIPOS>MOLECULE
tmp/4ftjA00.pdb
 140 131 0 0 0
SMALL
GASTEIGER

@<TRIPOS>ATOM
      1  N         18.3520   -9.0880    0.0190 N.3    11  GLN11      -0.1231
      2  CA        19.1650   -9.7620    1.0530 C.3    11  GLN11       0.1698
      3  C         18.4660   -9.8880    2.4200 C.2    11  GLN11       0.2593
      4  O         17.5600   -9.1140    2.7420 O.2    11  GLN11      -0.2718
      5  CB        20.5410   -9.0840    1.2380 C.3    11  GLN11       0.0381
      6  CG        20.5170   -7.6260    1.6890 C.3    11  GLN11       0.0905
      7  CD        21.9170   -7.0780    1.8080 C.2    11  GLN11       0.2608
      8  OE1       22.4480   -6.4520    0.8810 O.2    11  GLN11      -0.2717
      9  NE2       22.5520   -7.3190    2.9470 N.am   11  GLN11      -0.0878
     10  N         18.9250  -10.8680    3.2260 N.am   12  THR12      -0.1939
     11  CA        18.4130  -11.1440    4.5700 C.3    12  THR12       0.2028
     12  C         19.0980  -10.2050    5.5600 C.2    12  THR12       0.2642
     13  O         20.3280  -10.1410    5.6100 O.2    12  THR12      -0.2714
     14  CB        18.5890  -12.6300    4.9270 C.3    12  THR12       0.1808
     15  OG1       17.8030  -13.4000    4.0180 O.3    12  THR12      -0.2208
     16  CG2       18.1580  -12.9530    6.3550 C.3    12  THR12       0.0379
     17  N         18.2890   -9.4650    6.3240 N.am   13  LEU13      -0.1963
     18  CA        18.7620   -8.5080    7.3190 C.3    13  LEU13       0.1728
     19  C         18.7450   -9.1040    8.7250 C.2    13  LEU13       0.2616
     20  O         19.5940   -8.7700    9.5450 O.2    13  LEU13      -0.2715
     21  CB        17.9050   -7.2270    7.2940 C.3    13  LEU13       0.0311
     22  CG        17.9180   -6.3930    6.0220 C.3    13  LEU13       0.0022
     23  CD1       16.8930   -5.2860    6.1080 C.3    13  LEU13       0.0001
     24  CD2       19.2980   -5.8170    5.7420 C.3    13  LEU13       0.0001
     25  N         17.7530   -9.9300    9.0060 N.am   14  GLY14      -0.1955
     26  CA        17.6110  -10.5390   10.3160 C.3    14  GLY14       0.1869
     27  C         16.6230  -11.6740   10.3450 C.2    14  GLY14       0.2309
     28  O         15.8800  -11.8960    9.3840 O.2    14  GLY14      -0.2863
     29  N         13.4870  -10.8090    8.2500 N.3    21  VAL21      -0.1245
     30  CA        13.4640   -9.4100    7.8430 C.3    21  VAL21       0.1561
     31  C         14.3160   -9.3520    6.5740 C.2    21  VAL21       0.2260
     32  O         15.4880   -9.7360    6.6050 O.2    21  VAL21      -0.2867
     33  CB        13.9370   -8.4170    8.9500 C.3    21  VAL21       0.0252
     34  CG1       13.8980   -6.9730    8.4500 C.3    21  VAL21       0.0019
     35  CG2       13.1010   -8.5590   10.2180 C.3    21  VAL21       0.0019
     36  N         12.6670   -2.2930    4.5830 N.3    34  ALA34      -0.1245
     37  CA        12.7920   -3.5700    5.2680 C.3    34  ALA34       0.1562
     38  C         11.4170   -4.2420    5.2790 C.2    34  ALA34       0.2260
     39  O         10.4130   -3.6040    5.6110 O.2    34  ALA34      -0.2867
     40  CB        13.3130   -3.3670    6.6840 C.3    34  ALA34       0.0290
     41  N          9.2040   -7.2800    6.8350 N.3    36  LYS36      -0.1245
     42  CA         9.0960   -8.2660    7.9100 C.3    36  LYS36       0.1561
     43  C          8.0750   -9.3080    7.4630 C.2    36  LYS36       0.2260
     44  O          6.9170   -8.9720    7.1960 O.2    36  LYS36      -0.2867
     45  CB         8.7240   -7.5980    9.2510 C.3    36  LYS36       0.0271
     46  CG         8.8570   -8.4990   10.4700 C.3    36  LYS36       0.0035
     47  CD         8.6780   -7.6930   11.7460 C.3    36  LYS36       0.0206
     48  CE         8.8180   -8.5260   12.9930 C.3    36  LYS36       0.1093
     49  NZ         8.9730   -7.6730   14.2020 N.3    36  LYS36      -0.1314
     50  N         11.2930    3.3990   14.2800 N.3    55  VAL55      -0.1245
     51  CA        11.2720    2.8210   12.9260 C.3    55  VAL55       0.1561
     52  C          9.8750    3.0380   12.2940 C.2    55  VAL55       0.2260
     53  O          8.8620    2.6620   12.8920 O.2    55  VAL55      -0.2867
     54  CB        11.6900    1.3240   12.9240 C.3    55  VAL55       0.0252
     55  CG1       11.4380    0.6820   11.5610 C.3    55  VAL55       0.0019
     56  CG2       13.1540    1.1630   13.3240 C.3    55  VAL55       0.0019
     57  N          8.5450   -1.7610    6.5200 N.3    71  LEU71      -0.1231
     58  CA         9.1540   -0.8970    7.5250 C.3    71  LEU71       0.1693
     59  C         10.4300   -0.2330    7.0320 C.2    71  LEU71       0.2592
     60  O         11.0260   -0.6550    6.0400 O.2    71  LEU71      -0.2718
     61  CB         9.4550   -1.7000    8.8100 C.3    71  LEU71       0.0284
     62  CG         8.2630   -2.4200    9.4730 C.3    71  LEU71       0.0019
     63  CD1        8.6670   -3.7980    9.9650 C.3    71  LEU71       0.0001
     64  CD2        7.6600   -1.5830   10.5790 C.3    71  LEU71       0.0001
     65  N         10.8450    0.8090    7.7530 N.am   72  GLU72      -0.1966
     66  CA        12.0220    1.6090    7.4670 C.3    72  GLU72       0.1733
     67  C         13.3040    0.7740    7.4570 C.2    72  GLU72       0.2616
     68  O         13.5490   -0.0200    8.3760 O.2    72  GLU72      -0.2715
     69  CB        12.1250    2.7230    8.5180 C.3    72  GLU72       0.0429
     70  CG        13.2470    3.7240    8.3060 C.3    72  GLU72       0.1163
     71  CD        13.2050    4.9210    9.2360 C.2    72  GLU72       0.3649
     72  OE1       12.3670    4.9370   10.1690 O.co2  72  GLU72      -0.2457
     73  OE2       14.0060    5.8580    9.0170 O.co2  72  GLU72      -0.2457
     74  N         14.1000    0.9500    6.3970 N.am   73  TYR73      -0.1960
     75  CA        15.4090    0.3420    6.2820 C.3    73  TYR73       0.1771
     76  C         16.3860    1.2770    6.9710 C.2    73  TYR73       0.2620
     77  O         16.3360    2.4900    6.7610 O.2    73  TYR73      -0.2715
     78  CB        15.8130    0.0710    4.8110 C.3    73  TYR73       0.0574
     79  CG        17.2390   -0.4140    4.6400 C.ar   73  TYR73      -0.0198
     80  CD1       17.6750   -1.5930    5.2410 C.ar   73  TYR73      -0.0009
     81  CD2       18.1490    0.2970    3.8630 C.ar   73  TYR73      -0.0009
     82  CE1       18.9900   -2.0420    5.0890 C.ar   73  TYR73       0.0417
     83  CE2       19.4650   -0.1420    3.7020 C.ar   73  TYR73       0.0417
     84  CZ        19.8810   -1.3120    4.3170 C.ar   73  TYR73       0.1957
     85  OH        21.1760   -1.7500    4.1520 O.3    73  TYR73      -0.2866
     86  N         17.2210    0.7200    7.8400 N.am   74  CYS74      -0.1954
     87  CA        18.2150    1.4630    8.6040 C.3    74  CYS74       0.1843
     88  C         19.5760    0.9040    8.2020 C.2    74  CYS74       0.2626
     89  O         19.9520   -0.1620    8.6690 O.2    74  CYS74      -0.2714
     90  CB        17.9400    1.3410   10.1070 C.3    74  CYS74       0.0997
     91  SG        16.2750    1.8570   10.6110 S.3    74  CYS74      -0.0797
     92  N         20.2570    1.5690    7.2440 N.am   75  SER75      -0.1950
     93  CA        21.5330    1.1310    6.6450 C.3    75  SER75       0.1924
     94  C         22.7020    0.9920    7.6390 C.2    75  SER75       0.2314
     95  O         23.5980    0.1830    7.3900 O.2    75  SER75      -0.2863
     96  CB        21.9500    2.0650    5.5130 C.3    75  SER75       0.2116
     97  OG        22.0900    3.4040    5.9530 O.3    75  SER75      -0.2180
     98  N         22.6450   -0.4060   10.4590 N.3    77  GLY77      -0.1210
     99  CA        22.4980   -1.6800   11.1500 C.3    77  GLY77       0.1956
    100  C         22.1190   -1.5160   12.6100 C.2    77  GLY77       0.2611
    101  O         21.5150   -0.5130   12.9940 O.2    77  GLY77      -0.2717
    102  N         22.4970   -2.5000   13.4310 N.am   78  GLU78      -0.1979
    103  CA        22.1790   -2.5630   14.8530 C.3    78  GLU78       0.1602
    104  C         23.2100   -1.8640   15.7230 C.2    78  GLU78       0.2287
    105  O         24.4070   -1.9840   15.4790 O.2    78  GLU78      -0.2864
    106  CB        22.0610   -4.0290   15.3200 C.3    78  GLU78       0.0415
    107  CG        21.0880   -4.8800   14.5190 C.3    78  GLU78       0.1163
    108  CD        20.9520   -6.3260   14.9550 C.2    78  GLU78       0.3649
    109  OE1       21.7440   -6.7870   15.8110 O.co2  78  GLU78      -0.2457
    110  OE2       20.0330   -7.0010   14.4390 O.co2  78  GLU78      -0.2457
    111  N         26.2500   -3.9340   17.0160 N.3    81  ASP81      -0.1239
    112  CA        27.4870   -4.0450   16.2480 C.3    81  ASP81       0.1674
    113  C         28.4070   -2.8150   16.3630 C.2    81  ASP81       0.2266
    114  O         29.4930   -2.8290   15.7930 O.2    81  ASP81      -0.2867
    115  CB        27.1780   -4.3770   14.7850 C.3    81  ASP81       0.1410
    116  CG        26.6830   -5.8100   14.6290 C.2    81  ASP81       0.3668
    117  OD1       27.3650   -6.7350   15.1310 O.co2  81  ASP81      -0.2456
    118  OD2       25.6010   -6.0030   14.0380 O.co2  81  ASP81      -0.2456
    119  N         18.2340    0.3560   16.0010 N.3   124  LEU124     -0.1245
    120  CA        18.8330    0.4300   14.6690 C.3   124  LEU124      0.1561
    121  C         19.3340    1.8240   14.3640 C.2   124  LEU124      0.2260
    122  O         18.9070    2.7830   15.0030 O.2   124  LEU124     -0.2867
    123  CB        17.8540   -0.0510   13.5840 C.3   124  LEU124      0.0270
    124  CG        17.1920   -1.4170   13.8440 C.3   124  LEU124      0.0019
    125  CD1       16.1200   -1.6830   12.8400 C.3   124  LEU124      0.0001
    126  CD2       18.2080   -2.5630   13.8720 C.3   124  LEU124      0.0001
    127  N         13.0970   -0.2580   17.2380 N.3   134  SER134     -0.1202
    128  CA        12.4000   -1.1930   16.3520 C.3   134  SER134      0.2020
    129  C         11.7690   -2.3680   17.1140 C.2   134  SER134      0.2618
    130  O         12.0150   -2.5390   18.3100 O.2   134  SER134     -0.2717
    131  CB        13.3520   -1.7310   15.2830 C.3   134  SER134      0.2103
    132  OG        14.3000   -2.6650   15.7740 O.3   134  SER134     -0.2182
    133  N         10.9740   -3.1810   16.3910 N.am  135  ASP135     -0.1973
    134  CA        10.3210   -4.4180   16.8350 C.3   135  ASP135      0.1709
    135  C          9.2810   -4.1760   17.9410 C.2   135  ASP135      0.2293
    136  O          9.6130   -4.1820   19.1260 O.2   135  ASP135     -0.2864
    137  CB        11.3690   -5.4610   17.2850 C.3   135  ASP135      0.1436
    138  CG        10.8600   -6.8910   17.3630 C.2   135  ASP135      0.3671
    139  OD1        9.6480   -7.1120   17.1060 O.co2 135  ASP135     -0.2456
    140  OD2       11.6780   -7.7960   17.6420 O.co2 135  ASP135     -0.2456
@<TRIPOS>BOND
     1     1     2    1
     2     8     7    2
     3     2     5    1
     4     2     3    1
     5     5     6    1
     6     6     7    1
     7     7     9   am
     8     3     4    2
     9     3    10   am
    10    10    11    1
    11    83    81   ar
    12    83    84   ar
    13    81    79   ar
    14    15    14    1
    15    85    84    1
    16    84    82   ar
    17    11    14    1
    18    11    12    1
    19    36    37    1
    20    79    78    1
    21    79    80   ar
    22    78    75    1
    23    14    16    1
    24    82    80   ar
    25    37    38    1
    26    37    40    1
    27    38    39    2
    28    96    97    1
    29    96    93    1
    30    12    13    2
    31    12    17   am
    32    24    22    1
    33    22    23    1
    34    22    21    1
    35    60    59    2
    36    75    74    1
    37    75    76    1
    38    17    18    1
    39    74    67   am
    40    57    58    1
    41    31    32    2
    42    31    30    1
    43    93    92    1
    44    93    94    1
    45    77    76    2
    46    41    42    1
    47    76    86   am
    48    59    58    1
    49    59    65   am
    50    44    43    2
    51    92    88   am
    52    21    18    1
    53    18    19    1
    54    95    94    2
    55    67    66    1
    56    67    68    2
    57    43    42    1
    58    66    65    1
    59    66    69    1
    60    58    61    1
    61    86    87    1
    62    30    29    1
    63    30    33    1
    64    42    45    1
    65    88    87    1
    66    88    89    2
    67    70    69    1
    68    70    71    1
    69    34    33    1
    70    87    90    1
    71    19    25   am
    72    19    20    2
    73    61    62    1
    74    33    35    1
    75    25    26    1
    76    73    71   ar
    77    71    72   ar
    78    45    46    1
    79    28    27    2
    80    62    63    1
    81    62    64    1
    82    90    91    1
    83    26    27    1
    84    98    99    1
    85    46    47    1
    86    99   100    1
    87    55    54    1
    88    47    48    1
    89    52    53    2
    90    52    51    1
    91   100   101    2
    92   100   102   am
    93   125   124    1
    94    54    51    1
    95    54    56    1
    96    51    50    1
    97    48    49    1
    98   102   103    1
    99   123   124    1
   100   123   120    1
   101   124   126    1
   102   118   116   ar
   103   121   120    1
   104   121   122    2
   105   110   108   ar
   106   107   108    1
   107   107   106    1
   108   116   115    1
   109   116   117   ar
   110   120   119    1
   111   115   112    1
   112   103   106    1
   113   103   104    1
   114   108   109   ar
   115   131   132    1
   116   131   128    1
   117   105   104    2
   118   114   113    2
   119   112   113    1
   120   112   111    1
   121   128   129    1
   122   128   127    1
   123   133   134    1
   124   133   129   am
   125   134   137    1
   126   134   135    1
   127   139   138   ar
   128   129   130    2
   129   137   138    1
   130   138   140   ar
   131   135   136    2
