@<TRIPOS>MOLECULE
tmp/4ftkA00.pdb
 160 149 0 0 0
SMALL
GASTEIGER

@<TRIPOS>ATOM
      1  N         18.2260   -9.3730    6.5710 N.3    13  LEU13      -0.1231
      2  CA        18.7410   -8.3950    7.5310 C.3    13  LEU13       0.1693
      3  C         18.7740   -8.9460    8.9760 C.2    13  LEU13       0.2592
      4  O         19.7150   -8.6550    9.7230 O.2    13  LEU13      -0.2718
      5  CB        17.9020   -7.1030    7.4780 C.3    13  LEU13       0.0284
      6  CG        17.7760   -6.4030    6.1250 C.3    13  LEU13       0.0019
      7  CD1       16.6740   -5.3670    6.1570 C.3    13  LEU13       0.0001
      8  CD2       19.1040   -5.7760    5.6890 C.3    13  LEU13       0.0001
      9  N         17.7480   -9.7140    9.3440 N.am   14  GLY14      -0.1957
     10  CA        17.6150  -10.3170   10.6640 C.3    14  GLY14       0.1869
     11  C         16.5890  -11.4290   10.7020 C.2    14  GLY14       0.2309
     12  O         15.5800  -11.3750    9.9960 O.2    14  GLY14      -0.2863
     13  N         13.3470  -11.0000    8.2340 N.3    16  VAL16      -0.1245
     14  CA        13.4170   -9.6210    7.7460 C.3    16  VAL16       0.1561
     15  C         14.3040   -9.5990    6.4880 C.2    16  VAL16       0.2260
     16  O         15.4360  -10.0970    6.5180 O.2    16  VAL16      -0.2867
     17  CB        13.9070   -8.6110    8.8340 C.3    16  VAL16       0.0252
     18  CG1       14.0810   -7.2050    8.2620 C.3    16  VAL16       0.0019
     19  CG2       12.9660   -8.5810   10.0340 C.3    16  VAL16       0.0019
     20  N         12.6560   -2.4190    4.5570 N.3    29  ALA29      -0.1245
     21  CA        12.7710   -3.6880    5.2710 C.3    29  ALA29       0.1562
     22  C         11.3910   -4.3520    5.3010 C.2    29  ALA29       0.2260
     23  O         10.3920   -3.6900    5.5970 O.2    29  ALA29      -0.2867
     24  CB        13.3050   -3.4590    6.6820 C.3    29  ALA29       0.0290
     25  N          9.1520   -7.5190    6.7780 N.3    31  LYS31      -0.1245
     26  CA         9.1360   -8.5430    7.7740 C.3    31  LYS31       0.1561
     27  C          8.0370   -9.5210    7.4560 C.2    31  LYS31       0.2260
     28  O          6.9150   -9.1350    7.2210 O.2    31  LYS31      -0.2867
     29  CB         8.9360   -7.9250    9.1520 C.3    31  LYS31       0.0271
     30  CG         8.8520   -8.9020   10.2480 C.3    31  LYS31       0.0035
     31  CD         8.6030   -8.2020   11.5440 C.3    31  LYS31       0.0206
     32  CE         8.6780   -9.1560   12.7040 C.3    31  LYS31       0.1093
     33  NZ         7.3490   -9.6790   13.0790 N.3    31  LYS31      -0.1314
     34  N          0.8450   -5.9720   16.7910 N.3    38  GLU38      -0.1245
     35  CA         2.1070   -5.4650   16.2560 C.3    38  GLU38       0.1567
     36  C          1.8560   -4.4520   15.1280 C.2    38  GLU38       0.2260
     37  O          2.5020   -3.4000   15.0880 O.2    38  GLU38      -0.2867
     38  CB         2.9560   -6.6410   15.7460 C.3    38  GLU38       0.0388
     39  CG         4.3400   -6.2460   15.2550 C.3    38  GLU38       0.1160
     40  CD         5.3550   -7.3610   15.0990 C.2    38  GLU38       0.3649
     41  OE1        5.0170   -8.5430   15.3370 O.co2  38  GLU38      -0.2457
     42  OE2        6.5110   -7.0400   14.7520 O.co2  38  GLU38      -0.2457
     43  N          2.2090   -0.3740   15.4630 N.3    42  ASN42      -0.1240
     44  CA         3.0280    0.2300   14.3950 C.3    42  ASN42       0.1653
     45  C          2.3100    1.3650   13.6440 C.2    42  ASN42       0.2266
     46  O          2.9480    2.3750   13.3490 O.2    42  ASN42      -0.2867
     47  CB         3.5100   -0.8220   13.4040 C.3    42  ASN42       0.1155
     48  CG         4.9010   -1.3040   13.7400 C.2    42  ASN42       0.2627
     49  OD1        5.8680   -0.5350   13.7520 O.2    42  ASN42      -0.2716
     50  ND2        5.0230   -2.5670   14.0770 N.am   42  ASN42      -0.0877
     51  N         11.5280    3.2590   14.1510 N.3    51  VAL51      -0.1245
     52  CA        11.5160    2.6860   12.7940 C.3    51  VAL51       0.1561
     53  C         10.1040    2.9200   12.1730 C.2    51  VAL51       0.2260
     54  O          9.0910    2.5720   12.7870 O.2    51  VAL51      -0.2867
     55  CB        11.9450    1.1840   12.7600 C.3    51  VAL51       0.0252
     56  CG1       11.7660    0.5960   11.3700 C.3    51  VAL51       0.0019
     57  CG2       13.3970    1.0210   13.1920 C.3    51  VAL51       0.0019
     58  N          5.1550   -6.9500    6.5610 N.3    65  LEU65      -0.1245
     59  CA         5.2120   -5.6480    7.2130 C.3    65  LEU65       0.1561
     60  C          6.2800   -4.8160    6.5220 C.2    65  LEU65       0.2260
     61  O          7.4490   -5.2180    6.4980 O.2    65  LEU65      -0.2867
     62  CB         5.4800   -5.7950    8.7310 C.3    65  LEU65       0.0270
     63  CG         4.2430   -6.0160    9.6240 C.3    65  LEU65       0.0019
     64  CD1        3.7530   -7.4680    9.5870 C.3    65  LEU65       0.0001
     65  CD2        4.5280   -5.6120   11.0530 C.3    65  LEU65       0.0001
     66  N          8.5560   -1.8840    6.4910 N.3    67  LEU67      -0.1231
     67  CA         9.1970   -1.0260    7.4830 C.3    67  LEU67       0.1693
     68  C         10.4590   -0.3480    6.9490 C.2    67  LEU67       0.2595
     69  O         11.0310   -0.7790    5.9480 O.2    67  LEU67      -0.2718
     70  CB         9.5360   -1.8490    8.7440 C.3    67  LEU67       0.0284
     71  CG         8.3580   -2.5640    9.4300 C.3    67  LEU67       0.0019
     72  CD1        8.7880   -3.9040    9.9780 C.3    67  LEU67       0.0001
     73  CD2        7.7300   -1.6950   10.5020 C.3    67  LEU67       0.0001
     74  N         10.8680    0.7360    7.6310 N.am   68  GLU68      -0.1920
     75  CA        12.0220    1.5710    7.3070 C.3    68  GLU68       0.1949
     76  C         13.3200    0.7690    7.3640 C.2    68  GLU68       0.2659
     77  O         13.5690    0.0500    8.3380 O.2    68  GLU68      -0.2711
     78  CB        12.0700    2.7730    8.2740 C.2    68  GLU68       0.0111
     79  CG        13.3540    3.5910    8.2910 C.2    68  GLU68       0.0838
     80  CD        13.3400    4.7950    9.2160 C.2    68  GLU68       0.3877
     81  OE1       12.5070    4.8420   10.1550 O.co2  68  GLU68      -0.2406
     82  OE2       14.2030    5.6800    9.0190 O.co2  68  GLU68      -0.2406
     83  N         14.1230    0.8890    6.3030 N.am   69  TYR69      -0.1957
     84  CA        15.4260    0.2540    6.2110 C.3    69  TYR69       0.1771
     85  C         16.4500    1.1480    6.8900 C.2    69  TYR69       0.2620
     86  O         16.5020    2.3570    6.6290 O.2    69  TYR69      -0.2715
     87  CB        15.8180   -0.0360    4.7500 C.3    69  TYR69       0.0574
     88  CG        17.2470   -0.5100    4.5880 C.ar   69  TYR69      -0.0198
     89  CD1       17.6760   -1.7100    5.1530 C.ar   69  TYR69      -0.0009
     90  CD2       18.1710    0.2350    3.8600 C.ar   69  TYR69      -0.0009
     91  CE1       18.9900   -2.1520    5.0010 C.ar   69  TYR69       0.0417
     92  CE2       19.4830   -0.2020    3.6920 C.ar   69  TYR69       0.0417
     93  CZ        19.8900   -1.3950    4.2660 C.ar   69  TYR69       0.1957
     94  OH        21.1910   -1.8170    4.1110 O.3    69  TYR69      -0.2866
     95  N         17.2310    0.5510    7.7970 N.am   70  CYS70      -0.1954
     96  CA        18.2660    1.2450    8.5610 C.3    70  CYS70       0.1843
     97  C         19.6220    0.6260    8.1650 C.2    70  CYS70       0.2626
     98  O         19.9710   -0.4680    8.6120 O.2    70  CYS70      -0.2714
     99  CB        17.9810    1.1540   10.0630 C.3    70  CYS70       0.0997
    100  SG        16.3040    1.6800   10.5450 S.3    70  CYS70      -0.0797
    101  N         20.3190    1.2940    7.2280 N.am   71  SER71      -0.1950
    102  CA        21.5870    0.8560    6.6250 C.3    71  SER71       0.1924
    103  C         22.7700    0.7310    7.6220 C.2    71  SER71       0.2314
    104  O         23.6830   -0.0610    7.3600 O.2    71  SER71      -0.2863
    105  CB        21.9810    1.7850    5.4800 C.3    71  SER71       0.2116
    106  OG        22.2580    3.0980    5.9360 O.3    71  SER71      -0.2180
    107  N         22.6620   -0.5630   10.5330 N.3    73  GLY73      -0.1210
    108  CA        22.4960   -1.8190   11.2440 C.3    73  GLY73       0.1956
    109  C         22.1560   -1.6720   12.7070 C.2    73  GLY73       0.2611
    110  O         21.5920   -0.6650   13.1300 O.2    73  GLY73      -0.2717
    111  N         22.4960   -2.6790   13.4820 N.am   74  GLU74      -0.1979
    112  CA        22.1820   -2.7100   14.8970 C.3    74  GLU74       0.1602
    113  C         23.2110   -1.9610   15.7280 C.2    74  GLU74       0.2287
    114  O         24.4080   -2.0670   15.4550 O.2    74  GLU74      -0.2864
    115  CB        22.1080   -4.1620   15.3840 C.3    74  GLU74       0.0415
    116  CG        21.0450   -5.0090   14.7060 C.3    74  GLU74       0.1163
    117  CD        20.9880   -6.4540   15.1720 C.2    74  GLU74       0.3649
    118  OE1       21.8440   -6.8660   15.9900 O.co2  74  GLU74      -0.2457
    119  OE2       20.0870   -7.1820   14.7030 O.co2  74  GLU74      -0.2457
    120  N         26.2880   -3.9160   17.0660 N.3    77  ASP77      -0.1239
    121  CA        27.5160   -4.0210   16.2650 C.3    77  ASP77       0.1674
    122  C         28.4130   -2.7940   16.3300 C.2    77  ASP77       0.2266
    123  O         29.5040   -2.8210   15.7740 O.2    77  ASP77      -0.2867
    124  CB        27.1920   -4.3540   14.8000 C.3    77  ASP77       0.1410
    125  CG        26.5930   -5.7390   14.6520 C.2    77  ASP77       0.3668
    126  OD1       27.2260   -6.7130   15.1100 O.co2  77  ASP77      -0.2456
    127  OD2       25.4710   -5.8440   14.1290 O.co2  77  ASP77      -0.2456
    128  N         18.2740    0.2890   15.9860 N.3   120  LEU120     -0.1245
    129  CA        18.8630    0.3360   14.6610 C.3   120  LEU120      0.1561
    130  C         19.3930    1.7220   14.3200 C.2   120  LEU120      0.2260
    131  O         19.0170    2.7020   14.9450 O.2   120  LEU120     -0.2867
    132  CB        17.8570   -0.1370   13.6000 C.3   120  LEU120      0.0270
    133  CG        17.1330   -1.4890   13.8600 C.3   120  LEU120      0.0019
    134  CD1       16.2610   -1.8460   12.6910 C.3   120  LEU120      0.0001
    135  CD2       18.1120   -2.6560   14.1680 C.3   120  LEU120      0.0001
    136  N         13.2130   -0.3690   17.2410 N.3   130  SER130     -0.1202
    137  CA        12.5400   -1.3150   16.3600 C.3   130  SER130      0.2020
    138  C         11.9830   -2.5350   17.1280 C.2   130  SER130      0.2619
    139  O         12.2870   -2.7330   18.3040 O.2   130  SER130     -0.2717
    140  CB        13.4710   -1.7660   15.2310 C.3   130  SER130      0.2103
    141  OG        14.3140   -2.8530   15.5640 O.3   130  SER130     -0.2182
    142  N         11.1790   -3.3460   16.4240 N.am  131  ASP131     -0.1959
    143  CA        10.5500   -4.5910   16.8560 C.3   131  ASP131      0.1840
    144  C          9.5090   -4.3040   17.9140 C.2   131  ASP131      0.2622
    145  O          9.7990   -4.3100   19.1160 O.2   131  ASP131     -0.2715
    146  CB        11.5780   -5.6570   17.3190 C.3   131  ASP131      0.1450
    147  CG        11.0200   -7.0710   17.3730 C.2   131  ASP131      0.3671
    148  OD1        9.7780   -7.2200   17.4870 O.co2 131  ASP131     -0.2456
    149  OD2       11.8250   -8.0320   17.3000 O.co2 131  ASP131     -0.2456
    150  N          8.2760   -4.1000   17.4590 N.am  132  PHE132     -0.1974
    151  CA         7.1600   -3.7870   18.3370 C.3   132  PHE132      0.1639
    152  C          6.2840   -5.0130   18.5560 C.2   132  PHE132      0.2290
    153  O          5.1230   -4.8780   18.9340 O.2   132  PHE132     -0.2864
    154  CB         6.3580   -2.5830   17.7950 C.3   132  PHE132      0.0560
    155  CG         7.1230   -1.3070   18.0130 C.ar  132  PHE132     -0.0200
    156  CD1        8.0480   -0.8590   17.0700 C.ar  132  PHE132     -0.0042
    157  CD2        7.0100   -0.6070   19.2130 C.ar  132  PHE132     -0.0042
    158  CE1        8.8200    0.2910   17.3110 C.ar  132  PHE132     -0.0003
    159  CE2        7.7600    0.5520   19.4370 C.ar  132  PHE132     -0.0003
    160  CZ         8.6620    0.9900   18.4890 C.ar  132  PHE132     -0.0000
@<TRIPOS>BOND
     1    92    90   ar
     2    92    93   ar
     3    90    88   ar
     4    94    93    1
     5    93    91   ar
     6    20    21    1
     7    88    87    1
     8    88    89   ar
     9    87    84    1
    10    91    89   ar
    11    21    22    1
    12    21    24    1
    13    22    23    2
    14   105   106    1
    15   105   102    1
    16     8     6    1
    17    69    68    2
    18     6     7    1
    19     6     5    1
    20    84    83    1
    21    84    85    1
    22    83    76   am
    23    15    16    2
    24    15    14    1
    25    66    67    1
    26    61    60    2
    27    60    59    1
    28    58    59    1
    29     1     2    1
    30   102   101    1
    31   102   103    1
    32    86    85    2
    33    25    26    1
    34    85    95   am
    35    68    67    1
    36    68    74   am
    37    59    62    1
    38    28    27    2
    39   101    97   am
    40    75    76    1
    41    75    74    1
    42    75    78    1
    43   104   103    2
    44    76    77    2
    45    27    26    1
    46     5     2    1
    47    67    70    1
    48     2     3    1
    49    14    13    1
    50    14    17    1
    51    26    29    1
    52    95    96    1
    53    97    96    1
    54    97    98    2
    55    18    17    1
    56    78    79    2
    57    79    80    1
    58    96    99    1
    59    62    63    1
    60    70    71    1
    61    17    19    1
    62     3     9   am
    63     3     4    2
    64    82    80   ar
    65    29    30    1
    66    80    81   ar
    67     9    10    1
    68    71    72    1
    69    71    73    1
    70    64    63    1
    71    63    65    1
    72    12    11    2
    73    99   100    1
    74    30    31    1
    75   107   108    1
    76    10    11    1
    77   108   109    1
    78    56    55    1
    79    31    32    1
    80    53    54    2
    81    53    52    1
    82   134   133    1
    83    32    33    1
    84   109   110    2
    85   109   111   am
    86    55    52    1
    87    55    57    1
    88    52    51    1
    89    46    45    2
    90    47    48    1
    91    47    44    1
    92   111   112    1
    93   132   133    1
    94   132   129    1
    95    45    44    1
    96    48    49    2
    97    48    50   am
    98   133   135    1
    99   127   125   ar
   100   130   129    1
   101   130   131    2
   102    44    43    1
   103   125   124    1
   104   125   126   ar
   105   129   128    1
   106   119   117   ar
   107   116   117    1
   108   116   115    1
   109    42    40   ar
   110   124   121    1
   111   112   115    1
   112   112   113    1
   113    37    36    2
   114    40    39    1
   115    40    41   ar
   116    36    35    1
   117   117   118   ar
   118   140   141    1
   119   140   137    1
   120    39    38    1
   121   114   113    2
   122    38    35    1
   123   123   122    2
   124    35    34    1
   125   121   122    1
   126   121   120    1
   127   137   138    1
   128   137   136    1
   129   142   143    1
   130   142   138   am
   131   143   146    1
   132   143   144    1
   133   156   158   ar
   134   156   155   ar
   135   138   139    2
   136   149   147   ar
   137   158   160   ar
   138   146   147    1
   139   147   148   ar
   140   150   144   am
   141   150   151    1
   142   154   155    1
   143   154   151    1
   144   144   145    2
   145   155   157   ar
   146   151   152    1
   147   160   159   ar
   148   152   153    2
   149   157   159   ar
