@<TRIPOS>MOLECULE
tmp/4ftlA00.pdb
 173 162 0 0 0
SMALL
GASTEIGER

@<TRIPOS>ATOM
      1  N         18.4430   -9.2830   -0.0530 N.3    11  GLN11      -0.1245
      2  CA        19.2150   -9.9550    1.0090 C.3    11  GLN11       0.1566
      3  C         18.4800   -9.9730    2.3640 C.2    11  GLN11       0.2260
      4  O         17.6070   -9.1390    2.6100 O.2    11  GLN11      -0.2867
      5  CB        20.6210   -9.3250    1.1800 C.3    11  GLN11       0.0367
      6  CG        20.6450   -7.8690    1.6470 C.3    11  GLN11       0.0905
      7  CD        22.0560   -7.3950    1.8720 C.2    11  GLN11       0.2608
      8  OE1       22.7280   -6.9070    0.9550 O.2    11  GLN11      -0.2717
      9  NE2       22.5400   -7.5390    3.0970 N.am   11  GLN11      -0.0878
     10  N         18.2280   -9.5660    6.4990 N.3    13  LEU13      -0.1231
     11  CA        18.7080   -8.6210    7.5090 C.3    13  LEU13       0.1693
     12  C         18.5740   -9.1830    8.9360 C.2    13  LEU13       0.2592
     13  O         19.3400   -8.7880    9.8150 O.2    13  LEU13      -0.2718
     14  CB        17.9470   -7.2840    7.4060 C.3    13  LEU13       0.0284
     15  CG        18.0040   -6.5320    6.0760 C.3    13  LEU13       0.0019
     16  CD1       16.8880   -5.5180    5.9950 C.3    13  LEU13       0.0001
     17  CD2       19.3540   -5.8500    5.8710 C.3    13  LEU13       0.0001
     18  N         17.6020  -10.0720    9.1460 N.am   14  GLY14      -0.1957
     19  CA        17.3380  -10.6980   10.4380 C.3    14  GLY14       0.1869
     20  C         16.2990  -11.8000   10.3930 C.2    14  GLY14       0.2309
     21  O         15.7140  -12.0760    9.3430 O.2    14  GLY14      -0.2863
     22  N         13.4300  -10.9530    8.2290 N.3    16  VAL16      -0.1245
     23  CA        13.5120   -9.5650    7.7610 C.3    16  VAL16       0.1561
     24  C         14.3870   -9.5510    6.5070 C.2    16  VAL16       0.2260
     25  O         15.5330  -10.0020    6.5520 O.2    16  VAL16      -0.2867
     26  CB        14.0240   -8.5770    8.8530 C.3    16  VAL16       0.0252
     27  CG1       14.1990   -7.1630    8.2940 C.3    16  VAL16       0.0019
     28  CG2       13.0960   -8.5580   10.0620 C.3    16  VAL16       0.0019
     29  N         12.7350   -2.4610    4.5880 N.3    29  ALA29      -0.1245
     30  CA        12.8550   -3.7460    5.2790 C.3    29  ALA29       0.1562
     31  C         11.4800   -4.4240    5.3340 C.2    29  ALA29       0.2260
     32  O         10.4990   -3.7980    5.7490 O.2    29  ALA29      -0.2867
     33  CB        13.4170   -3.5450    6.6810 C.3    29  ALA29       0.0290
     34  N          9.3350   -7.5460    6.8550 N.3    31  LYS31      -0.1245
     35  CA         9.2190   -8.5830    7.8770 C.3    31  LYS31       0.1561
     36  C          8.1340   -9.5660    7.4260 C.2    31  LYS31       0.2260
     37  O          6.9890   -9.1600    7.1950 O.2    31  LYS31      -0.2867
     38  CB         8.9090   -7.9640    9.2560 C.3    31  LYS31       0.0271
     39  CG         9.0130   -8.9350   10.4250 C.3    31  LYS31       0.0035
     40  CD         8.6680   -8.2460   11.7350 C.3    31  LYS31       0.0206
     41  CE         8.5440   -9.2150   12.8850 C.3    31  LYS31       0.1093
     42  NZ         9.6740   -9.0860   13.8430 N.3    31  LYS31      -0.1314
     43  N          0.9310   -6.0280   16.9370 N.3    38  GLU38      -0.1245
     44  CA         2.1780   -5.5270   16.3600 C.3    38  GLU38       0.1567
     45  C          1.9130   -4.5210   15.2240 C.2    38  GLU38       0.2260
     46  O          2.5860   -3.4920   15.1580 O.2    38  GLU38      -0.2867
     47  CB         3.0110   -6.7080   15.8380 C.3    38  GLU38       0.0388
     48  CG         4.3830   -6.3160   15.3180 C.3    38  GLU38       0.1160
     49  CD         5.4210   -7.4140   15.1880 C.2    38  GLU38       0.3649
     50  OE1        5.0640   -8.6130   15.2510 O.co2  38  GLU38      -0.2457
     51  OE2        6.6080   -7.0620   15.0050 O.co2  38  GLU38      -0.2457
     52  N          2.2730   -0.3980   15.5160 N.3    42  ASN42      -0.1240
     53  CA         3.1030    0.2080   14.4620 C.3    42  ASN42       0.1653
     54  C          2.3520    1.3030   13.6800 C.2    42  ASN42       0.2266
     55  O          2.9780    2.2820   13.2740 O.2    42  ASN42      -0.2867
     56  CB         3.6460   -0.8510   13.4990 C.3    42  ASN42       0.1155
     57  CG         5.0370   -1.3220   13.8550 C.2    42  ASN42       0.2627
     58  OD1        6.0160   -0.5680   13.7920 O.2    42  ASN42      -0.2716
     59  ND2        5.1610   -2.5840   14.2210 N.am   42  ASN42      -0.0877
     60  N         11.5150    3.2960   14.2720 N.3    51  VAL51      -0.1245
     61  CA        11.5110    2.7310   12.9160 C.3    51  VAL51       0.1561
     62  C         10.1260    2.9780   12.2670 C.2    51  VAL51       0.2260
     63  O          9.0990    2.6370   12.8570 O.2    51  VAL51      -0.2867
     64  CB        11.9120    1.2260   12.9140 C.3    51  VAL51       0.0252
     65  CG1       11.5860    0.5660   11.5830 C.3    51  VAL51       0.0019
     66  CG2       13.3910    1.0540   13.2270 C.3    51  VAL51       0.0019
     67  N          5.2680   -7.0310    6.5530 N.3    65  LEU65      -0.1245
     68  CA         5.3440   -5.7320    7.2140 C.3    65  LEU65       0.1561
     69  C          6.4060   -4.8840    6.5300 C.2    65  LEU65       0.2260
     70  O          7.5770   -5.2680    6.5060 O.2    65  LEU65      -0.2867
     71  CB         5.6310   -5.8910    8.7210 C.3    65  LEU65       0.0270
     72  CG         4.4090   -5.9200    9.6420 C.3    65  LEU65       0.0019
     73  CD1        3.7760   -7.3080    9.6910 C.3    65  LEU65       0.0001
     74  CD2        4.7780   -5.4850   11.0490 C.3    65  LEU65       0.0001
     75  N          8.6450   -1.9340    6.5930 N.3    67  LEU67      -0.1231
     76  CA         9.2880   -1.0730    7.5860 C.3    67  LEU67       0.1693
     77  C         10.5490   -0.3900    7.0480 C.2    67  LEU67       0.2592
     78  O         11.0810   -0.7780    6.0070 O.2    67  LEU67      -0.2718
     79  CB         9.6290   -1.8870    8.8530 C.3    67  LEU67       0.0284
     80  CG         8.4560   -2.6080    9.5270 C.3    67  LEU67       0.0019
     81  CD1        8.8330   -4.0240    9.9080 C.3    67  LEU67       0.0001
     82  CD2        7.9150   -1.8140   10.7070 C.3    67  LEU67       0.0001
     83  N         11.0010    0.6510    7.7680 N.am   68  GLU68      -0.1966
     84  CA        12.1610    1.4900    7.4550 C.3    68  GLU68       0.1733
     85  C         13.4740    0.6990    7.4090 C.2    68  GLU68       0.2616
     86  O         13.7850   -0.0350    8.3500 O.2    68  GLU68      -0.2715
     87  CB        12.2700    2.6050    8.5100 C.3    68  GLU68       0.0429
     88  CG        13.3230    3.6660    8.2340 C.3    68  GLU68       0.1163
     89  CD        13.4480    4.7380    9.3010 C.2    68  GLU68       0.3649
     90  OE1       12.6200    4.7610   10.2450 O.co2  68  GLU68      -0.2457
     91  OE2       14.3810    5.5640    9.1850 O.co2  68  GLU68      -0.2457
     92  N         14.2550    0.8860    6.3310 N.am   69  TYR69      -0.1960
     93  CA        15.5640    0.2570    6.2120 C.3    69  TYR69       0.1771
     94  C         16.6040    1.1620    6.8600 C.2    69  TYR69       0.2620
     95  O         16.7290    2.3350    6.5010 O.2    69  TYR69      -0.2715
     96  CB        15.9370   -0.0700    4.7520 C.3    69  TYR69       0.0574
     97  CG        17.3750   -0.5170    4.5690 C.ar   69  TYR69      -0.0198
     98  CD1       17.8440   -1.6900    5.1580 C.ar   69  TYR69      -0.0009
     99  CD2       18.2660    0.2290    3.8020 C.ar   69  TYR69      -0.0009
    100  CE1       19.1630   -2.1110    4.9840 C.ar   69  TYR69       0.0417
    101  CE2       19.5870   -0.1810    3.6220 C.ar   69  TYR69       0.0417
    102  CZ        20.0320   -1.3500    4.2170 C.ar   69  TYR69       0.1957
    103  OH        21.3360   -1.7540    4.0520 O.3    69  TYR69      -0.2866
    104  N         17.3320    0.6110    7.8280 N.am   70  CYS70      -0.1954
    105  CA        18.3780    1.3190    8.5520 C.3    70  CYS70       0.1843
    106  C         19.7220    0.6910    8.1440 C.2    70  CYS70       0.2626
    107  O         20.0540   -0.4080    8.5890 O.2    70  CYS70      -0.2714
    108  CB        18.1250    1.2620   10.0600 C.3    70  CYS70       0.0997
    109  SG        16.4410    1.7370   10.5590 S.3    70  CYS70      -0.0797
    110  N         20.4400    1.3560    7.2130 N.am   71  SER71      -0.1936
    111  CA        21.6970    0.8820    6.6120 C.3    71  SER71       0.2055
    112  C         22.8570    0.7180    7.6210 C.2    71  SER71       0.2644
    113  O         23.7250   -0.1350    7.4010 O.2    71  SER71      -0.2714
    114  CB        22.1310    1.7980    5.4710 C.3    71  SER71       0.2130
    115  OG        22.4690    3.1010    5.9150 O.3    71  SER71      -0.2179
    116  N         22.8430    1.4990    8.7070 N.am   72  GLY72      -0.1939
    117  CA        23.8530    1.4460    9.7640 C.3    72  GLY72       0.2014
    118  C         23.8140    0.1960   10.6270 C.2    72  GLY72       0.2639
    119  O         24.7430   -0.0510   11.4000 O.2    72  GLY72      -0.2714
    120  N         22.7490   -0.5920   10.4880 N.am   73  GLY73      -0.1939
    121  CA        22.5610   -1.8420   11.2080 C.3    73  GLY73       0.2014
    122  C         22.2220   -1.6680   12.6690 C.2    73  GLY73       0.2641
    123  O         21.6510   -0.6500   13.0590 O.2    73  GLY73      -0.2714
    124  N         22.5940   -2.6610   13.4830 N.am   74  GLU74      -0.1931
    125  CA        22.3260   -2.7020   14.9200 C.3    74  GLU74       0.1818
    126  C         23.3890   -1.9720   15.7370 C.2    74  GLU74       0.2332
    127  O         24.5690   -2.0210   15.3970 O.2    74  GLU74      -0.2860
    128  CB        22.2460   -4.1630   15.4080 C.2    74  GLU74       0.0097
    129  CG        21.1690   -5.0130   14.7450 C.2    74  GLU74       0.0837
    130  CD        21.1320   -6.4740   15.1540 C.2    74  GLU74       0.3877
    131  OE1       21.9430   -6.8840   16.0160 O.co2  74  GLU74      -0.2406
    132  OE2       20.2820   -7.2140   14.6100 O.co2  74  GLU74      -0.2406
    133  N         26.4640   -4.0030   17.1000 N.3    77  ASP77      -0.1239
    134  CA        27.6860   -4.1210   16.3040 C.3    77  ASP77       0.1674
    135  C         28.5660   -2.8640   16.3570 C.2    77  ASP77       0.2266
    136  O         29.5720   -2.8110   15.6540 O.2    77  ASP77      -0.2867
    137  CB        27.3510   -4.4900   14.8500 C.3    77  ASP77       0.1410
    138  CG        26.6790   -5.8450   14.7240 C.2    77  ASP77       0.3668
    139  OD1       27.1700   -6.8160   15.3470 O.co2  77  ASP77      -0.2456
    140  OD2       25.6590   -5.9340   14.0130 O.co2  77  ASP77      -0.2456
    141  N         18.4140    0.2560   16.0290 N.3   120  LEU120     -0.1245
    142  CA        19.0060    0.3460   14.6900 C.3   120  LEU120      0.1561
    143  C         19.5260    1.7480   14.3930 C.2   120  LEU120      0.2260
    144  O         19.1320    2.7100   15.0560 O.2   120  LEU120     -0.2867
    145  CB        18.0120   -0.0890   13.5940 C.3   120  LEU120      0.0270
    146  CG        17.2850   -1.4320   13.7900 C.3   120  LEU120      0.0019
    147  CD1       16.2720   -1.6480   12.7010 C.3   120  LEU120      0.0001
    148  CD2       18.2620   -2.6260   13.8800 C.3   120  LEU120      0.0001
    149  N         13.2970   -0.4070   17.2570 N.3   130  SER130     -0.1202
    150  CA        12.6240   -1.3780   16.3960 C.3   130  SER130      0.2020
    151  C         12.0880   -2.5830   17.1950 C.2   130  SER130      0.2619
    152  O         12.4470   -2.7660   18.3610 O.2   130  SER130     -0.2717
    153  CB        13.5480   -1.8480   15.2690 C.3   130  SER130      0.2103
    154  OG        14.3720   -2.9430   15.6290 O.3   130  SER130     -0.2182
    155  N         11.2380   -3.4030   16.5260 N.am  131  ASP131     -0.1959
    156  CA        10.5670   -4.6200   17.0020 C.3   131  ASP131      0.1840
    157  C          9.5260   -4.2960   18.0710 C.2   131  ASP131      0.2622
    158  O          9.8360   -4.2400   19.2650 O.2   131  ASP131     -0.2715
    159  CB        11.5490   -5.7140   17.4830 C.3   131  ASP131      0.1450
    160  CG        10.9780   -7.1270   17.4630 C.2   131  ASP131      0.3671
    161  OD1        9.7330   -7.2700   17.4440 O.co2 131  ASP131     -0.2456
    162  OD2       11.7770   -8.0880   17.4700 O.co2 131  ASP131     -0.2456
    163  N          8.2730   -4.1190   17.6280 N.am  132  PHE132     -0.1974
    164  CA         7.1620   -3.8130   18.5210 C.3   132  PHE132      0.1639
    165  C          6.2770   -5.0490   18.7140 C.2   132  PHE132      0.2290
    166  O          5.0940   -4.9340   19.0530 O.2   132  PHE132     -0.2864
    167  CB         6.3800   -2.5890   18.0090 C.3   132  PHE132      0.0560
    168  CG         7.1820   -1.3250   18.1990 C.ar  132  PHE132     -0.0200
    169  CD1        8.0300   -0.8620   17.1960 C.ar  132  PHE132     -0.0042
    170  CD2        7.1440   -0.6330   19.4050 C.ar  132  PHE132     -0.0042
    171  CE1        8.8090    0.2840   17.3910 C.ar  132  PHE132     -0.0003
    172  CE2        7.9180    0.5170   19.5950 C.ar  132  PHE132     -0.0003
    173  CZ         8.7410    0.9680   18.5860 C.ar  132  PHE132     -0.0000
@<TRIPOS>BOND
     1     1     2    1
     2     8     7    2
     3     2     5    1
     4     2     3    1
     5     5     6    1
     6     6     7    1
     7     7     9   am
     8     3     4    2
     9   101    99   ar
    10   101   102   ar
    11    99    97   ar
    12   103   102    1
    13   102   100   ar
    14    97    96    1
    15    97    98   ar
    16    29    30    1
    17    96    93    1
    18   100    98   ar
    19    30    31    1
    20    30    33    1
    21    31    32    2
    22   114   115    1
    23   114   111    1
    24    17    15    1
    25    16    15    1
    26    78    77    2
    27    15    14    1
    28    93    92    1
    29    93    94    1
    30    92    85   am
    31    10    11    1
    32    95    94    2
    33    70    69    2
    34    24    25    2
    35    24    23    1
    36    69    68    1
    37    67    68    1
    38    75    76    1
    39   111   110    1
    40   111   112    1
    41    34    35    1
    42    94   104   am
    43    77    76    1
    44    77    83   am
    45    37    36    2
    46   110   106   am
    47    68    71    1
    48   113   112    2
    49    14    11    1
    50    85    84    1
    51    85    86    2
    52    36    35    1
    53    84    83    1
    54    84    87    1
    55    11    12    1
    56    76    79    1
    57   112   116   am
    58    23    22    1
    59    23    26    1
    60   104   105    1
    61    35    38    1
    62   106   105    1
    63   106   107    2
    64    88    87    1
    65    88    89    1
    66    27    26    1
    67   105   108    1
    68   116   117    1
    69    71    72    1
    70    26    28    1
    71    79    80    1
    72    12    18   am
    73    12    13    2
    74    18    19    1
    75    91    89   ar
    76    38    39    1
    77    89    90   ar
    78    21    20    2
    79    80    81    1
    80    80    82    1
    81    72    73    1
    82    72    74    1
    83   117   118    1
    84   108   109    1
    85    20    19    1
    86    39    40    1
    87   120   118   am
    88   120   121    1
    89   118   119    2
    90   121   122    1
    91    65    64    1
    92    40    41    1
    93    62    63    2
    94    62    61    1
    95   122   123    2
    96   122   124   am
    97   147   146    1
    98    41    42    1
    99    64    61    1
   100    64    66    1
   101    61    60    1
   102    55    54    2
   103   124   125    1
   104    56    57    1
   105    56    53    1
   106   145   146    1
   107   145   142    1
   108    54    53    1
   109   146   148    1
   110    58    57    2
   111    57    59   am
   112   140   138   ar
   113   143   142    1
   114   143   144    2
   115    53    52    1
   116   132   130   ar
   117   142   141    1
   118   138   137    1
   119   138   139   ar
   120   129   130    1
   121   129   128    2
   122   137   134    1
   123   125   128    1
   124   125   126    1
   125    51    49   ar
   126   130   131   ar
   127    46    45    2
   128    49    50   ar
   129    49    48    1
   130    45    44    1
   131   153   154    1
   132   153   150    1
   133    48    47    1
   134   127   126    2
   135   136   135    2
   136    47    44    1
   137   134   135    1
   138   134   133    1
   139    44    43    1
   140   150   151    1
   141   150   149    1
   142   155   156    1
   143   155   151   am
   144   156   159    1
   145   156   157    1
   146   151   152    2
   147   169   171   ar
   148   169   168   ar
   149   171   173   ar
   150   161   160   ar
   151   160   162   ar
   152   160   159    1
   153   163   157   am
   154   163   164    1
   155   167   168    1
   156   167   164    1
   157   157   158    2
   158   168   170   ar
   159   164   165    1
   160   173   172   ar
   161   165   166    2
   162   170   172   ar
