@<TRIPOS>MOLECULE
tmp/4ftmA00.pdb
 146 136 0 0 0
SMALL
GASTEIGER

@<TRIPOS>ATOM
      1  N         17.9090   -9.3780    6.4190 N.3    13  LEU13      -0.1231
      2  CA        18.4030   -8.4720    7.4550 C.3    13  LEU13       0.1693
      3  C         18.2920   -9.1240    8.8360 C.2    13  LEU13       0.2592
      4  O         19.1900   -8.9480    9.6580 O.2    13  LEU13      -0.2718
      5  CB        17.6390   -7.1370    7.4270 C.3    13  LEU13       0.0284
      6  CG        17.6190   -6.4200    6.0850 C.3    13  LEU13       0.0019
      7  CD1       16.7030   -5.2220    6.1300 C.3    13  LEU13       0.0001
      8  CD2       19.0180   -5.9920    5.6670 C.3    13  LEU13       0.0001
      9  N         17.2010   -9.8530    9.0690 N.am   14  GLY14      -0.1957
     10  CA        16.9520  -10.5620   10.3190 C.3    14  GLY14       0.1869
     11  C         16.1720  -11.8470   10.1240 C.2    14  GLY14       0.2309
     12  O         15.4320  -11.9900    9.1470 O.2    14  GLY14      -0.2863
     13  N         12.9090  -10.7720    8.2840 N.3    16  VAL16      -0.1245
     14  CA        12.9020   -9.4020    7.7700 C.3    16  VAL16       0.1561
     15  C         13.8010   -9.3770    6.5330 C.2    16  VAL16       0.2260
     16  O         14.9690   -9.7610    6.6340 O.2    16  VAL16      -0.2867
     17  CB        13.3510   -8.3400    8.8230 C.3    16  VAL16       0.0252
     18  CG1       13.1420   -6.9210    8.2890 C.3    16  VAL16       0.0019
     19  CG2       12.6150   -8.5180   10.1510 C.3    16  VAL16       0.0019
     20  N         12.3390   -2.2040    4.5330 N.3    29  ALA29      -0.1245
     21  CA        12.4590   -3.4870    5.2270 C.3    29  ALA29       0.1562
     22  C         11.0770   -4.1350    5.2270 C.2    29  ALA29       0.2260
     23  O         10.0870   -3.4600    5.5230 O.2    29  ALA29      -0.2867
     24  CB        12.9670   -3.2950    6.6570 C.3    29  ALA29       0.0290
     25  N          8.7810   -7.2520    6.7630 N.3    31  LYS31      -0.1245
     26  CA         8.6930   -8.3340    7.7380 C.3    31  LYS31       0.1561
     27  C          7.7050   -9.3650    7.1910 C.2    31  LYS31       0.2260
     28  O          6.5480   -9.0200    6.9660 O.2    31  LYS31      -0.2867
     29  CB         8.2800   -7.8200    9.1310 C.3    31  LYS31       0.0271
     30  CG         8.0960   -8.9440   10.1330 C.3    31  LYS31       0.0035
     31  CD         8.0320   -8.4520   11.5550 C.3    31  LYS31       0.0206
     32  CE         8.0530   -9.6270   12.4960 C.3    31  LYS31       0.1093
     33  NZ         7.3710   -9.3170   13.7720 N.3    31  LYS31      -0.1314
     34  N          0.7450   -6.1470   16.7530 N.3    38  GLU38      -0.1245
     35  CA         1.9720   -5.4940   16.2620 C.3    38  GLU38       0.1567
     36  C          1.6450   -4.4960   15.1500 C.2    38  GLU38       0.2260
     37  O          2.1820   -3.3960   15.1500 O.2    38  GLU38      -0.2867
     38  CB         2.9820   -6.5390   15.7560 C.3    38  GLU38       0.0388
     39  CG         4.3090   -5.9700   15.2750 C.3    38  GLU38       0.1160
     40  CD         5.3750   -6.9950   14.9470 C.2    38  GLU38       0.3649
     41  OE1        5.1700   -8.1930   15.2470 O.co2  38  GLU38      -0.2457
     42  OE2        6.4290   -6.5940   14.4040 O.co2  38  GLU38      -0.2457
     43  N          1.8730   -0.4460   15.5120 N.3    42  ASN42      -0.1240
     44  CA         2.6800    0.2320   14.4780 C.3    42  ASN42       0.1653
     45  C          1.9270    1.3390   13.7440 C.2    42  ASN42       0.2266
     46  O          2.5160    2.3830   13.4710 O.2    42  ASN42      -0.2867
     47  CB         3.2100   -0.7660   13.4510 C.3    42  ASN42       0.1155
     48  CG         4.6200   -1.1930   13.7450 C.2    42  ASN42       0.2627
     49  OD1        5.5530   -0.4050   13.6570 O.2    42  ASN42      -0.2716
     50  ND2        4.7990   -2.4330   14.1300 N.am   42  ASN42      -0.0877
     51  N         11.1580    3.2890   14.2200 N.3    51  VAL51      -0.1245
     52  CA        11.1790    2.7770   12.8480 C.3    51  VAL51       0.1561
     53  C          9.7810    2.9740   12.2260 C.2    51  VAL51       0.2260
     54  O          8.7920    2.5500   12.8000 O.2    51  VAL51      -0.2867
     55  CB        11.6520    1.3000   12.7430 C.3    51  VAL51       0.0252
     56  CG1       11.4070    0.7410   11.3390 C.3    51  VAL51       0.0019
     57  CG2       13.1140    1.1460   13.1300 C.3    51  VAL51       0.0019
     58  N          4.7410   -6.9300    6.4200 N.3    65  LEU65      -0.1245
     59  CA         4.7770   -5.6070    7.0520 C.3    65  LEU65       0.1561
     60  C          5.8360   -4.8010    6.3360 C.2    65  LEU65       0.2260
     61  O          6.9590   -5.2800    6.2140 O.2    65  LEU65      -0.2867
     62  CB         5.0720   -5.6790    8.5700 C.3    65  LEU65       0.0270
     63  CG         3.8570   -5.8650    9.4890 C.3    65  LEU65       0.0019
     64  CD1        3.3580   -7.3000    9.4540 C.3    65  LEU65       0.0001
     65  CD2        4.1880   -5.4430   10.9330 C.3    65  LEU65       0.0001
     66  N          8.2530   -1.7490    6.3740 N.3    67  LEU67      -0.1231
     67  CA         8.8820   -0.9170    7.3980 C.3    67  LEU67       0.1693
     68  C         10.0930   -0.1360    6.8950 C.2    67  LEU67       0.2592
     69  O         10.7580   -0.5330    5.9380 O.2    67  LEU67      -0.2718
     70  CB         9.3380   -1.8210    8.5590 C.3    67  LEU67       0.0284
     71  CG         8.2570   -2.7040    9.2170 C.3    67  LEU67       0.0019
     72  CD1        8.8360   -4.0520    9.6220 C.3    67  LEU67       0.0001
     73  CD2        7.6200   -2.0050   10.3690 C.3    67  LEU67       0.0001
     74  N         10.4140    0.9480    7.6040 N.am   68  GLU68      -0.1966
     75  CA        11.5820    1.7790    7.3030 C.3    68  GLU68       0.1733
     76  C         12.8570    0.9350    7.3520 C.2    68  GLU68       0.2616
     77  O         13.0480    0.1650    8.3020 O.2    68  GLU68      -0.2715
     78  CB        11.6760    2.9350    8.3110 C.3    68  GLU68       0.0429
     79  CG        12.8570    3.8690    8.1140 C.3    68  GLU68       0.1163
     80  CD        12.9770    4.9640    9.1520 C.2    68  GLU68       0.3649
     81  OE1       12.1170    5.0370   10.0610 O.co2  68  GLU68      -0.2457
     82  OE2       13.9570    5.7360    9.0720 O.co2  68  GLU68      -0.2457
     83  N         13.7060    1.0750    6.3390 N.am   69  TYR69      -0.1960
     84  CA        14.9850    0.3820    6.2590 C.3    69  TYR69       0.1771
     85  C         16.0320    1.2490    6.9370 C.2    69  TYR69       0.2619
     86  O         16.1570    2.4370    6.6250 O.2    69  TYR69      -0.2715
     87  CB        15.3780    0.0750    4.8000 C.3    69  TYR69       0.0574
     88  CG        16.7990   -0.4320    4.6480 C.ar   69  TYR69      -0.0198
     89  CD1       17.2230   -1.5820    5.3050 C.ar   69  TYR69      -0.0009
     90  CD2       17.7140    0.2320    3.8400 C.ar   69  TYR69      -0.0009
     91  CE1       18.5150   -2.0820    5.1260 C.ar   69  TYR69       0.0417
     92  CE2       19.0040   -0.2590    3.6510 C.ar   69  TYR69       0.0417
     93  CZ        19.4090   -1.4080    4.3150 C.ar   69  TYR69       0.1957
     94  OH        20.6910   -1.8960    4.1770 O.3    69  TYR69      -0.2866
     95  N         16.7790    0.6510    7.8620 N.am   70  CYS70      -0.1968
     96  CA        17.8030    1.3300    8.6510 C.3    70  CYS70       0.1712
     97  C         19.1530    0.7360    8.2380 C.2    70  CYS70       0.2296
     98  O         19.5480   -0.3220    8.7330 O.2    70  CYS70      -0.2864
     99  CB        17.5150    1.1520   10.1370 C.3    70  CYS70       0.0983
    100  SG        15.9190    1.8310   10.6850 S.3    70  CYS70      -0.0798
    101  N         22.2580   -0.6110   10.4980 N.3    73  GLY73      -0.1210
    102  CA        22.1340   -1.8840   11.1970 C.3    73  GLY73       0.1956
    103  C         21.8340   -1.7350   12.6750 C.2    73  GLY73       0.2611
    104  O         21.3490   -0.6950   13.1150 O.2    73  GLY73      -0.2717
    105  N         22.1290   -2.7680   13.4530 N.am   74  GLU74      -0.1979
    106  CA        21.8160   -2.7730   14.8770 C.3    74  GLU74       0.1602
    107  C         22.8330   -2.0130   15.6920 C.2    74  GLU74       0.2287
    108  O         24.0240   -2.0940   15.4200 O.2    74  GLU74      -0.2864
    109  CB        21.7380   -4.2080   15.4250 C.3    74  GLU74       0.0415
    110  CG        20.6750   -5.0710   14.7570 C.3    74  GLU74       0.1163
    111  CD        20.6710   -6.5220   15.1820 C.2    74  GLU74       0.3649
    112  OE1       21.4250   -6.8790   16.1180 O.co2  74  GLU74      -0.2457
    113  OE2       19.8970   -7.3030   14.5870 O.co2  74  GLU74      -0.2457
    114  N         17.9190    0.2920   15.9810 N.3   120  LEU120     -0.1245
    115  CA        18.5700    0.3260   14.6760 C.3   120  LEU120      0.1561
    116  C         19.0720    1.6970   14.3670 C.2   120  LEU120      0.2260
    117  O         18.6520    2.6580   14.9990 O.2   120  LEU120     -0.2867
    118  CB        17.6030   -0.1390   13.5800 C.3   120  LEU120      0.0270
    119  CG        16.8860   -1.4630   13.8480 C.3   120  LEU120      0.0019
    120  CD1       15.9100   -1.7550   12.7340 C.3   120  LEU120      0.0001
    121  CD2       17.8620   -2.6230   14.0520 C.3   120  LEU120      0.0001
    122  N         12.9230   -0.3430   17.2040 N.3   130  SER130     -0.1202
    123  CA        12.2830   -1.3110   16.3130 C.3   130  SER130      0.2020
    124  C         11.7070   -2.5140   17.0730 C.2   130  SER130      0.2619
    125  O         11.9170   -2.6680   18.2660 O.2   130  SER130     -0.2717
    126  CB        13.2790   -1.7880   15.2550 C.3   130  SER130      0.2103
    127  OG        14.1190   -2.8230   15.7280 O.3   130  SER130     -0.2182
    128  N         10.9590   -3.3590   16.3570 N.am  131  ASP131     -0.1959
    129  CA        10.3060   -4.5810   16.8290 C.3   131  ASP131      0.1840
    130  C          9.2920   -4.3160   17.9250 C.2   131  ASP131      0.2622
    131  O          9.5980   -4.4120   19.1100 O.2   131  ASP131     -0.2715
    132  CB        11.3230   -5.6560   17.2690 C.3   131  ASP131      0.1450
    133  CG        10.7230   -7.0550   17.3100 C.2   131  ASP131      0.3671
    134  OD1        9.4760   -7.1780   17.1430 O.co2 131  ASP131     -0.2456
    135  OD2       11.5010   -8.0360   17.4590 O.co2 131  ASP131     -0.2456
    136  N          8.0450   -4.1110   17.5100 N.am  132  PHE132     -0.1974
    137  CA         6.9210   -3.8410   18.4060 C.3   132  PHE132      0.1639
    138  C          6.0920   -5.0820   18.6500 C.2   132  PHE132      0.2290
    139  O          4.9490   -4.9610   19.0850 O.2   132  PHE132     -0.2864
    140  CB         6.0610   -2.7010   17.8400 C.3   132  PHE132      0.0560
    141  CG         6.7900   -1.4030   18.0860 C.ar  132  PHE132     -0.0200
    142  CD1        7.8220   -0.9990   17.2500 C.ar  132  PHE132     -0.0042
    143  CD2        6.5640   -0.6740   19.2390 C.ar  132  PHE132     -0.0042
    144  CE1        8.5290    0.1770   17.5040 C.ar  132  PHE132     -0.0003
    145  CE2        7.2940    0.4840   19.5110 C.ar  132  PHE132     -0.0003
    146  CZ         8.3010    0.8800   18.6610 C.ar  132  PHE132     -0.0000
@<TRIPOS>BOND
     1    92    90   ar
     2    92    93   ar
     3    90    88   ar
     4    94    93    1
     5    93    91   ar
     6    20    21    1
     7    88    87    1
     8    88    89   ar
     9    87    84    1
    10    91    89   ar
    11    21    22    1
    12    21    24    1
    13    22    23    2
    14     8     6    1
    15    69    68    2
    16     6     7    1
    17     6     5    1
    18    61    60    2
    19    84    83    1
    20    84    85    1
    21    60    59    1
    22    83    76   am
    23    66    67    1
    24     1     2    1
    25    58    59    1
    26    15    16    2
    27    15    14    1
    28    86    85    2
    29    25    26    1
    30    68    67    1
    31    68    74   am
    32    85    95   am
    33    28    27    2
    34    59    62    1
    35    27    26    1
    36    75    76    1
    37    75    74    1
    38    75    78    1
    39    76    77    2
    40    67    70    1
    41     5     2    1
    42     2     3    1
    43    26    29    1
    44    14    13    1
    45    14    17    1
    46    95    96    1
    47    79    78    1
    48    79    80    1
    49    97    96    1
    50    97    98    2
    51    18    17    1
    52    70    71    1
    53    62    63    1
    54    96    99    1
    55    17    19    1
    56     3     9   am
    57     3     4    2
    58     9    10    1
    59    82    80   ar
    60    29    30    1
    61    12    11    2
    62    80    81   ar
    63    71    72    1
    64    71    73    1
    65    64    63    1
    66    63    65    1
    67    11    10    1
    68    30    31    1
    69    99   100    1
    70   101   102    1
    71   102   103    1
    72    56    55    1
    73    31    32    1
    74    53    54    2
    75    53    52    1
    76    32    33    1
    77   103   104    2
    78   103   105   am
    79   120   119    1
    80    55    52    1
    81    55    57    1
    82    52    51    1
    83    47    48    1
    84    47    44    1
    85   105   106    1
    86    46    45    2
    87   118   119    1
    88   118   115    1
    89    49    48    2
    90    45    44    1
    91    48    50   am
    92   119   121    1
    93   116   115    1
    94   116   117    2
    95    42    40   ar
    96    44    43    1
    97   113   111   ar
    98   115   114    1
    99   110   111    1
   100   110   109    1
   101   106   109    1
   102   106   107    1
   103    40    41   ar
   104    40    39    1
   105    37    36    2
   106    36    35    1
   107   111   112   ar
   108   126   127    1
   109   126   123    1
   110    39    38    1
   111   108   107    2
   112    38    35    1
   113    35    34    1
   114   123   124    1
   115   123   122    1
   116   128   129    1
   117   128   124   am
   118   129   132    1
   119   129   130    1
   120   124   125    2
   121   134   133   ar
   122   142   144   ar
   123   142   141   ar
   124   132   133    1
   125   133   135   ar
   126   144   146   ar
   127   136   130   am
   128   136   137    1
   129   140   141    1
   130   140   137    1
   131   130   131    2
   132   141   143   ar
   133   137   138    1
   134   138   139    2
   135   146   145   ar
   136   143   145   ar
