@<TRIPOS>MOLECULE
tmp/4ftnA00.pdb
 188 177 0 0 0
SMALL
GASTEIGER

@<TRIPOS>ATOM
      1  N         18.2760   -9.2990    0.1840 N.3    11  GLN11      -0.1231
      2  CA        18.9530  -10.1140    1.2070 C.3    11  GLN11       0.1698
      3  C         18.2840  -10.0670    2.5810 C.2    11  GLN11       0.2593
      4  O         17.5410   -9.1370    2.8980 O.2    11  GLN11      -0.2718
      5  CB        20.4400   -9.7370    1.3670 C.3    11  GLN11       0.0381
      6  CG        20.7340   -8.3740    1.9910 C.3    11  GLN11       0.0905
      7  CD        22.2240   -8.2200    2.1320 C.2    11  GLN11       0.2608
      8  OE1       22.8750   -7.4940    1.3720 O.2    11  GLN11      -0.2717
      9  NE2       22.8030   -8.9490    3.0780 N.am   11  GLN11      -0.0878
     10  N         18.6200  -11.0680    3.4130 N.am   12  THR12      -0.1939
     11  CA        18.0920  -11.2160    4.7710 C.3    12  THR12       0.2028
     12  C         18.7730  -10.2350    5.7200 C.2    12  THR12       0.2642
     13  O         19.9820  -10.0110    5.6220 O.2    12  THR12      -0.2714
     14  CB        18.2780  -12.6630    5.2700 C.3    12  THR12       0.1808
     15  OG1       17.9230  -13.5800    4.2310 O.3    12  THR12      -0.2208
     16  CG2       17.4650  -12.9600    6.5060 C.3    12  THR12       0.0379
     17  N         17.9890   -9.6480    6.6280 N.am   13  LEU13      -0.1963
     18  CA        18.4710   -8.7120    7.6400 C.3    13  LEU13       0.1728
     19  C         18.3420   -9.2650    9.0760 C.2    13  LEU13       0.2616
     20  O         19.0520   -8.7880    9.9540 O.2    13  LEU13      -0.2715
     21  CB        17.7060   -7.3910    7.5260 C.3    13  LEU13       0.0311
     22  CG        17.8060   -6.6670    6.1910 C.3    13  LEU13       0.0022
     23  CD1       16.9490   -5.4120    6.2010 C.3    13  LEU13       0.0001
     24  CD2       19.2610   -6.3250    5.8540 C.3    13  LEU13       0.0001
     25  N         17.4620  -10.2360    9.3150 N.am   14  GLY14      -0.1955
     26  CA        17.3010  -10.8160   10.6440 C.3    14  GLY14       0.1869
     27  C         16.1720  -11.8210   10.7380 C.2    14  GLY14       0.2309
     28  O         15.0230  -11.5030   10.4260 O.2    14  GLY14      -0.2863
     29  N         13.1620  -10.8460    8.4370 N.3    16  VAL16      -0.1245
     30  CA        13.2680   -9.4750    7.9280 C.3    16  VAL16       0.1561
     31  C         14.1630   -9.4950    6.6850 C.2    16  VAL16       0.2260
     32  O         15.2780  -10.0080    6.7570 O.2    16  VAL16      -0.2867
     33  CB        13.7980   -8.4930    9.0150 C.3    16  VAL16       0.0252
     34  CG1       13.8270   -7.0580    8.4950 C.3    16  VAL16       0.0019
     35  CG2       12.9470   -8.5620   10.2750 C.3    16  VAL16       0.0019
     36  N         15.7500   -7.1000    3.2360 N.3    18  LEU18      -0.1245
     37  CA        15.9640   -5.8120    2.5560 C.3    18  LEU18       0.1561
     38  C         15.2780   -5.9100    1.2030 C.2    18  LEU18       0.2260
     39  O         15.6440   -6.7880    0.4210 O.2    18  LEU18      -0.2867
     40  CB        17.4650   -5.4870    2.3640 C.3    18  LEU18       0.0270
     41  CG        17.8160   -4.4000    1.3230 C.3    18  LEU18       0.0019
     42  CD1       17.1300   -3.0990    1.6240 C.3    18  LEU18       0.0001
     43  CD2       19.3160   -4.1960    1.2390 C.3    18  LEU18       0.0001
     44  N         12.5940   -2.3370    4.6120 N.3    29  ALA29      -0.1245
     45  CA        12.6940   -3.5950    5.3420 C.3    29  ALA29       0.1562
     46  C         11.3360   -4.2660    5.3030 C.2    29  ALA29       0.2260
     47  O         10.3320   -3.6220    5.6100 O.2    29  ALA29      -0.2867
     48  CB        13.1270   -3.3430    6.7810 C.3    29  ALA29       0.0290
     49  N          9.0750   -7.4510    6.7460 N.3    31  LYS31      -0.1245
     50  CA         8.9740   -8.5220    7.7400 C.3    31  LYS31       0.1561
     51  C          7.9180   -9.5130    7.2570 C.2    31  LYS31       0.2260
     52  O          6.7660   -9.1250    7.0670 O.2    31  LYS31      -0.2867
     53  CB         8.6280   -7.9800    9.1380 C.3    31  LYS31       0.0271
     54  CG         8.7880   -9.0230   10.2420 C.3    31  LYS31       0.0035
     55  CD         7.9190   -8.7330   11.4520 C.3    31  LYS31       0.0206
     56  CE         8.1010   -9.7840   12.5230 C.3    31  LYS31       0.1093
     57  NZ         6.9720   -9.7920   13.4840 N.3    31  LYS31      -0.1314
     58  N          0.2690   -5.9800   16.7460 N.3    38  GLU38      -0.1245
     59  CA         1.5670   -5.5110   16.2780 C.3    38  GLU38       0.1567
     60  C          1.4090   -4.5290   15.1170 C.2    38  GLU38       0.2260
     61  O          2.0780   -3.4950   15.0950 O.2    38  GLU38      -0.2867
     62  CB         2.4010   -6.7220   15.8600 C.3    38  GLU38       0.0388
     63  CG         3.7610   -6.3920   15.2830 C.3    38  GLU38       0.1160
     64  CD         4.6860   -7.5860   15.1570 C.2    38  GLU38       0.3649
     65  OE1        4.2710   -8.7250   15.4750 O.co2  38  GLU38      -0.2457
     66  OE2        5.8500   -7.3670   14.7560 O.co2  38  GLU38      -0.2457
     67  N          1.9760   -0.3900   15.3870 N.3    42  ASN42      -0.1240
     68  CA         2.8210    0.2620   14.3820 C.3    42  ASN42       0.1653
     69  C          2.1060    1.4010   13.6480 C.2    42  ASN42       0.2266
     70  O          2.7430    2.4080   13.3380 O.2    42  ASN42      -0.2867
     71  CB         3.3400   -0.7600   13.3610 C.3    42  ASN42       0.1155
     72  CG         4.6070   -1.4310   13.8020 C.2    42  ASN42       0.2627
     73  OD1        5.6570   -0.8040   13.8460 O.2    42  ASN42      -0.2716
     74  ND2        4.5520   -2.7070   14.1260 N.am   42  ASN42      -0.0877
     75  N         11.3460    3.3320   14.1850 N.3    51  VAL51      -0.1245
     76  CA        11.3130    2.8100   12.8100 C.3    51  VAL51       0.1561
     77  C          9.9370    3.0930   12.1750 C.2    51  VAL51       0.2260
     78  O          8.9270    2.7900   12.7980 O.2    51  VAL51      -0.2867
     79  CB        11.6440    1.2920   12.8050 C.3    51  VAL51       0.0252
     80  CG1       11.1330    0.6000   11.5430 C.3    51  VAL51       0.0019
     81  CG2       13.1390    1.0670   12.9810 C.3    51  VAL51       0.0019
     82  N          4.8610   -7.0210    6.4370 N.3    65  LEU65      -0.1245
     83  CA         4.8790   -5.6870    7.0660 C.3    65  LEU65       0.1561
     84  C          5.9790   -4.8690    6.3980 C.2    65  LEU65       0.2260
     85  O          7.1030   -5.3530    6.3150 O.2    65  LEU65      -0.2867
     86  CB         5.0950   -5.7720    8.5920 C.3    65  LEU65       0.0270
     87  CG         3.8420   -6.0170    9.4230 C.3    65  LEU65       0.0019
     88  CD1        3.3140   -7.4290    9.2270 C.3    65  LEU65       0.0001
     89  CD2        4.1090   -5.7550   10.8940 C.3    65  LEU65       0.0001
     90  N          8.4070   -1.8260    6.4520 N.3    67  LEU67      -0.1231
     91  CA         9.0380   -0.9520    7.4340 C.3    67  LEU67       0.1693
     92  C         10.3080   -0.2640    6.9330 C.2    67  LEU67       0.2592
     93  O         10.9250   -0.7010    5.9630 O.2    67  LEU67      -0.2718
     94  CB         9.3940   -1.7960    8.6620 C.3    67  LEU67       0.0284
     95  CG         8.2030   -2.5020    9.3670 C.3    67  LEU67       0.0019
     96  CD1        8.5290   -3.9550    9.6780 C.3    67  LEU67       0.0001
     97  CD2        7.7510   -1.7450   10.5720 C.3    67  LEU67       0.0001
     98  N         10.7280    0.7880    7.6620 N.am   68  GLU68      -0.1966
     99  CA        11.9240    1.5710    7.3370 C.3    68  GLU68       0.1733
    100  C         13.1830    0.7280    7.3390 C.2    68  GLU68       0.2616
    101  O         13.4130   -0.0550    8.2750 O.2    68  GLU68      -0.2715
    102  CB        12.0880    2.7080    8.3520 C.3    68  GLU68       0.0429
    103  CG        13.2640    3.6440    8.1250 C.3    68  GLU68       0.1163
    104  CD        13.2660    4.8250    9.0740 C.2    68  GLU68       0.3649
    105  OE1       12.3840    4.8940    9.9610 O.co2  68  GLU68      -0.2457
    106  OE2       14.1790    5.6710    8.9490 O.co2  68  GLU68      -0.2457
    107  N         14.0030    0.9240    6.3110 N.am   69  TYR69      -0.1960
    108  CA        15.3060    0.2960    6.1720 C.3    69  TYR69       0.1771
    109  C         16.3440    1.2340    6.7900 C.2    69  TYR69       0.2620
    110  O         16.4240    2.4040    6.4270 O.2    69  TYR69      -0.2715
    111  CB        15.6490   -0.0160    4.7200 C.3    69  TYR69       0.0574
    112  CG        17.0590   -0.5430    4.5460 C.ar   69  TYR69      -0.0198
    113  CD1       17.4430   -1.7600    5.1000 C.ar   69  TYR69      -0.0009
    114  CD2       18.0180    0.1880    3.8520 C.ar   69  TYR69      -0.0009
    115  CE1       18.7380   -2.2530    4.9370 C.ar   69  TYR69       0.0417
    116  CE2       19.3180   -0.2840    3.6990 C.ar   69  TYR69       0.0417
    117  CZ        19.6780   -1.5050    4.2480 C.ar   69  TYR69       0.1957
    118  OH        20.9570   -1.9960    4.0970 O.3    69  TYR69      -0.2866
    119  N         17.1240    0.6970    7.7160 N.am   70  CYS70      -0.1954
    120  CA        18.1330    1.3730    8.5050 C.3    70  CYS70       0.1843
    121  C         19.4850    0.7950    8.0940 C.2    70  CYS70       0.2626
    122  O         19.8680   -0.2840    8.5450 O.2    70  CYS70      -0.2714
    123  CB        17.8190    1.1490    9.9800 C.3    70  CYS70       0.0997
    124  SG        16.1940    1.7850   10.4870 S.3    70  CYS70      -0.0797
    125  N         20.1820    1.4960    7.2060 N.am   71  SER71      -0.1936
    126  CA        21.4250    1.0140    6.5780 C.3    71  SER71       0.2055
    127  C         22.6430    0.9270    7.5280 C.2    71  SER71       0.2644
    128  O         23.5890    0.2030    7.2030 O.2    71  SER71      -0.2714
    129  CB        21.7790    1.8760    5.3670 C.3    71  SER71       0.2130
    130  OG        22.0210    3.2290    5.7190 O.3    71  SER71      -0.2179
    131  N         22.5930    1.6050    8.6810 N.am   72  GLY72      -0.1939
    132  CA        23.6450    1.5380    9.6990 C.3    72  GLY72       0.2014
    133  C         23.6150    0.2640   10.5270 C.2    72  GLY72       0.2639
    134  O         24.5550   -0.0270   11.2730 O.2    72  GLY72      -0.2714
    135  N         22.5440   -0.5100   10.3880 N.am   73  GLY73      -0.1939
    136  CA        22.3750   -1.7690   11.0940 C.3    73  GLY73       0.2014
    137  C         22.0160   -1.6050   12.5510 C.2    73  GLY73       0.2638
    138  O         21.4470   -0.5940   12.9470 O.2    73  GLY73      -0.2714
    139  N         22.3760   -2.5940   13.3490 N.am   74  GLU74      -0.1977
    140  CA        22.0600   -2.6450   14.7550 C.3    74  GLU74       0.1602
    141  C         23.0810   -1.9330   15.6060 C.2    74  GLU74       0.2287
    142  O         24.2700   -2.0870   15.3710 O.2    74  GLU74      -0.2864
    143  CB        21.9990   -4.1030   15.2180 C.3    74  GLU74       0.0415
    144  CG        20.9230   -4.9230   14.5420 C.3    74  GLU74       0.1163
    145  CD        20.8730   -6.3640   15.0070 C.2    74  GLU74       0.3649
    146  OE1       21.6220   -6.7330   15.9450 O.co2  74  GLU74      -0.2457
    147  OE2       20.0370   -7.1140   14.4610 O.co2  74  GLU74      -0.2457
    148  N         26.0950   -3.9930   16.9380 N.3    77  ASP77      -0.1239
    149  CA        27.3490   -4.1110   16.1760 C.3    77  ASP77       0.1674
    150  C         28.2700   -2.8780   16.2610 C.2    77  ASP77       0.2266
    151  O         29.3610   -2.9340   15.7120 O.2    77  ASP77      -0.2867
    152  CB        27.0560   -4.4580   14.7050 C.3    77  ASP77       0.1410
    153  CG        26.3720   -5.8070   14.5570 C.2    77  ASP77       0.3668
    154  OD1       26.7740   -6.7530   15.2570 O.co2  77  ASP77      -0.2456
    155  OD2       25.4440   -5.9160   13.7280 O.co2  77  ASP77      -0.2456
    156  N         18.1350    0.3280   15.8780 N.3   120  LEU120     -0.1245
    157  CA        18.7700    0.4030   14.5650 C.3   120  LEU120      0.1561
    158  C         19.2940    1.7930   14.2580 C.2   120  LEU120      0.2260
    159  O         18.8690    2.7660   14.8720 O.2   120  LEU120     -0.2867
    160  CB        17.7850   -0.0320   13.4880 C.3   120  LEU120      0.0270
    161  CG        17.0420   -1.3540   13.7710 C.3   120  LEU120      0.0019
    162  CD1       16.1850   -1.7370   12.5770 C.3   120  LEU120      0.0001
    163  CD2       18.0030   -2.5050   14.0790 C.3   120  LEU120      0.0001
    164  N         13.0860   -0.2730   17.2000 N.3   130  SER130     -0.1202
    165  CA        12.4380   -1.2220   16.3040 C.3   130  SER130      0.2020
    166  C         11.9290   -2.4740   17.0420 C.2   130  SER130      0.2619
    167  O         12.2270   -2.7090   18.2160 O.2   130  SER130     -0.2717
    168  CB        13.3870   -1.6220   15.1710 C.3   130  SER130      0.2103
    169  OG        14.1720   -2.7670   15.4620 O.3   130  SER130     -0.2182
    170  N         11.1330   -3.2570   16.3240 N.am  131  ASP131     -0.1959
    171  CA        10.4880   -4.4970   16.7560 C.3   131  ASP131      0.1840
    172  C          9.4770   -4.2700   17.8760 C.2   131  ASP131      0.2622
    173  O          9.8180   -4.3620   19.0570 O.2   131  ASP131     -0.2715
    174  CB        11.5060   -5.5850   17.1520 C.3   131  ASP131      0.1450
    175  CG        10.8850   -6.9860   17.1410 C.2   131  ASP131      0.3671
    176  OD1        9.6270   -7.0890   17.2640 O.co2 131  ASP131     -0.2456
    177  OD2       11.6480   -7.9760   16.9780 O.co2 131  ASP131     -0.2456
    178  N          8.2090   -4.0770   17.4800 N.am  132  PHE132     -0.1974
    179  CA         7.0780   -3.8360   18.3530 C.3   132  PHE132      0.1639
    180  C          6.2060   -5.0780   18.5450 C.2   132  PHE132      0.2290
    181  O          5.0620   -4.9510   18.9830 O.2   132  PHE132     -0.2864
    182  CB         6.2500   -2.6560   17.8150 C.3   132  PHE132      0.0560
    183  CG         6.9930   -1.3700   18.0520 C.ar  132  PHE132     -0.0200
    184  CD1        8.0190   -0.9750   17.2020 C.ar  132  PHE132     -0.0042
    185  CD2        6.7670   -0.6240   19.1970 C.ar  132  PHE132     -0.0042
    186  CE1        8.7710    0.1730   17.4760 C.ar  132  PHE132     -0.0003
    187  CE2        7.5390    0.5010   19.4820 C.ar  132  PHE132     -0.0003
    188  CZ         8.5270    0.8950   18.6170 C.ar  132  PHE132     -0.0000
@<TRIPOS>BOND
     1     1     2    1
     2    39    38    2
     3    38    37    1
     4     2     5    1
     5     2     3    1
     6    43    41    1
     7    41    42    1
     8    41    40    1
     9     5     6    1
    10     8     7    2
    11     6     7    1
    12     7     9   am
    13    40    37    1
    14    37    36    1
    15     3     4    2
    16     3    10   am
    17    10    11    1
    18   116   114   ar
    19   116   117   ar
    20   114   112   ar
    21   118   117    1
    22    15    14    1
    23   117   115   ar
    24   112   111    1
    25   112   113   ar
    26    44    45    1
    27   111   108    1
    28    11    14    1
    29    11    12    1
    30   115   113   ar
    31    14    16    1
    32    46    45    1
    33    46    47    2
    34    45    48    1
    35   129   130    1
    36   129   126    1
    37    13    12    2
    38    12    17   am
    39    24    22    1
    40    93    92    2
    41   108   107    1
    42   108   109    1
    43    22    23    1
    44    22    21    1
    45   107   100   am
    46    85    84    2
    47    84    83    1
    48   110   109    2
    49    82    83    1
    50    90    91    1
    51   126   125    1
    52   126   127    1
    53    17    18    1
    54    31    32    2
    55    31    30    1
    56    49    50    1
    57   109   119   am
    58    92    91    1
    59    92    98   am
    60    83    86    1
    61    52    51    2
    62   128   127    2
    63   125   121   am
    64    51    50    1
    65    99   100    1
    66    99    98    1
    67    99   102    1
    68   100   101    2
    69    91    94    1
    70    21    18    1
    71   127   131   am
    72    18    19    1
    73   119   120    1
    74    50    53    1
    75    30    29    1
    76    30    33    1
    77   121   120    1
    78   121   122    2
    79   103   102    1
    80   103   104    1
    81    34    33    1
    82   120   123    1
    83    86    87    1
    84    94    95    1
    85   131   132    1
    86   106   104   ar
    87    33    35    1
    88   104   105   ar
    89    19    25   am
    90    19    20    2
    91    53    54    1
    92    88    87    1
    93    25    26    1
    94    95    96    1
    95    95    97    1
    96    87    89    1
    97   132   133    1
    98   123   124    1
    99    54    55    1
   100   135   133   am
   101   135   136    1
   102    28    27    2
   103   133   134    2
   104    26    27    1
   105   136   137    1
   106    55    56    1
   107    80    79    1
   108    77    78    2
   109    77    76    1
   110    56    57    1
   111   137   138    2
   112   137   139   am
   113   162   161    1
   114    79    76    1
   115    79    81    1
   116    76    75    1
   117    70    69    2
   118   139   140    1
   119    71    72    1
   120    71    68    1
   121   160   161    1
   122   160   157    1
   123    69    68    1
   124   155   153   ar
   125   161   163    1
   126    72    73    2
   127    72    74   am
   128   158   157    1
   129   158   159    2
   130    68    67    1
   131   147   145   ar
   132   144   145    1
   133   144   143    1
   134   153   152    1
   135   153   154   ar
   136   157   156    1
   137   152   149    1
   138   140   143    1
   139   140   141    1
   140    66    64   ar
   141   145   146   ar
   142    61    60    2
   143    60    59    1
   144    64    63    1
   145    64    65   ar
   146   168   169    1
   147   168   165    1
   148    63    62    1
   149   142   141    2
   150   151   150    2
   151    62    59    1
   152   149   150    1
   153   149   148    1
   154    59    58    1
   155   165   166    1
   156   165   164    1
   157   170   171    1
   158   170   166   am
   159   171   174    1
   160   171   172    1
   161   177   175   ar
   162   166   167    2
   163   175   174    1
   164   175   176   ar
   165   184   186   ar
   166   184   183   ar
   167   186   188   ar
   168   178   172   am
   169   178   179    1
   170   182   183    1
   171   182   179    1
   172   172   173    2
   173   183   185   ar
   174   179   180    1
   175   180   181    2
   176   188   187   ar
   177   185   187   ar
