@<TRIPOS>MOLECULE
tmp/4ftoA00.pdb
 168 159 0 0 0
SMALL
GASTEIGER

@<TRIPOS>ATOM
      1  N         18.1810   -9.3490   -0.0030 N.3    11  GLN11      -0.1231
      2  CA        18.9290  -10.0290    1.0730 C.3    11  GLN11       0.1698
      3  C         18.1750  -10.0760    2.4170 C.2    11  GLN11       0.2593
      4  O         17.3410   -9.2140    2.7130 O.2    11  GLN11      -0.2718
      5  CB        20.3410   -9.4280    1.2860 C.3    11  GLN11       0.0381
      6  CG        20.4090   -8.0100    1.8520 C.3    11  GLN11       0.0905
      7  CD        21.8240   -7.6630    2.2500 C.2    11  GLN11       0.2608
      8  OE1       22.5020   -6.8690    1.5900 O.2    11  GLN11      -0.2717
      9  NE2       22.3130   -8.2650    3.3290 N.am   11  GLN11      -0.0878
     10  N         18.5110  -11.0900    3.2360 N.am   12  THR12      -0.1939
     11  CA        17.9380  -11.3020    4.5670 C.3    12  THR12       0.2028
     12  C         18.6360  -10.3540    5.5490 C.2    12  THR12       0.2642
     13  O         19.8640  -10.2530    5.5540 O.2    12  THR12      -0.2714
     14  CB        18.0360  -12.7890    4.9660 C.3    12  THR12       0.1808
     15  OG1       17.2920  -13.5590    4.0200 O.3    12  THR12      -0.2208
     16  CG2       17.4860  -13.0690    6.3580 C.3    12  THR12       0.0379
     17  N         17.8360   -9.6440    6.3530 N.am   13  LEU13      -0.1977
     18  CA        18.3160   -8.6970    7.3520 C.3    13  LEU13       0.1596
     19  C         18.2700   -9.3010    8.7730 C.2    13  LEU13       0.2287
     20  O         18.8550   -8.7340    9.6940 O.2    13  LEU13      -0.2864
     21  CB        17.4970   -7.3940    7.2900 C.3    13  LEU13       0.0297
     22  CG        17.5700   -6.5760    5.9960 C.3    13  LEU13       0.0022
     23  CD1       16.5710   -5.4340    6.0300 C.3    13  LEU13       0.0001
     24  CD2       18.9910   -6.0450    5.7350 C.3    13  LEU13       0.0001
     25  N         13.1630  -11.1830    8.1540 N.3    17  VAL17      -0.1245
     26  CA        13.1620   -9.7810    7.7380 C.3    17  VAL17       0.1561
     27  C         14.0370   -9.6990    6.4840 C.2    17  VAL17       0.2260
     28  O         15.1920  -10.1330    6.5120 O.2    17  VAL17      -0.2867
     29  CB        13.6180   -8.7930    8.8630 C.3    17  VAL17       0.0252
     30  CG1       13.5460   -7.3430    8.3910 C.3    17  VAL17       0.0019
     31  CG2       12.7890   -8.9690   10.1330 C.3    17  VAL17       0.0019
     32  N         12.2710   -2.6000    4.5350 N.3    30  ALA30      -0.1245
     33  CA        12.4460   -3.8520    5.2610 C.3    30  ALA30       0.1562
     34  C         11.0870   -4.5530    5.3120 C.2    30  ALA30       0.2260
     35  O         10.0800   -3.9250    5.6600 O.2    30  ALA30      -0.2867
     36  CB        12.9860   -3.5890    6.6560 C.3    30  ALA30       0.0290
     37  N          8.9040   -7.6430    6.8580 N.3    32  LYS32      -0.1245
     38  CA         8.8000   -8.6390    7.9260 C.3    32  LYS32       0.1561
     39  C          7.7790   -9.6850    7.4960 C.2    32  LYS32       0.2260
     40  O          6.6150   -9.3490    7.2410 O.2    32  LYS32      -0.2867
     41  CB         8.4260   -7.9870    9.2720 C.3    32  LYS32       0.0271
     42  CG         8.5220   -8.9320   10.4630 C.3    32  LYS32       0.0035
     43  CD         8.1930   -8.2070   11.7550 C.3    32  LYS32       0.0206
     44  CE         8.4490   -9.0560   12.9730 C.3    32  LYS32       0.1093
     45  NZ         8.3430   -8.2650   14.2290 N.3    32  LYS32      -0.1314
     46  N          0.3600   -5.9710   16.5760 N.3    40  GLU40      -0.1245
     47  CA         1.6050   -5.4160   16.0470 C.3    40  GLU40       0.1567
     48  C          1.3240   -4.4170   14.9170 C.2    40  GLU40       0.2260
     49  O          1.9120   -3.3360   14.9060 O.2    40  GLU40      -0.2867
     50  CB         2.5240   -6.5410   15.5460 C.3    40  GLU40       0.0388
     51  CG         3.8330   -6.0480   14.9410 C.3    40  GLU40       0.1160
     52  CD         4.9550   -7.0640   14.8500 C.2    40  GLU40       0.3649
     53  OE1        4.7130   -8.2590   15.1320 O.co2  40  GLU40      -0.2457
     54  OE2        6.0880   -6.6580   14.5100 O.co2  40  GLU40      -0.2457
     55  N          1.6630   -0.4220   15.2010 N.3    44  ASN44      -0.1240
     56  CA         2.5040    0.1990   14.1670 C.3    44  ASN44       0.1653
     57  C          1.8070    1.3380   13.4040 C.2    44  ASN44       0.2266
     58  O          2.4670    2.3250   13.0590 O.2    44  ASN44      -0.2867
     59  CB         3.0250   -0.8390   13.1800 C.3    44  ASN44       0.1155
     60  CG         4.4290   -1.2960   13.5010 C.2    44  ASN44       0.2627
     61  OD1        5.4010   -0.5530   13.3570 O.2    44  ASN44      -0.2716
     62  ND2        4.5730   -2.5240   13.9370 N.am   44  ASN44      -0.0877
     63  N         10.8800    3.3390   14.0350 N.3    53  VAL53      -0.1245
     64  CA        10.8840    2.7730   12.6840 C.3    53  VAL53       0.1561
     65  C          9.5010    2.9830   12.0300 C.2    53  VAL53       0.2260
     66  O          8.4730    2.6620   12.6280 O.2    53  VAL53      -0.2867
     67  CB        11.3280    1.2830   12.6820 C.3    53  VAL53       0.0252
     68  CG1       10.9090    0.5650   11.4010 C.3    53  VAL53       0.0019
     69  CG2       12.8350    1.1760   12.8680 C.3    53  VAL53       0.0019
     70  N          8.1520   -2.0740    6.4760 N.3    65  LEU65      -0.1231
     71  CA         8.7440   -1.1250    7.4220 C.3    65  LEU65       0.1693
     72  C         10.0330   -0.4890    6.9120 C.2    65  LEU65       0.2592
     73  O         10.6340   -0.9590    5.9450 O.2    65  LEU65      -0.2718
     74  CB         9.0230   -1.8240    8.7700 C.3    65  LEU65       0.0284
     75  CG         7.8570   -2.5780    9.4240 C.3    65  LEU65       0.0019
     76  CD1        8.1570   -4.0570    9.4970 C.3    65  LEU65       0.0001
     77  CD2        7.5510   -2.0260   10.8020 C.3    65  LEU65       0.0001
     78  N         10.4630    0.5830    7.5940 N.am   66  GLU66      -0.1966
     79  CA        11.6510    1.3620    7.2610 C.3    66  GLU66       0.1733
     80  C         12.9220    0.5220    7.1990 C.2    66  GLU66       0.2616
     81  O         13.1670   -0.3210    8.0740 O.2    66  GLU66      -0.2715
     82  CB        11.8360    2.4690    8.3040 C.3    66  GLU66       0.0429
     83  CG        12.8150    3.5650    7.9120 C.3    66  GLU66       0.1163
     84  CD        12.9290    4.6690    8.9430 C.2    66  GLU66       0.3649
     85  OE1       12.0740    4.7290    9.8560 O.co2  66  GLU66      -0.2457
     86  OE2       13.8890    5.4650    8.8490 O.co2  66  GLU66      -0.2457
     87  N         13.7200    0.7650    6.1550 N.am   67  TYR67      -0.1960
     88  CA        15.0410    0.1870    6.0090 C.3    67  TYR67       0.1771
     89  C         16.0100    1.1730    6.6420 C.2    67  TYR67       0.2620
     90  O         15.9750    2.3630    6.3330 O.2    67  TYR67      -0.2715
     91  CB        15.4050   -0.1230    4.5400 C.3    67  TYR67       0.0574
     92  CG        16.8460   -0.5640    4.3570 C.ar   67  TYR67      -0.0198
     93  CD1       17.2850   -1.8010    4.8250 C.ar   67  TYR67      -0.0009
     94  CD2       17.7770    0.2650    3.7350 C.ar   67  TYR67      -0.0009
     95  CE1       18.6080   -2.2120    4.6540 C.ar   67  TYR67       0.0417
     96  CE2       19.1010   -0.1350    3.5570 C.ar   67  TYR67       0.0417
     97  CZ        19.5100   -1.3780    4.0120 C.ar   67  TYR67       0.1957
     98  OH        20.8140   -1.7790    3.8240 O.3    67  TYR67      -0.2866
     99  N         16.8090    0.6980    7.5820 N.am   68  CYS68      -0.1954
    100  CA        17.7660    1.5070    8.3290 C.3    68  CYS68       0.1843
    101  C         19.1490    1.0080    7.9330 C.2    68  CYS68       0.2626
    102  O         19.5680   -0.0490    8.3930 O.2    68  CYS68      -0.2714
    103  CB        17.5000    1.3900    9.8340 C.3    68  CYS68       0.0997
    104  SG        15.8040    1.8040   10.3380 S.3    68  CYS68      -0.0797
    105  N         19.8160    1.7220    6.9970 N.am   69  SER69      -0.1936
    106  CA        21.1000    1.3180    6.3870 C.3    69  SER69       0.2055
    107  C         22.2870    1.2190    7.3850 C.2    69  SER69       0.2644
    108  O         23.2460    0.4940    7.1070 O.2    69  SER69      -0.2714
    109  CB        21.4650    2.2430    5.2280 C.3    69  SER69       0.2130
    110  OG        21.6050    3.5950    5.6320 O.3    69  SER69      -0.2179
    111  N         22.1870    1.8830    8.5370 N.am   70  GLY70      -0.1939
    112  CA        23.2210    1.8320    9.5750 C.3    70  GLY70       0.2014
    113  C         23.2000    0.5590   10.4020 C.2    70  GLY70       0.2639
    114  O         24.0970    0.3270   11.2110 O.2    70  GLY70      -0.2714
    115  N         22.1730   -0.2570   10.2040 N.am   71  GLY71      -0.1939
    116  CA        21.9850   -1.5310   10.8860 C.3    71  GLY71       0.2014
    117  C         21.5980   -1.3920   12.3440 C.2    71  GLY71       0.2638
    118  O         21.0130   -0.3900   12.7490 O.2    71  GLY71      -0.2714
    119  N         21.9510   -2.3920   13.1340 N.am   72  GLU72      -0.1977
    120  CA        21.6200   -2.4860   14.5440 C.3    72  GLU72       0.1602
    121  C         22.6320   -1.7990   15.4380 C.2    72  GLU72       0.2287
    122  O         23.8280   -1.9690   15.2420 O.2    72  GLU72      -0.2864
    123  CB        21.5290   -3.9690   14.9700 C.3    72  GLU72       0.0415
    124  CG        20.4990   -4.7900   14.2100 C.3    72  GLU72       0.1163
    125  CD        20.3630   -6.2360   14.6460 C.2    72  GLU72       0.3649
    126  OE1       21.0800   -6.6630   15.5810 O.co2  72  GLU72      -0.2457
    127  OE2       19.5130   -6.9410   14.0620 O.co2  72  GLU72      -0.2457
    128  N         25.6390   -3.9260   16.7160 N.3    75  ASP75      -0.1239
    129  CA        26.8990   -4.0400   15.9830 C.3    75  ASP75       0.1674
    130  C         27.8240   -2.8170   16.1240 C.2    75  ASP75       0.2266
    131  O         28.9430   -2.8720   15.6320 O.2    75  ASP75      -0.2867
    132  CB        26.6400   -4.3650   14.5060 C.3    75  ASP75       0.1410
    133  CG        25.9700   -5.7260   14.3390 C.2    75  ASP75       0.3668
    134  OD1       26.3260   -6.6620   15.0910 O.co2  75  ASP75      -0.2456
    135  OD2       25.0840   -5.8470   13.4770 O.co2  75  ASP75      -0.2456
    136  N         17.6990    0.4600   15.7510 N.3   118  LEU118     -0.1245
    137  CA        18.2770    0.5550   14.4030 C.3   118  LEU118      0.1561
    138  C         18.8150    1.9310   14.1160 C.2   118  LEU118      0.2260
    139  O         18.4520    2.8830   14.7860 O.2   118  LEU118     -0.2867
    140  CB        17.2470    0.1470   13.3280 C.3   118  LEU118      0.0270
    141  CG        16.6010   -1.2440   13.5090 C.3   118  LEU118      0.0019
    142  CD1       15.6420   -1.5350   12.3860 C.3   118  LEU118      0.0001
    143  CD2       17.6570   -2.3650   13.5970 C.3   118  LEU118      0.0001
    144  N         12.6530   -0.2550   17.0390 N.3   128  SER128     -0.1202
    145  CA        12.0020   -1.2060   16.1400 C.3   128  SER128      0.2020
    146  C         11.3840   -2.3940   16.8770 C.2   128  SER128      0.2619
    147  O         11.7150   -2.6610   18.0430 O.2   128  SER128     -0.2717
    148  CB        12.9940   -1.7190   15.0950 C.3   128  SER128      0.2103
    149  OG        13.8910   -2.6730   15.6350 O.3   128  SER128     -0.2182
    150  N         10.4970   -3.1210   16.1510 N.am  129  ASP129     -0.1959
    151  CA         9.7660   -4.3300   16.5140 C.3   129  ASP129      0.1840
    152  C          8.7960   -4.1140   17.6560 C.2   129  ASP129      0.2622
    153  O          9.1810   -4.1290   18.8290 O.2   129  ASP129     -0.2715
    154  CB        10.7350   -5.4840   16.8280 C.3   129  ASP129      0.1450
    155  CG        10.1160   -6.8700   16.7010 C.2   129  ASP129      0.3671
    156  OD1        8.8810   -6.9870   16.8460 O.co2 129  ASP129     -0.2456
    157  OD2       10.8760   -7.8410   16.4860 O.co2 129  ASP129     -0.2456
    158  N          7.5140   -3.9820   17.3010 N.am  130  PHE130     -0.1974
    159  CA         6.4340   -3.7490   18.2530 C.3   130  PHE130      0.1639
    160  C          5.5910   -5.0010   18.4580 C.2   130  PHE130      0.2290
    161  O          4.4450   -4.9220   18.9140 O.2   130  PHE130     -0.2864
    162  CB         5.5940   -2.5360   17.8000 C.3   130  PHE130      0.0560
    163  CG         6.3920   -1.2660   17.9750 C.ar  130  PHE130     -0.0200
    164  CD1        7.2950   -0.8480   16.9950 C.ar  130  PHE130     -0.0042
    165  CD2        6.3180   -0.5380   19.1580 C.ar  130  PHE130     -0.0042
    166  CE1        8.1010    0.2830   17.1960 C.ar  130  PHE130     -0.0003
    167  CE2        7.1050    0.6080   19.3460 C.ar  130  PHE130     -0.0003
    168  CZ         7.9930    1.0060   18.3680 C.ar  130  PHE130     -0.0000
@<TRIPOS>BOND
     1     1     2    1
     2     2     5    1
     3     2     3    1
     4     5     6    1
     5     8     7    2
     6     6     7    1
     7     7     9   am
     8     3     4    2
     9     3    10   am
    10    10    11    1
    11    96    94   ar
    12    96    97   ar
    13    94    92   ar
    14    98    97    1
    15    97    95   ar
    16    15    14    1
    17    92    91    1
    18    92    93   ar
    19    32    33    1
    20    91    88    1
    21    11    14    1
    22    11    12    1
    23    95    93   ar
    24    14    16    1
    25   109   110    1
    26   109   106    1
    27    33    34    1
    28    33    36    1
    29    34    35    2
    30    12    13    2
    31    12    17   am
    32    24    22    1
    33    73    72    2
    34    22    23    1
    35    22    21    1
    36    88    87    1
    37    88    89    1
    38    87    80   am
    39    90    89    2
    40    17    18    1
    41   106   105    1
    42   106   107    1
    43    70    71    1
    44    27    28    2
    45    27    26    1
    46    89    99   am
    47    37    38    1
    48    72    71    1
    49    72    78   am
    50   105   101   am
    51   108   107    2
    52    80    79    1
    53    80    81    2
    54    40    39    2
    55    79    78    1
    56    79    82    1
    57    21    18    1
    58    18    19    1
    59   107   111   am
    60    71    74    1
    61    39    38    1
    62    99   100    1
    63    26    25    1
    64    26    29    1
    65    83    82    1
    66    83    84    1
    67    38    41    1
    68   101   100    1
    69   101   102    2
    70   100   103    1
    71    30    29    1
    72   111   112    1
    73    74    75    1
    74    19    20    2
    75    86    84   ar
    76    29    31    1
    77    84    85   ar
    78    41    42    1
    79    75    76    1
    80    75    77    1
    81   112   113    1
    82   103   104    1
    83   115   113   am
    84   115   116    1
    85   113   114    2
    86    42    43    1
    87   116   117    1
    88    68    67    1
    89    43    44    1
    90    65    66    2
    91    65    64    1
    92   117   118    2
    93   117   119   am
    94   142   141    1
    95    67    64    1
    96    67    69    1
    97    64    63    1
    98    44    45    1
    99    58    57    2
   100   119   120    1
   101    59    60    1
   102    59    56    1
   103   140   141    1
   104   140   137    1
   105    61    60    2
   106    57    56    1
   107   135   133   ar
   108    60    62   am
   109   141   143    1
   110   127   125   ar
   111   138   137    1
   112   138   139    2
   113    56    55    1
   114   124   125    1
   115   124   123    1
   116   133   132    1
   117   133   134   ar
   118   137   136    1
   119   132   129    1
   120    54    52   ar
   121   120   123    1
   122   120   121    1
   123   125   126   ar
   124    52    51    1
   125    52    53   ar
   126    49    48    2
   127    48    47    1
   128    51    50    1
   129   148   149    1
   130   148   145    1
   131   122   121    2
   132    50    47    1
   133   131   130    2
   134   129   130    1
   135   129   128    1
   136    47    46    1
   137   145   146    1
   138   145   144    1
   139   150   151    1
   140   150   146   am
   141   157   155   ar
   142   151   154    1
   143   151   152    1
   144   155   154    1
   145   155   156   ar
   146   146   147    2
   147   164   166   ar
   148   164   163   ar
   149   166   168   ar
   150   158   152   am
   151   158   159    1
   152   152   153    2
   153   162   163    1
   154   162   159    1
   155   163   165   ar
   156   159   160    1
   157   168   167   ar
   158   160   161    2
   159   165   167   ar
