@<TRIPOS>MOLECULE
tmp/4ftqA00.pdb
 153 142 0 0 0
SMALL
GASTEIGER

@<TRIPOS>ATOM
      1  N         18.4260   -8.9070   -0.1170 N.3    11  GLN11      -0.1231
      2  CA        19.2980   -9.4270    0.9480 C.3    11  GLN11       0.1698
      3  C         18.5430   -9.7110    2.2540 C.2    11  GLN11       0.2593
      4  O         17.6370   -8.9580    2.6140 O.2    11  GLN11      -0.2718
      5  CB        20.4250   -8.4090    1.2270 C.3    11  GLN11       0.0381
      6  CG        21.6610   -8.9850    1.9170 C.3    11  GLN11       0.0905
      7  CD        22.2000   -8.0660    2.9890 C.2    11  GLN11       0.2608
      8  OE1       22.5330   -6.9000    2.7440 O.2    11  GLN11      -0.2717
      9  NE2       22.3210   -8.5830    4.2040 N.am   11  GLN11      -0.0878
     10  N         18.9560  -10.7720    2.9830 N.am   12  THR12      -0.1939
     11  CA        18.3790  -11.1460    4.2820 C.3    12  THR12       0.2028
     12  C         18.9680  -10.2040    5.3500 C.2    12  THR12       0.2642
     13  O         20.1860  -10.0060    5.3920 O.2    12  THR12      -0.2714
     14  CB        18.6180  -12.6450    4.5810 C.3    12  THR12       0.1808
     15  OG1       18.0500  -13.4280    3.5270 O.3    12  THR12      -0.2208
     16  CG2       18.0160  -13.0910    5.9150 C.3    12  THR12       0.0379
     17  N         18.0970   -9.6110    6.1850 N.am   13  LEU13      -0.1977
     18  CA        18.4880   -8.6660    7.2340 C.3    13  LEU13       0.1596
     19  C         18.4100   -9.2730    8.6480 C.2    13  LEU13       0.2287
     20  O         18.9920   -8.7140    9.5830 O.2    13  LEU13      -0.2864
     21  CB        17.6210   -7.3920    7.1680 C.3    13  LEU13       0.0297
     22  CG        17.7410   -6.5040    5.9200 C.3    13  LEU13       0.0022
     23  CD1       16.7340   -5.3790    5.9710 C.3    13  LEU13       0.0001
     24  CD2       19.1510   -5.9310    5.7590 C.3    13  LEU13       0.0001
     25  N         13.3950  -11.2750    8.0260 N.3    19  VAL19      -0.1245
     26  CA        13.4440   -9.8740    7.5940 C.3    19  VAL19       0.1561
     27  C         14.3220   -9.8020    6.3390 C.2    19  VAL19       0.2260
     28  O         15.4630  -10.2700    6.3660 O.2    19  VAL19      -0.2867
     29  CB        13.9320   -8.8980    8.7090 C.3    19  VAL19       0.0252
     30  CG1       13.9230   -7.4470    8.2230 C.3    19  VAL19       0.0019
     31  CG2       13.0980   -9.0360    9.9810 C.3    19  VAL19       0.0019
     32  N         12.6540   -2.5740    4.5370 N.3    32  ALA32      -0.1245
     33  CA        12.8110   -3.8530    5.2260 C.3    32  ALA32       0.1562
     34  C         11.4470   -4.5370    5.2720 C.2    32  ALA32       0.2260
     35  O         10.4650   -3.9250    5.7060 O.2    32  ALA32      -0.2867
     36  CB        13.3640   -3.6370    6.6320 C.3    32  ALA32       0.0290
     37  N          9.2760   -7.5590    6.7800 N.3    34  LYS34      -0.1245
     38  CA         9.1680   -8.5510    7.8440 C.3    34  LYS34       0.1561
     39  C          8.1140   -9.5790    7.4290 C.2    34  LYS34       0.2260
     40  O          6.9400   -9.2350    7.2680 O.2    34  LYS34      -0.2867
     41  CB         8.8270   -7.8750    9.1900 C.3    34  LYS34       0.0271
     42  CG         8.9130   -8.7950   10.3960 C.3    34  LYS34       0.0035
     43  CD         8.6630   -8.0230   11.6790 C.3    34  LYS34       0.0206
     44  CE         8.7200   -8.9080   12.8960 C.3    34  LYS34       0.1093
     45  NZ         8.7940   -8.1170   14.1520 N.3    34  LYS34      -0.1314
     46  N          1.0430   -6.0380   16.6910 N.3    40  GLU40      -0.1245
     47  CA         2.2530   -5.4110   16.1470 C.3    40  GLU40       0.1567
     48  C          1.9170   -4.4150   15.0290 C.2    40  GLU40       0.2260
     49  O          2.4690   -3.3150   15.0160 O.2    40  GLU40      -0.2867
     50  CB         3.2360   -6.4720   15.6310 C.3    40  GLU40       0.0388
     51  CG         4.5050   -5.8900   15.0190 C.3    40  GLU40       0.1160
     52  CD         5.6260   -6.8630   14.7250 C.2    40  GLU40       0.3649
     53  OE1        5.5010   -8.0510   15.0940 O.co2  40  GLU40      -0.2457
     54  OE2        6.6540   -6.4240   14.1630 O.co2  40  GLU40      -0.2457
     55  N          2.1070   -0.4280   15.2770 N.3    44  ASN44      -0.1240
     56  CA         2.9240    0.2200   14.2400 C.3    44  ASN44       0.1653
     57  C          2.1850    1.3300   13.4860 C.2    44  ASN44       0.2266
     58  O          2.8130    2.3240   13.1170 O.2    44  ASN44      -0.2867
     59  CB         3.4590   -0.7970   13.2540 C.3    44  ASN44       0.1155
     60  CG         4.8900   -1.1860   13.5150 C.2    44  ASN44       0.2627
     61  OD1        5.8270   -0.4330   13.2460 O.2    44  ASN44      -0.2716
     62  ND2        5.0930   -2.3830   14.0100 N.am   44  ASN44      -0.0877
     63  N         11.4300    3.1460   14.1140 N.3    53  VAL53      -0.1245
     64  CA        11.4140    2.5520   12.7730 C.3    53  VAL53       0.1561
     65  C         10.0240    2.8210   12.1480 C.2    53  VAL53       0.2260
     66  O          8.9920    2.5160   12.7580 O.2    53  VAL53      -0.2867
     67  CB        11.7720    1.0360   12.7880 C.3    53  VAL53       0.0252
     68  CG1       11.4940    0.3780   11.4340 C.3    53  VAL53       0.0019
     69  CG2       13.2180    0.8120   13.1980 C.3    53  VAL53       0.0019
     70  N          8.6400   -2.0450    6.5800 N.3    69  LEU69      -0.1231
     71  CA         9.2670   -1.1900    7.5830 C.3    69  LEU69       0.1693
     72  C         10.5100   -0.4840    7.0580 C.2    69  LEU69       0.2592
     73  O         11.0880   -0.8930    6.0520 O.2    69  LEU69      -0.2718
     74  CB         9.6260   -2.0220    8.8370 C.3    69  LEU69       0.0284
     75  CG         8.4980   -2.8670    9.4470 C.3    69  LEU69       0.0019
     76  CD1        9.0350   -4.1660   10.0020 C.3    69  LEU69       0.0001
     77  CD2        7.6940   -2.0820   10.4780 C.3    69  LEU69       0.0001
     78  N         10.9110    0.5820    7.7610 N.am   70  GLU70      -0.1966
     79  CA        12.0610    1.4180    7.4390 C.3    70  GLU70       0.1733
     80  C         13.3480    0.6100    7.4070 C.2    70  GLU70       0.2616
     81  O         13.6330   -0.1560    8.3400 O.2    70  GLU70      -0.2715
     82  CB        12.1720    2.5530    8.4620 C.3    70  GLU70       0.0429
     83  CG        13.2100    3.6100    8.1380 C.3    70  GLU70       0.1163
     84  CD        13.2990    4.7280    9.1560 C.2    70  GLU70       0.3649
     85  OE1       12.4640    4.7640   10.0900 O.co2  70  GLU70      -0.2457
     86  OE2       14.2140    5.5700    9.0190 O.co2  70  GLU70      -0.2457
     87  N         14.0900    0.7450    6.3000 N.am   71  TYR71      -0.1960
     88  CA        15.3840    0.1120    6.1510 C.3    71  TYR71       0.1771
     89  C         16.4030    1.0310    6.7950 C.2    71  TYR71       0.2620
     90  O         16.4460    2.2300    6.4960 O.2    71  TYR71      -0.2715
     91  CB        15.7230   -0.1790    4.6690 C.3    71  TYR71       0.0574
     92  CG        17.1530   -0.6270    4.4490 C.ar   71  TYR71      -0.0198
     93  CD1       17.6110   -1.8420    4.9520 C.ar   71  TYR71      -0.0009
     94  CD2       18.0490    0.1630    3.7320 C.ar   71  TYR71      -0.0009
     95  CE1       18.9240   -2.2630    4.7410 C.ar   71  TYR71       0.0417
     96  CE2       19.3620   -0.2500    3.5090 C.ar   71  TYR71       0.0417
     97  CZ        19.7980   -1.4610    4.0210 C.ar   71  TYR71       0.1957
     98  OH        21.0940   -1.8660    3.8110 O.3    71  TYR71      -0.2866
     99  N         17.1710    0.4800    7.7270 N.am   72  CYS72      -0.1954
    100  CA        18.1720    1.2090    8.4870 C.3    72  CYS72       0.1843
    101  C         19.5220    0.6370    8.0910 C.2    72  CYS72       0.2626
    102  O         19.8960   -0.4310    8.5670 O.2    72  CYS72      -0.2714
    103  CB        17.8840    1.0730    9.9850 C.3    72  CYS72       0.0997
    104  SG        16.2180    1.6000   10.4700 S.3    72  CYS72      -0.0797
    105  N         20.2090    1.3070    7.1390 N.am   73  SER73      -0.1950
    106  CA        21.4640    0.8400    6.5220 C.3    73  SER73       0.1924
    107  C         22.6610    0.7420    7.4980 C.2    73  SER73       0.2314
    108  O         23.5740   -0.0510    7.2460 O.2    73  SER73      -0.2863
    109  CB        21.8410    1.7170    5.3310 C.3    73  SER73       0.2116
    110  OG        22.1300    3.0540    5.7020 O.3    73  SER73      -0.2180
    111  N         22.6590   -0.6000   10.3370 N.3    75  GLY75      -0.1210
    112  CA        22.5260   -1.8540   11.0650 C.3    75  GLY75       0.1956
    113  C         22.1380   -1.6710   12.5220 C.2    75  GLY75       0.2611
    114  O         21.5270   -0.6680   12.8880 O.2    75  GLY75      -0.2717
    115  N         22.4960   -2.6440   13.3550 N.am   76  GLU76      -0.1979
    116  CA        22.1620   -2.6690   14.7770 C.3    76  GLU76       0.1602
    117  C         23.1880   -1.9540   15.6220 C.2    76  GLU76       0.2287
    118  O         24.3810   -2.0650   15.3590 O.2    76  GLU76      -0.2864
    119  CB        22.0560   -4.1210   15.2920 C.3    76  GLU76       0.0415
    120  CG        21.0990   -5.0280   14.5380 C.3    76  GLU76       0.1163
    121  CD        21.0060   -6.4410   15.0850 C.2    76  GLU76       0.3649
    122  OE1       21.7140   -6.7600   16.0690 O.co2  76  GLU76      -0.2457
    123  OE2       20.2040   -7.2270   14.5360 O.co2  76  GLU76      -0.2457
    124  N         26.1910   -4.0350   16.9760 N.3    79  ASP79      -0.1239
    125  CA        27.4190   -4.1570   16.1860 C.3    79  ASP79       0.1674
    126  C         28.3490   -2.9400   16.2700 C.2    79  ASP79       0.2266
    127  O         29.4680   -3.0090   15.7650 O.2    79  ASP79      -0.2867
    128  CB        27.0860   -4.4960   14.7260 C.3    79  ASP79       0.1410
    129  CG        26.4760   -5.8880   14.5960 C.2    79  ASP79       0.3668
    130  OD1       26.8760   -6.7890   15.3660 O.co2  79  ASP79      -0.2456
    131  OD2       25.5860   -6.0660   13.7480 O.co2  79  ASP79      -0.2456
    132  N         18.1690    0.2250   15.8530 N.3   122  LEU122     -0.1245
    133  CA        18.8030    0.2520   14.5310 C.3   122  LEU122      0.1561
    134  C         19.3150    1.6290   14.1930 C.2   122  LEU122      0.2260
    135  O         18.9400    2.6100   14.8310 O.2   122  LEU122     -0.2867
    136  CB        17.8480   -0.2590   13.4410 C.3   122  LEU122      0.0270
    137  CG        17.1420   -1.5950   13.7170 C.3   122  LEU122      0.0019
    138  CD1       16.0950   -1.8540   12.6760 C.3   122  LEU122      0.0001
    139  CD2       18.1280   -2.7810   13.8180 C.3   122  LEU122      0.0001
    140  N         13.1470   -0.3820   17.1300 N.3   132  SER132     -0.1202
    141  CA        12.6410   -1.4350   16.2580 C.3   132  SER132      0.2020
    142  C         11.9300   -2.5750   16.9850 C.2   132  SER132      0.2618
    143  O         12.2480   -2.8950   18.1390 O.2   132  SER132     -0.2717
    144  CB        13.8280   -2.0280   15.4920 C.3   132  SER132      0.2103
    145  OG        13.5180   -3.1570   14.6960 O.3   132  SER132     -0.2182
    146  N         11.0380   -3.2630   16.2310 N.am  133  ASP133     -0.1973
    147  CA        10.3040   -4.4730   16.6040 C.3   133  ASP133      0.1709
    148  C          9.2810   -4.2230   17.7280 C.2   133  ASP133      0.2293
    149  O          9.6260   -4.2590   18.9120 O.2   133  ASP133     -0.2864
    150  CB        11.2940   -5.6100   16.9710 C.3   133  ASP133      0.1436
    151  CG        10.6840   -6.9920   17.1070 C.2   133  ASP133      0.3671
    152  OD1        9.4400   -7.0850   17.2300 O.co2 133  ASP133     -0.2456
    153  OD2       11.4570   -7.9800   17.1490 O.co2 133  ASP133     -0.2456
@<TRIPOS>BOND
     1     1     2    1
     2     2     5    1
     3     2     3    1
     4     5     6    1
     5     6     7    1
     6     3     4    2
     7     3    10   am
     8     8     7    2
     9    10    11    1
    10     7     9   am
    11    96    94   ar
    12    96    97   ar
    13    15    14    1
    14    94    92   ar
    15    98    97    1
    16    97    95   ar
    17    11    14    1
    18    11    12    1
    19    92    91    1
    20    92    93   ar
    21    32    33    1
    22    14    16    1
    23    91    88    1
    24    95    93   ar
    25    33    34    1
    26    33    36    1
    27    34    35    2
    28   109   110    1
    29   109   106    1
    30    12    13    2
    31    12    17   am
    32    24    22    1
    33    22    23    1
    34    22    21    1
    35    73    72    2
    36    88    87    1
    37    88    89    1
    38    17    18    1
    39    87    80   am
    40    27    28    2
    41    27    26    1
    42    90    89    2
    43   106   105    1
    44   106   107    1
    45    70    71    1
    46    37    38    1
    47    89    99   am
    48    72    71    1
    49    72    78   am
    50   105   101   am
    51    21    18    1
    52    18    19    1
    53   108   107    2
    54    40    39    2
    55    80    79    1
    56    80    81    2
    57    39    38    1
    58    79    78    1
    59    79    82    1
    60    71    74    1
    61    26    25    1
    62    26    29    1
    63    99   100    1
    64    38    41    1
    65   101   100    1
    66   101   102    2
    67    83    82    1
    68    83    84    1
    69    30    29    1
    70   100   103    1
    71    19    20    2
    72    29    31    1
    73    74    75    1
    74    86    84   ar
    75    84    85   ar
    76    41    42    1
    77    75    76    1
    78    75    77    1
    79   103   104    1
    80   111   112    1
    81    42    43    1
    82   112   113    1
    83    68    67    1
    84    43    44    1
    85    65    66    2
    86    65    64    1
    87   113   114    2
    88   113   115   am
    89   138   137    1
    90    64    67    1
    91    64    63    1
    92    67    69    1
    93    44    45    1
    94    58    57    2
    95    61    60    2
    96    59    60    1
    97    59    56    1
    98   115   116    1
    99   136   137    1
   100   136   133    1
   101    57    56    1
   102    60    62   am
   103   137   139    1
   104   131   129   ar
   105    54    52   ar
   106   134   133    1
   107   134   135    2
   108    56    55    1
   109   133   132    1
   110   123   121   ar
   111   120   121    1
   112   120   119    1
   113   129   128    1
   114   129   130   ar
   115   145   144    1
   116    52    51    1
   117    52    53   ar
   118   128   125    1
   119   116   119    1
   120   116   117    1
   121    49    48    2
   122    51    50    1
   123    48    47    1
   124   121   122   ar
   125   118   117    2
   126   144   141    1
   127    50    47    1
   128   127   126    2
   129    47    46    1
   130   125   126    1
   131   125   124    1
   132   146   147    1
   133   146   142   am
   134   141   142    1
   135   141   140    1
   136   147   150    1
   137   147   148    1
   138   150   151    1
   139   142   143    2
   140   151   153   ar
   141   151   152   ar
   142   148   149    2
