@<TRIPOS>MOLECULE
tmp/4ftrA00.pdb
 190 179 0 0 0
SMALL
GASTEIGER

@<TRIPOS>ATOM
      1  N         18.1410   -9.2940    0.1350 N.3    11  GLN11      -0.1231
      2  CA        18.8740  -10.0180    1.1920 C.3    11  GLN11       0.1698
      3  C         18.1140  -10.0640    2.5240 C.2    11  GLN11       0.2593
      4  O         17.3090   -9.1770    2.8260 O.2    11  GLN11      -0.2718
      5  CB        20.3040   -9.4840    1.4160 C.3    11  GLN11       0.0381
      6  CG        20.4390   -8.0640    1.9560 C.3    11  GLN11       0.0905
      7  CD        21.8920   -7.6580    1.9570 C.2    11  GLN11       0.2608
      8  OE1       22.3300   -6.8380    1.1420 O.2    11  GLN11      -0.2717
      9  NE2       22.6860   -8.2740    2.8260 N.am   11  GLN11      -0.0878
     10  N         18.4050  -11.1110    3.3220 N.am   12  THR12      -0.1939
     11  CA        17.7890  -11.3760    4.6210 C.3    12  THR12       0.2028
     12  C         18.3880  -10.4380    5.6680 C.2    12  THR12       0.2642
     13  O         19.6090  -10.2990    5.7620 O.2    12  THR12      -0.2714
     14  CB        17.9420  -12.8660    4.9940 C.3    12  THR12       0.1808
     15  OG1       17.4730  -13.6640    3.9020 O.3    12  THR12      -0.2208
     16  CG2       17.1580  -13.2430    6.2410 C.3    12  THR12       0.0379
     17  N         17.5050   -9.7860    6.4370 N.am   13  LEU13      -0.1963
     18  CA        17.8690   -8.8590    7.5050 C.3    13  LEU13       0.1728
     19  C         17.7070   -9.5290    8.8760 C.2    13  LEU13       0.2616
     20  O         18.4120   -9.1770    9.8220 O.2    13  LEU13      -0.2715
     21  CB        17.0160   -7.5730    7.4210 C.3    13  LEU13       0.0311
     22  CG        17.1430   -6.7320    6.1490 C.3    13  LEU13       0.0022
     23  CD1       16.2010   -5.5610    6.1850 C.3    13  LEU13       0.0001
     24  CD2       18.5680   -6.2430    5.9390 C.3    13  LEU13       0.0001
     25  N         16.7790  -10.4820    8.9430 N.am   14  GLY14      -0.1955
     26  CA        16.4410  -11.2750   10.1200 C.3    14  GLY14       0.1869
     27  C         15.5680  -12.4570    9.7370 C.2    14  GLY14       0.2309
     28  O         14.9350  -12.4370    8.6730 O.2    14  GLY14      -0.2863
     29  N          8.9540  -16.5070   14.2320 N.3    16  TYR16      -0.1241
     30  CA         8.0130  -15.4910   13.7490 C.3    16  TYR16       0.1605
     31  C          7.8850  -15.5250   12.2110 C.2    16  TYR16       0.2264
     32  O          6.7870  -15.3490   11.6720 O.2    16  TYR16      -0.2867
     33  CB         8.4270  -14.0720   14.2320 C.3    16  TYR16       0.0534
     34  CG         9.7410  -13.5500   13.6740 C.ar   16  TYR16      -0.0201
     35  CD1        9.7700  -12.7600   12.5230 C.ar   16  TYR16      -0.0009
     36  CD2       10.9500  -13.8160   14.3140 C.ar   16  TYR16      -0.0009
     37  CE1       10.9740  -12.2920   11.9960 C.ar   16  TYR16       0.0417
     38  CE2       12.1590  -13.3380   13.8050 C.ar   16  TYR16       0.0417
     39  CZ        12.1660  -12.5770   12.6450 C.ar   16  TYR16       0.1957
     40  OH        13.3500  -12.1020   12.1330 O.3    16  TYR16      -0.2866
     41  N         12.6230  -11.3240    7.8170 N.3    19  VAL19      -0.1245
     42  CA        12.6790   -9.9170    7.4290 C.3    19  VAL19       0.1561
     43  C         13.6460   -9.8040    6.2400 C.2    19  VAL19       0.2260
     44  O         14.7980  -10.2330    6.3460 O.2    19  VAL19      -0.2867
     45  CB        13.0800   -8.9530    8.5950 C.3    19  VAL19       0.0252
     46  CG1       13.1100   -7.5040    8.1150 C.3    19  VAL19       0.0019
     47  CG2       12.1500   -9.0960    9.8000 C.3    19  VAL19       0.0019
     48  N         15.3470   -7.2260    2.9970 N.3    21  LEU21      -0.1245
     49  CA        15.6040   -5.8960    2.4500 C.3    21  LEU21       0.1561
     50  C         14.9590   -5.8860    1.0640 C.2    21  LEU21       0.2260
     51  O         15.2850   -6.7480    0.2380 O.2    21  LEU21      -0.2867
     52  CB        17.1180   -5.5740    2.3970 C.3    21  LEU21       0.0270
     53  CG        17.5850   -4.4030    1.4880 C.3    21  LEU21       0.0019
     54  CD1       16.9850   -3.0620    1.9040 C.3    21  LEU21       0.0001
     55  CD2       19.0960   -4.3050    1.4560 C.3    21  LEU21       0.0001
     56  N         12.2850   -2.4270    4.4750 N.3    32  ALA32      -0.1245
     57  CA        12.3840   -3.7330    5.1300 C.3    32  ALA32       0.1562
     58  C         10.9990   -4.3900    5.1450 C.2    32  ALA32       0.2260
     59  O         10.0070   -3.7410    5.4920 O.2    32  ALA32      -0.2867
     60  CB        12.9300   -3.5810    6.5420 C.3    32  ALA32       0.0290
     61  N          8.7890   -7.4640    6.6540 N.3    34  LYS34      -0.1245
     62  CA         8.6590   -8.5010    7.6750 C.3    34  LYS34       0.1561
     63  C          7.5350   -9.4400    7.2370 C.2    34  LYS34       0.2260
     64  O          6.4200   -8.9810    6.9700 O.2    34  LYS34      -0.2867
     65  CB         8.4100   -7.8800    9.0630 C.3    34  LYS34       0.0271
     66  CG         8.3340   -8.8930   10.1920 C.3    34  LYS34       0.0035
     67  CD         8.3060   -8.2010   11.5460 C.3    34  LYS34       0.0206
     68  CE         7.8680   -9.1310   12.6430 C.3    34  LYS34       0.1093
     69  NZ         8.1080   -8.5300   13.9840 N.3    34  LYS34      -0.1314
     70  N          0.8820   -5.9290   16.5640 N.3    42  GLU42      -0.1245
     71  CA         2.0890   -5.3090   15.9920 C.3    42  GLU42       0.1567
     72  C          1.7410   -4.2710   14.9180 C.2    42  GLU42       0.2260
     73  O          2.3260   -3.1880   14.9040 O.2    42  GLU42      -0.2867
     74  CB         3.0240   -6.3650   15.3850 C.3    42  GLU42       0.0388
     75  CG         4.3070   -5.7750   14.8110 C.3    42  GLU42       0.1160
     76  CD         5.4670   -6.7200   14.5580 C.2    42  GLU42       0.3649
     77  OE1        5.3470   -7.9270   14.8710 O.co2  42  GLU42      -0.2457
     78  OE2        6.5170   -6.2400   14.0690 O.co2  42  GLU42      -0.2457
     79  N         11.1040    3.2160   14.0980 N.3    55  VAL55      -0.1245
     80  CA        11.0620    2.6500   12.7430 C.3    55  VAL55       0.1561
     81  C          9.6640    2.9150   12.1450 C.2    55  VAL55       0.2260
     82  O          8.6510    2.4900   12.7050 O.2    55  VAL55      -0.2867
     83  CB        11.4380    1.1390   12.7000 C.3    55  VAL55       0.0252
     84  CG1       11.1700    0.5450   11.3200 C.3    55  VAL55       0.0019
     85  CG2       12.8930    0.9130   13.1010 C.3    55  VAL55       0.0019
     86  N          8.2780   -1.6780    6.4120 N.3    71  LEU71      -0.1231
     87  CA         8.9310   -0.8420    7.4120 C.3    71  LEU71       0.1693
     88  C         10.1530   -0.1220    6.8790 C.2    71  LEU71       0.2592
     89  O         10.7690   -0.5530    5.9010 O.2    71  LEU71      -0.2718
     90  CB         9.3490   -1.6950    8.6260 C.3    71  LEU71       0.0284
     91  CG         8.2620   -2.5390    9.3070 C.3    71  LEU71       0.0019
     92  CD1        8.8710   -3.7750    9.9710 C.3    71  LEU71       0.0001
     93  CD2        7.4630   -1.7150   10.2970 C.3    71  LEU71       0.0001
     94  N         10.5030    0.9790    7.5600 N.am   72  GLU72      -0.1966
     95  CA        11.6470    1.8360    7.2780 C.3    72  GLU72       0.1733
     96  C         12.9440    1.0350    7.3320 C.2    72  GLU72       0.2616
     97  O         13.1910    0.3140    8.3120 O.2    72  GLU72      -0.2715
     98  CB        11.6720    2.9720    8.3090 C.3    72  GLU72       0.0429
     99  CG        12.6690    4.0810    8.0400 C.3    72  GLU72       0.1163
    100  CD        12.9070    4.9850    9.2360 C.2    72  GLU72       0.3649
    101  OE1       12.0870    4.9690   10.1870 O.co2  72  GLU72      -0.2457
    102  OE2       13.9320    5.7040    9.2220 O.co2  72  GLU72      -0.2457
    103  N         13.7480    1.1370    6.2720 N.am   73  TYR73      -0.1960
    104  CA        15.0180    0.4400    6.2200 C.3    73  TYR73       0.1771
    105  C         16.1030    1.3040    6.8450 C.2    73  TYR73       0.2620
    106  O         16.2610    2.4780    6.5060 O.2    73  TYR73      -0.2715
    107  CB        15.3930    0.0140    4.7890 C.3    73  TYR73       0.0574
    108  CG        16.7640   -0.6290    4.7050 C.ar   73  TYR73      -0.0198
    109  CD1       17.0420   -1.8150    5.3790 C.ar   73  TYR73      -0.0009
    110  CD2       17.7930   -0.0300    3.9840 C.ar   73  TYR73      -0.0009
    111  CE1       18.3040   -2.4060    5.3140 C.ar   73  TYR73       0.0417
    112  CE2       19.0580   -0.6140    3.9050 C.ar   73  TYR73       0.0417
    113  CZ        19.3080   -1.8040    4.5720 C.ar   73  TYR73       0.1957
    114  OH        20.5490   -2.3890    4.5040 O.3    73  TYR73      -0.2866
    115  N         16.8340    0.7100    7.7780 N.am   74  CYS74      -0.1954
    116  CA        17.9040    1.3650    8.5040 C.3    74  CYS74       0.1843
    117  C         19.2220    0.6990    8.0520 C.2    74  CYS74       0.2626
    118  O         19.5210   -0.4330    8.4440 O.2    74  CYS74      -0.2714
    119  CB        17.6540    1.2660   10.0150 C.3    74  CYS74       0.0997
    120  SG        16.0020    1.8400   10.5410 S.3    74  CYS74      -0.0797
    121  N         19.9460    1.3760    7.1340 N.am   75  SER75      -0.1936
    122  CA        21.1680    0.8720    6.4810 C.3    75  SER75       0.2055
    123  C         22.3700    0.6960    7.4330 C.2    75  SER75       0.2644
    124  O         23.2460   -0.1160    7.1320 O.2    75  SER75      -0.2714
    125  CB        21.5610    1.7550    5.3000 C.3    75  SER75       0.2130
    126  OG        22.0730    3.0160    5.7020 O.3    75  SER75      -0.2179
    127  N         22.3790    1.4100    8.5670 N.am   76  GLY76      -0.1939
    128  CA        23.4410    1.3200    9.5760 C.3    76  GLY76       0.2014
    129  C         23.3920    0.0620   10.4260 C.2    76  GLY76       0.2639
    130  O         24.3050   -0.1980   11.2170 O.2    76  GLY76      -0.2714
    131  N         22.3390   -0.7220   10.2670 N.am   77  GLY77      -0.1939
    132  CA        22.1580   -1.9640   11.0120 C.3    77  GLY77       0.2014
    133  C         21.8060   -1.7690   12.4740 C.2    77  GLY77       0.2638
    134  O         21.1800   -0.7800   12.8470 O.2    77  GLY77      -0.2714
    135  N         22.2340   -2.7030   13.3120 N.am   78  GLU78      -0.1977
    136  CA        21.8920   -2.7150   14.7300 C.3    78  GLU78       0.1602
    137  C         22.9270   -2.0300   15.6070 C.2    78  GLU78       0.2287
    138  O         24.1180   -2.2290   15.4020 O.2    78  GLU78      -0.2864
    139  CB        21.7170   -4.1690   15.2160 C.3    78  GLU78       0.0415
    140  CG        20.7090   -4.9620   14.4010 C.3    78  GLU78       0.1163
    141  CD        20.5800   -6.4390   14.7060 C.2    78  GLU78       0.3649
    142  OE1       21.2580   -6.9340   15.6370 O.co2  78  GLU78      -0.2457
    143  OE2       19.7680   -7.0970   14.0170 O.co2  78  GLU78      -0.2457
    144  N         25.9330   -4.0250   16.9580 N.3    81  ASP81      -0.1239
    145  CA        27.1940   -4.1460   16.2220 C.3    81  ASP81       0.1674
    146  C         28.0980   -2.9130   16.3120 C.2    81  ASP81       0.2266
    147  O         29.1920   -2.9530   15.7730 O.2    81  ASP81      -0.2867
    148  CB        26.9340   -4.5290   14.7570 C.3    81  ASP81       0.1410
    149  CG        26.2880   -5.8960   14.6640 C.2    81  ASP81       0.3668
    150  OD1       26.7670   -6.8240   15.3430 O.co2  81  ASP81      -0.2456
    151  OD2       25.2480   -6.0120   14.0020 O.co2  81  ASP81      -0.2456
    152  N         19.8730   -5.0100   19.9570 N.3   121  GLU121     -0.1231
    153  CA        19.3880   -5.7230   18.7720 C.3   121  GLU121      0.1699
    154  C         18.1520   -5.0250   18.2080 C.2   121  GLU121      0.2592
    155  O         17.9210   -5.0970   17.0070 O.2   121  GLU121     -0.2718
    156  CB        19.0320   -7.2010   19.1050 C.3   121  GLU121      0.0402
    157  CG        20.1920   -8.0300   19.6290 C.3   121  GLU121      0.1161
    158  CD        20.4650   -7.9720   21.1220 C.2   121  GLU121      0.3649
    159  OE1       20.1200   -6.9580   21.7730 O.co2 121  GLU121     -0.2457
    160  OE2       21.0590   -8.9430   21.6390 O.co2 121  GLU121     -0.2457
    161  N         17.3640   -4.3460   19.0650 N.am  122  ASN122     -0.1974
    162  CA        16.1180   -3.6860   18.6390 C.3   122  ASN122      0.1688
    163  C         16.2790   -2.1920   18.4220 C.2   122  ASN122      0.2292
    164  O         15.2870   -1.4880   18.2350 O.2   122  ASN122     -0.2864
    165  CB        14.9770   -3.9840   19.6290 C.3   122  ASN122      0.1181
    166  CG        14.4830   -5.4050   19.4680 C.2   122  ASN122      0.2629
    167  OD1       14.5510   -5.9790   18.3860 O.2   122  ASN122     -0.2716
    168  ND2       13.9890   -6.0240   20.5240 N.am  122  ASN122     -0.0877
    169  N         18.0090    0.1770   15.8430 N.3   124  LEU124     -0.1245
    170  CA        18.5760    0.2210   14.4940 C.3   124  LEU124      0.1561
    171  C         19.0680    1.6070   14.1670 C.2   124  LEU124      0.2260
    172  O         18.6510    2.5760   14.7970 O.2   124  LEU124     -0.2867
    173  CB        17.5590   -0.2590   13.4430 C.3   124  LEU124      0.0270
    174  CG        16.8300   -1.6040   13.7130 C.3   124  LEU124      0.0019
    175  CD1       15.9410   -1.9810   12.5400 C.3   124  LEU124      0.0001
    176  CD2       17.8140   -2.7610   14.0060 C.3   124  LEU124      0.0001
    177  N         12.9410   -0.4420   17.1380 N.3   134  SER134     -0.1202
    178  CA        12.4130   -1.4690   16.2380 C.3   134  SER134      0.2020
    179  C         11.7160   -2.6350   16.9500 C.2   134  SER134      0.2618
    180  O         12.0840   -2.9890   18.0720 O.2   134  SER134     -0.2717
    181  CB        13.5710   -2.0450   15.4180 C.3   134  SER134      0.2103
    182  OG        13.1970   -3.0940   14.5420 O.3   134  SER134     -0.2182
    183  N         10.7630   -3.2800   16.2260 N.am  135  ASP135     -0.1973
    184  CA        10.0280   -4.4900   16.6030 C.3   135  ASP135      0.1709
    185  C          9.0160   -4.2490   17.7400 C.2   135  ASP135      0.2293
    186  O          9.3590   -4.3370   18.9220 O.2   135  ASP135     -0.2864
    187  CB        11.0120   -5.6270   16.9690 C.3   135  ASP135      0.1436
    188  CG        10.3760   -6.9870   17.1240 C.2   135  ASP135      0.3671
    189  OD1        9.1460   -7.0870   16.9470 O.co2 135  ASP135     -0.2456
    190  OD2       11.1140   -7.9540   17.4170 O.co2 135  ASP135     -0.2456
@<TRIPOS>BOND
     1     1     2    1
     2    51    50    2
     3    50    49    1
     4     8     7    2
     5     2     5    1
     6     2     3    1
     7     5     6    1
     8    55    53    1
     9    53    54    1
    10    53    52    1
    11     6     7    1
    12     7     9   am
    13    52    49    1
    14    49    48    1
    15     3     4    2
    16     3    10   am
    17    10    11    1
    18    15    14    1
    19   112   110   ar
    20   112   113   ar
    21   110   108   ar
    22    56    57    1
    23   114   113    1
    24   113   111   ar
    25    11    14    1
    26    11    12    1
    27   108   107    1
    28   108   109   ar
    29   107   104    1
    30    14    16    1
    31    57    58    1
    32    57    60    1
    33    58    59    2
    34   125   126    1
    35   125   122    1
    36   111   109   ar
    37    12    13    2
    38    12    17   am
    39    89    88    2
    40    24    22    1
    41    22    23    1
    42    22    21    1
    43   104   103    1
    44   104   105    1
    45    43    44    2
    46    43    42    1
    47   103    96   am
    48    86    87    1
    49    17    18    1
    50   122   121    1
    51   122   123    1
    52   106   105    2
    53    61    62    1
    54   105   115   am
    55    88    87    1
    56    88    94   am
    57    64    63    2
    58   124   123    2
    59   121   117   am
    60    63    62    1
    61    95    96    1
    62    95    94    1
    63    95    98    1
    64    96    97    2
    65    87    90    1
    66    21    18    1
    67    42    41    1
    68    42    45    1
    69   123   127   am
    70    18    19    1
    71    62    65    1
    72   115   116    1
    73    99    98    1
    74    99   100    1
    75   117   118    2
    76   117   116    1
    77    46    45    1
    78   116   119    1
    79   127   128    1
    80    45    47    1
    81    90    91    1
    82    28    27    2
    83    19    25   am
    84    19    20    2
    85    25    26    1
    86    65    66    1
    87   102   100   ar
    88   100   101   ar
    89    91    92    1
    90    91    93    1
    91   128   129    1
    92    27    26    1
    93   119   120    1
    94    66    67    1
    95   131   129   am
    96   131   132    1
    97   129   130    2
    98   132   133    1
    99    84    83    1
   100    67    68    1
   101    32    31    2
   102    37    35   ar
   103    37    39   ar
   104    40    39    1
   105    81    82    2
   106    81    80    1
   107    31    30    1
   108   133   134    2
   109   133   135   am
   110    35    34   ar
   111   175   174    1
   112    68    69    1
   113    39    38   ar
   114    83    80    1
   115    83    85    1
   116    80    79    1
   117   135   136    1
   118   173   174    1
   119   173   170    1
   120    34    33    1
   121    34    36   ar
   122   174   176    1
   123    30    29    1
   124    30    33    1
   125    38    36   ar
   126   151   149   ar
   127   143   141   ar
   128    78    76   ar
   129   171   170    1
   130   171   172    2
   131   140   141    1
   132   140   139    1
   133   170   169    1
   134   182   181    1
   135    76    75    1
   136    76    77   ar
   137   149   148    1
   138   149   150   ar
   139   141   142   ar
   140   136   139    1
   141   136   137    1
   142   148   145    1
   143    75    74    1
   144    73    72    2
   145    72    71    1
   146    74    71    1
   147   138   137    2
   148   181   178    1
   149   147   146    2
   150    71    70    1
   151   145   146    1
   152   145   144    1
   153   183   184    1
   154   183   179   am
   155   178   179    1
   156   178   177    1
   157   184   187    1
   158   184   185    1
   159   189   188   ar
   160   179   180    2
   161   187   188    1
   162   155   154    2
   163   188   190   ar
   164   185   186    2
   165   154   153    1
   166   154   161   am
   167   164   163    2
   168   167   166    2
   169   163   162    1
   170   162   161    1
   171   162   165    1
   172   153   156    1
   173   153   152    1
   174   156   157    1
   175   166   165    1
   176   166   168   am
   177   157   158    1
   178   158   160   ar
   179   158   159   ar
