@<TRIPOS>MOLECULE
tmp/4fttA00.pdb
 138 128 0 0 0
SMALL
GASTEIGER

@<TRIPOS>ATOM
      1  N         18.2530   -9.1990    0.0520 N.3    11  GLN11      -0.1245
      2  CA        19.0440   -9.8460    1.1080 C.3    11  GLN11       0.1566
      3  C         18.2960   -9.9540    2.4390 C.2    11  GLN11       0.2260
      4  O         17.4690   -9.1030    2.7860 O.2    11  GLN11      -0.2867
      5  CB        20.4200   -9.1790    1.3300 C.3    11  GLN11       0.0367
      6  CG        20.4260   -7.7090    1.7290 C.3    11  GLN11       0.0905
      7  CD        21.8520   -7.2550    1.9380 C.2    11  GLN11       0.2608
      8  OE1       22.5530   -6.8530    1.0000 O.2    11  GLN11      -0.2717
      9  NE2       22.3310   -7.3660    3.1660 N.am   11  GLN11      -0.0878
     10  N         17.8360   -9.7460    6.2990 N.3    13  LEU13      -0.1231
     11  CA        18.2400   -8.8520    7.3780 C.3    13  LEU13       0.1696
     12  C         18.1080   -9.5410    8.7550 C.2    13  LEU13       0.2631
     13  O         18.7550   -9.1160    9.7130 O.2    13  LEU13      -0.2714
     14  CB        17.4050   -7.5490    7.3490 C.3    13  LEU13       0.0284
     15  CG        17.5340   -6.6630    6.1140 C.3    13  LEU13       0.0019
     16  CD1       16.5110   -5.5480    6.1520 C.3    13  LEU13       0.0001
     17  CD2       18.9590   -6.1070    5.9550 C.3    13  LEU13       0.0001
     18  N         17.2800  -10.5850    8.8300 N.am   14  GLY14      -0.1732
     19  CA        17.0380  -11.3290   10.0610 C.2    14  GLY14       0.1340
     20  C         16.2240  -12.5990    9.8980 C.2    14  GLY14       0.2521
     21  O         15.5130  -12.7700    8.9010 O.2    14  GLY14      -0.2816
     22  N         13.0120  -11.1700    7.9730 N.3    18  VAL18      -0.1245
     23  CA        13.0690   -9.7830    7.5270 C.3    18  VAL18       0.1561
     24  C         13.9560   -9.7400    6.2790 C.2    18  VAL18       0.2260
     25  O         15.0940  -10.2170    6.3200 O.2    18  VAL18      -0.2867
     26  CB        13.5570   -8.7670    8.6050 C.3    18  VAL18       0.0252
     27  CG1       13.5170   -7.3410    8.0600 C.3    18  VAL18       0.0019
     28  CG2       12.7460   -8.8710    9.8940 C.3    18  VAL18       0.0019
     29  N         12.3980   -2.2580    4.5300 N.3    31  ALA31      -0.1245
     30  CA        12.5490   -3.5550    5.1920 C.3    31  ALA31       0.1562
     31  C         11.1850   -4.2390    5.2290 C.2    31  ALA31       0.2260
     32  O         10.1860   -3.5990    5.5630 O.2    31  ALA31      -0.2867
     33  CB        13.1160   -3.3820    6.5950 C.3    31  ALA31       0.0290
     34  N          9.0630   -7.3440    6.8420 N.3    33  LYS33      -0.1245
     35  CA         8.9470   -8.3610    7.8810 C.3    33  LYS33       0.1561
     36  C          7.8640   -9.3510    7.4310 C.2    33  LYS33       0.2260
     37  O          6.7240   -8.9500    7.1730 O.2    33  LYS33      -0.2867
     38  CB         8.6380   -7.7150    9.2460 C.3    33  LYS33       0.0271
     39  CG         8.6640   -8.6750   10.4230 C.3    33  LYS33       0.0035
     40  CD         8.5910   -7.9030   11.7340 C.3    33  LYS33       0.0206
     41  CE         8.5050   -8.7960   12.9420 C.3    33  LYS33       0.1093
     42  NZ         8.6790   -8.0260   14.2090 N.3    33  LYS33      -0.1314
     43  N         11.2220    3.3380   14.3350 N.3    54  VAL54      -0.1245
     44  CA        11.1650    2.7730   12.9780 C.3    54  VAL54       0.1561
     45  C          9.7540    3.0140   12.4000 C.2    54  VAL54       0.2260
     46  O          8.7640    2.6170   13.0120 O.2    54  VAL54      -0.2867
     47  CB        11.5620    1.2700   12.9440 C.3    54  VAL54       0.0252
     48  CG1       11.1770    0.6240   11.6110 C.3    54  VAL54       0.0019
     49  CG2       13.0530    1.0760   13.2290 C.3    54  VAL54       0.0019
     50  N          8.5030   -1.6550    6.5030 N.3    70  LEU70      -0.1231
     51  CA         9.1200   -0.8270    7.5180 C.3    70  LEU70       0.1693
     52  C         10.2970   -0.0360    6.9760 C.2    70  LEU70       0.2592
     53  O         10.8830   -0.3910    5.9490 O.2    70  LEU70      -0.2718
     54  CB         9.5760   -1.7110    8.7090 C.3    70  LEU70       0.0284
     55  CG         8.4800   -2.5410    9.4400 C.3    70  LEU70       0.0019
     56  CD1        9.0860   -3.7490   10.1540 C.3    70  LEU70       0.0001
     57  CD2        7.6720   -1.6780   10.4210 C.3    70  LEU70       0.0001
     58  N         10.6330    1.0580    7.6860 N.am   71  GLU71      -0.1966
     59  CA        11.7450    1.9400    7.3640 C.3    71  GLU71       0.1733
     60  C         13.0490    1.1450    7.4130 C.2    71  GLU71       0.2616
     61  O         13.2970    0.4280    8.3930 O.2    71  GLU71      -0.2715
     62  CB        11.7610    3.1020    8.3680 C.3    71  GLU71       0.0429
     63  CG        12.8980    4.1000    8.2200 C.3    71  GLU71       0.1163
     64  CD        13.0830    4.9870    9.4380 C.2    71  GLU71       0.3649
     65  OE1       12.2720    4.8950   10.3900 O.co2  71  GLU71      -0.2457
     66  OE2       14.0670    5.7590    9.4500 O.co2  71  GLU71      -0.2457
     67  N         13.8490    1.2320    6.3480 N.am   72  TYR72      -0.1960
     68  CA        15.1150    0.5320    6.2960 C.3    72  TYR72       0.1771
     69  C         16.1820    1.3670    6.9950 C.2    72  TYR72       0.2620
     70  O         16.3010    2.5670    6.7410 O.2    72  TYR72      -0.2715
     71  CB        15.5260    0.1750    4.8460 C.3    72  TYR72       0.0574
     72  CG        16.8610   -0.5380    4.7700 C.ar   72  TYR72      -0.0198
     73  CD1       17.0820   -1.7250    5.4670 C.ar   72  TYR72      -0.0009
     74  CD2       17.9230    0.0040    4.0530 C.ar   72  TYR72      -0.0009
     75  CE1       18.3200   -2.3640    5.4360 C.ar   72  TYR72       0.0417
     76  CE2       19.1630   -0.6300    4.0090 C.ar   72  TYR72       0.0417
     77  CZ        19.3550   -1.8170    4.7020 C.ar   72  TYR72       0.1957
     78  OH        20.5710   -2.4530    4.6680 O.3    72  TYR72      -0.2866
     79  N         16.9200    0.7350    7.9120 N.am   73  CYS73      -0.1954
     80  CA        17.9960    1.3650    8.6760 C.3    73  CYS73       0.1843
     81  C         19.3210    0.7020    8.2240 C.2    73  CYS73       0.2626
     82  O         19.6290   -0.4290    8.6140 O.2    73  CYS73      -0.2714
     83  CB        17.7410    1.2400   10.1840 C.3    73  CYS73       0.0997
     84  SG        16.1260    1.8800   10.7290 S.3    73  CYS73      -0.0797
     85  N         20.0300    1.3690    7.3000 N.am   74  SER74      -0.1936
     86  CA        21.2420    0.8530    6.6360 C.3    74  SER74       0.2055
     87  C         22.4650    0.6350    7.5580 C.2    74  SER74       0.2644
     88  O         23.3160   -0.1880    7.2080 O.2    74  SER74      -0.2714
     89  CB        21.6360    1.7460    5.4630 C.3    74  SER74       0.2130
     90  OG        22.0080    3.0480    5.8790 O.3    74  SER74      -0.2179
     91  N         22.5140    1.3100    8.7180 N.am   75  GLY75      -0.1939
     92  CA        23.5970    1.1850    9.7050 C.3    75  GLY75       0.2014
     93  C         23.5490   -0.0530   10.5890 C.2    75  GLY75       0.2639
     94  O         24.4820   -0.3070   11.3630 O.2    75  GLY75      -0.2714
     95  N         22.4640   -0.8170   10.4740 N.am   76  GLY76      -0.1939
     96  CA        22.2270   -2.0440   11.2270 C.3    76  GLY76       0.2014
     97  C         21.9170   -1.8250   12.6950 C.2    76  GLY76       0.2638
     98  O         21.3940   -0.7830   13.0840 O.2    76  GLY76      -0.2714
     99  N         22.2470   -2.8100   13.5190 N.am   77  GLU77      -0.1977
    100  CA        21.9990   -2.7820   14.9530 C.3    77  GLU77       0.1602
    101  C         23.0810   -2.0390   15.7250 C.2    77  GLU77       0.2287
    102  O         24.2660   -2.1670   15.4120 O.2    77  GLU77      -0.2864
    103  CB        21.9150   -4.2130   15.5230 C.3    77  GLU77       0.0415
    104  CG        20.9640   -5.1620   14.8160 C.3    77  GLU77       0.1163
    105  CD        20.9950   -6.5870   15.3440 C.2    77  GLU77       0.3649
    106  OE1       21.6230   -6.8440   16.3970 O.co2  77  GLU77      -0.2457
    107  OE2       20.3900   -7.4580   14.6890 O.co2  77  GLU77      -0.2457
    108  N         26.1670   -4.0660   17.0940 N.3    80  ASP80      -0.1239
    109  CA        27.4230   -4.2160   16.3500 C.3    80  ASP80       0.1674
    110  C         28.3060   -2.9710   16.3830 C.2    80  ASP80       0.2266
    111  O         29.3760   -2.9900   15.7850 O.2    80  ASP80      -0.2867
    112  CB        27.1600   -4.6600   14.9030 C.3    80  ASP80       0.1410
    113  CG        26.4740   -6.0110   14.8480 C.2    80  ASP80       0.3668
    114  OD1       26.9770   -6.9600   15.4940 O.co2  80  ASP80      -0.2456
    115  OD2       25.3980   -6.1020   14.2250 O.co2  80  ASP80      -0.2456
    116  N         20.0770   -4.9770   20.1380 N.3   120  GLU120     -0.1245
    117  CA        19.6200   -5.6840   18.9350 C.3   120  GLU120      0.1567
    118  C         18.3640   -5.0310   18.3560 C.2   120  GLU120      0.2260
    119  O         18.0660   -5.2440   17.1910 O.2   120  GLU120     -0.2867
    120  CB        19.3200   -7.1910   19.2240 C.3   120  GLU120      0.0388
    121  CG        20.4870   -8.0070   19.7600 C.3   120  GLU120      0.1160
    122  CD        20.7070   -7.9690   21.2650 C.2   120  GLU120      0.3649
    123  OE1       20.3090   -6.9770   21.9160 O.co2 120  GLU120     -0.2457
    124  OE2       21.3010   -8.9350   21.7930 O.co2 120  GLU120     -0.2457
    125  N         18.2020    0.2570   16.0320 N.3   123  LEU123     -0.1245
    126  CA        18.7600    0.3010   14.6860 C.3   123  LEU123      0.1561
    127  C         19.2550    1.6840   14.3310 C.2   123  LEU123      0.2260
    128  O         18.7960    2.6740   14.8960 O.2   123  LEU123     -0.2867
    129  CB        17.7410   -0.1850   13.6350 C.3   123  LEU123      0.0270
    130  CG        17.0710   -1.5750   13.8490 C.3   123  LEU123      0.0019
    131  CD1       16.1420   -1.8980   12.6850 C.3   123  LEU123      0.0001
    132  CD2       18.1080   -2.7140   14.0690 C.3   123  LEU123      0.0001
    133  N         13.1530   -0.3550   17.3060 N.3   133  SER133     -0.1217
    134  CA        12.6470   -1.3830   16.4030 C.3   133  SER133      0.1889
    135  C         11.9250   -2.5420   17.1200 C.2   133  SER133      0.2288
    136  O         12.2630   -2.8930   18.2510 O.2   133  SER133     -0.2866
    137  CB        13.8260   -1.9540   15.6130 C.3   133  SER133      0.2089
    138  OG        13.4710   -3.0000   14.7220 O.3   133  SER133     -0.2183
@<TRIPOS>BOND
     1     1     2    1
     2     8     7    2
     3     2     5    1
     4     2     3    1
     5     5     6    1
     6     6     7    1
     7     7     9   am
     8     3     4    2
     9    76    74   ar
    10    76    77   ar
    11    74    72   ar
    12    29    30    1
    13    78    77    1
    14    77    75   ar
    15    72    71    1
    16    72    73   ar
    17    71    68    1
    18    30    31    1
    19    30    33    1
    20    31    32    2
    21    75    73   ar
    22    89    90    1
    23    89    86    1
    24    53    52    2
    25    17    15    1
    26    15    16    1
    27    15    14    1
    28    24    25    2
    29    24    23    1
    30    68    67    1
    31    68    69    1
    32    10    11    1
    33    67    60   am
    34    50    51    1
    35    86    85    1
    36    86    87    1
    37    70    69    2
    38    34    35    1
    39    52    51    1
    40    52    58   am
    41    69    79   am
    42    37    36    2
    43    88    87    2
    44    85    81   am
    45    14    11    1
    46    59    60    1
    47    59    58    1
    48    59    62    1
    49    11    12    1
    50    60    61    2
    51    36    35    1
    52    51    54    1
    53    23    22    1
    54    23    26    1
    55    87    91   am
    56    35    38    1
    57    79    80    1
    58    27    26    1
    59    63    62    1
    60    63    64    1
    61    81    82    2
    62    81    80    1
    63    26    28    1
    64    80    83    1
    65    54    55    1
    66    91    92    1
    67    12    18    1
    68    12    13    2
    69    18    19    2
    70    21    20    2
    71    38    39    1
    72    64    66   ar
    73    64    65   ar
    74    55    56    1
    75    55    57    1
    76    92    93    1
    77    20    19    1
    78    83    84    1
    79    39    40    1
    80    95    93   am
    81    95    96    1
    82    93    94    2
    83    96    97    1
    84    48    47    1
    85    40    41    1
    86    45    44    1
    87    45    46    2
    88   131   130    1
    89    97    98    2
    90    97    99   am
    91    41    42    1
    92    47    44    1
    93    47    49    1
    94    44    43    1
    95    99   100    1
    96   129   130    1
    97   129   126    1
    98   130   132    1
    99   115   113   ar
   100   127   126    1
   101   127   128    2
   102   126   125    1
   103   107   105   ar
   104   138   137    1
   105   104   105    1
   106   104   103    1
   107   113   112    1
   108   113   114   ar
   109   112   109    1
   110   100   103    1
   111   100   101    1
   112   105   106   ar
   113   102   101    2
   114   137   134    1
   115   111   110    2
   116   109   110    1
   117   109   108    1
   118   134   135    1
   119   134   133    1
   120   135   136    2
   121   119   118    2
   122   118   117    1
   123   117   120    1
   124   117   116    1
   125   120   121    1
   126   121   122    1
   127   122   124   ar
   128   122   123   ar
