@<TRIPOS>MOLECULE
tmp/4ftuA00.pdb
 175 166 0 0 0
SMALL
GASTEIGER

@<TRIPOS>ATOM
      1  N         17.9830   -9.2790    0.0370 N.3    11  GLN11      -0.1231
      2  CA        18.7350   -9.9790    1.0990 C.3    11  GLN11       0.1698
      3  C         18.0240  -10.0120    2.4550 C.2    11  GLN11       0.2593
      4  O         17.2370   -9.1180    2.7930 O.2    11  GLN11      -0.2718
      5  CB        20.1730   -9.4650    1.2910 C.3    11  GLN11       0.0381
      6  CG        20.3580   -8.0110    1.6980 C.3    11  GLN11       0.0905
      7  CD        21.8320   -7.6830    1.6620 C.2    11  GLN11       0.2608
      8  OE1       22.2830   -6.8090    0.9080 O.2    11  GLN11      -0.2717
      9  NE2       22.6260   -8.4130    2.4440 N.am   11  GLN11      -0.0878
     10  N         18.3370  -11.0710    3.2310 N.am   12  THR12      -0.1939
     11  CA        17.7820  -11.3340    4.5590 C.3    12  THR12       0.2028
     12  C         18.4520  -10.4260    5.5860 C.2    12  THR12       0.2642
     13  O         19.6820  -10.3920    5.6880 O.2    12  THR12      -0.2714
     14  CB        17.9130  -12.8250    4.9190 C.3    12  THR12       0.1808
     15  OG1       17.4860  -13.6110    3.8010 O.3    12  THR12      -0.2208
     16  CG2       17.0840  -13.2020    6.1410 C.3    12  THR12       0.0379
     17  N         17.6290   -9.6690    6.3160 N.am   13  LEU13      -0.1963
     18  CA        18.0680   -8.7460    7.3570 C.3    13  LEU13       0.1728
     19  C         18.0330   -9.4260    8.7270 C.2    13  LEU13       0.2616
     20  O         18.8910   -9.1570    9.5680 O.2    13  LEU13      -0.2715
     21  CB        17.1920   -7.4730    7.3650 C.3    13  LEU13       0.0311
     22  CG        17.2580   -6.5710    6.1320 C.3    13  LEU13       0.0022
     23  CD1       16.2860   -5.4270    6.2550 C.3    13  LEU13       0.0001
     24  CD2       18.6720   -6.0500    5.8910 C.3    13  LEU13       0.0001
     25  N         17.0460  -10.2980    8.9200 N.am   14  GLY14      -0.1955
     26  CA        16.8450  -11.0520   10.1480 C.3    14  GLY14       0.1869
     27  C         15.9550  -12.2620    9.9620 C.2    14  GLY14       0.2309
     28  O         15.0940  -12.2800    9.0770 O.2    14  GLY14      -0.2863
     29  N          9.1660  -15.4690   14.5780 N.3    18  TYR18      -0.1241
     30  CA         8.2060  -14.5760   13.9150 C.3    18  TYR18       0.1605
     31  C          8.1240  -14.8280   12.3920 C.2    18  TYR18       0.2264
     32  O          7.0620  -14.6430   11.7900 O.2    18  TYR18      -0.2867
     33  CB         8.5920  -13.0950   14.1820 C.3    18  TYR18       0.0534
     34  CG         9.9220  -12.6710   13.5840 C.ar   18  TYR18      -0.0201
     35  CD1        9.9870  -12.0800   12.3230 C.ar   18  TYR18      -0.0009
     36  CD2       11.1150  -12.8620   14.2770 C.ar   18  TYR18      -0.0009
     37  CE1       11.2080  -11.7140   11.7560 C.ar   18  TYR18       0.0417
     38  CE2       12.3410  -12.4940   13.7220 C.ar   18  TYR18       0.0417
     39  CZ        12.3830  -11.9250   12.4590 C.ar   18  TYR18       0.1957
     40  OH        13.5870  -11.5540   11.9140 O.3    18  TYR18      -0.2866
     41  N         12.7730  -11.1060    7.8550 N.3    21  VAL21      -0.1245
     42  CA        12.7710   -9.7150    7.4180 C.3    21  VAL21       0.1561
     43  C         13.6980   -9.6320    6.2170 C.2    21  VAL21       0.2260
     44  O         14.8600  -10.0360    6.3120 O.2    21  VAL21      -0.2867
     45  CB        13.1410   -8.6760    8.5170 C.3    21  VAL21       0.0252
     46  CG1       13.1760   -7.2650    7.9320 C.3    21  VAL21       0.0019
     47  CG2       12.1690   -8.7320    9.6900 C.3    21  VAL21       0.0019
     48  N         15.2930   -7.1620    2.9730 N.3    23  LEU23      -0.1245
     49  CA        15.5480   -5.8410    2.4220 C.3    23  LEU23       0.1561
     50  C         14.9140   -5.8350    1.0240 C.2    23  LEU23       0.2260
     51  O         15.2620   -6.6850    0.1890 O.2    23  LEU23      -0.2867
     52  CB        17.0540   -5.5150    2.3720 C.3    23  LEU23       0.0270
     53  CG        17.4820   -4.3490    1.4400 C.3    23  LEU23       0.0019
     54  CD1       16.8710   -3.0100    1.8670 C.3    23  LEU23       0.0001
     55  CD2       18.9940   -4.2540    1.3420 C.3    23  LEU23       0.0001
     56  N         12.2790   -2.3430    4.4850 N.3    34  ALA34      -0.1245
     57  CA        12.3980   -3.6170    5.1760 C.3    34  ALA34       0.1562
     58  C         11.0170   -4.2620    5.1800 C.2    34  ALA34       0.2260
     59  O         10.0300   -3.6040    5.5300 O.2    34  ALA34      -0.2867
     60  CB        12.9220   -3.4130    6.5890 C.3    34  ALA34       0.0290
     61  N          8.7590   -7.2820    6.6320 N.3    36  LYS36      -0.1245
     62  CA         8.6390   -8.3270    7.6390 C.3    36  LYS36       0.1561
     63  C          7.6080   -9.3280    7.1290 C.2    36  LYS36       0.2260
     64  O          6.4570   -8.9680    6.8890 O.2    36  LYS36      -0.2867
     65  CB         8.2750   -7.7420    9.0180 C.3    36  LYS36       0.0271
     66  CG         8.3870   -8.7360   10.1640 C.3    36  LYS36       0.0035
     67  CD         8.0230   -8.0860   11.4800 C.3    36  LYS36       0.0206
     68  CE         7.9310   -9.0700   12.6150 C.3    36  LYS36       0.1093
     69  NZ         8.0630   -8.3830   13.9280 N.3    36  LYS36      -0.1314
     70  N          0.6370   -6.0390   16.5610 N.3    45  GLU45      -0.1245
     71  CA         1.8740   -5.4130   16.0790 C.3    45  GLU45       0.1567
     72  C          1.5820   -4.3560   14.9980 C.2    45  GLU45       0.2260
     73  O          2.1580   -3.2670   15.0360 O.2    45  GLU45      -0.2867
     74  CB         2.8570   -6.4680   15.5380 C.3    45  GLU45       0.0388
     75  CG         4.1450   -5.8600   14.9910 C.3    45  GLU45       0.1160
     76  CD         5.2550   -6.8050   14.5810 C.2    45  GLU45       0.3649
     77  OE1        5.1260   -8.0270   14.8180 O.co2  45  GLU45      -0.2457
     78  OE2        6.2820   -6.3120   14.0640 O.co2  45  GLU45      -0.2457
     79  N          8.3090   -1.6920    6.4450 N.3    74  LEU74      -0.1231
     80  CA         8.9580   -0.8670    7.4530 C.3    74  LEU74       0.1693
     81  C         10.1340   -0.0930    6.9100 C.2    74  LEU74       0.2592
     82  O         10.7830   -0.5160    5.9460 O.2    74  LEU74      -0.2718
     83  CB         9.4420   -1.7470    8.6290 C.3    74  LEU74       0.0284
     84  CG         8.4190   -2.7250    9.2470 C.3    74  LEU74       0.0019
     85  CD1        9.1260   -3.8870    9.9450 C.3    74  LEU74       0.0001
     86  CD2        7.4330   -1.9990   10.1600 C.3    74  LEU74       0.0001
     87  N         10.4320    1.0260    7.5880 N.am   75  GLU75      -0.1966
     88  CA        11.5380    1.9170    7.2900 C.3    75  GLU75       0.1733
     89  C         12.8640    1.1570    7.3640 C.2    75  GLU75       0.2616
     90  O         13.1780    0.5440    8.3980 O.2    75  GLU75      -0.2715
     91  CB        11.5170    3.0900    8.2770 C.3    75  GLU75       0.0429
     92  CG        12.6790    4.0520    8.1200 C.3    75  GLU75       0.1163
     93  CD        12.8480    5.0460    9.2490 C.2    75  GLU75       0.3649
     94  OE1       12.0300    5.0310   10.2000 O.co2  75  GLU75      -0.2457
     95  OE2       13.8170    5.8360    9.1850 O.co2  75  GLU75      -0.2457
     96  N         13.6100    1.1560    6.2590 N.am   76  TYR76      -0.1960
     97  CA        14.9060    0.4950    6.2250 C.3    76  TYR76       0.1771
     98  C         15.9380    1.3680    6.9150 C.2    76  TYR76       0.2620
     99  O         15.9670    2.5870    6.7300 O.2    76  TYR76      -0.2715
    100  CB        15.3470    0.1430    4.7890 C.3    76  TYR76       0.0574
    101  CG        16.7040   -0.5320    4.7230 C.ar   76  TYR76      -0.0198
    102  CD1       16.9280   -1.7580    5.3480 C.ar   76  TYR76      -0.0009
    103  CD2       17.7660    0.0580    4.0400 C.ar   76  TYR76      -0.0009
    104  CE1       18.1720   -2.3840    5.2860 C.ar   76  TYR76       0.0417
    105  CE2       19.0100   -0.5670    3.9590 C.ar   76  TYR76       0.0417
    106  CZ        19.2110   -1.7820    4.5950 C.ar   76  TYR76       0.1957
    107  OH        20.4440   -2.3810    4.5550 O.3    76  TYR76      -0.2866
    108  N         16.7650    0.7350    7.7370 N.am   77  CYS77      -0.1954
    109  CA        17.8180    1.3940    8.4960 C.3    77  CYS77       0.1843
    110  C         19.1390    0.7910    8.0340 C.2    77  CYS77       0.2626
    111  O         19.4710   -0.3320    8.4190 O.2    77  CYS77      -0.2714
    112  CB        17.5720    1.2190    9.9960 C.3    77  CYS77       0.0997
    113  SG        15.9890    1.8920   10.5720 S.3    77  CYS77      -0.0797
    114  N         19.8460    1.4920    7.1260 N.am   78  SER78      -0.1936
    115  CA        21.0810    0.9850    6.4870 C.3    78  SER78       0.2055
    116  C         22.2890    0.7810    7.4260 C.2    78  SER78       0.2644
    117  O         23.1690   -0.0150    7.0880 O.2    78  SER78      -0.2714
    118  CB        21.5010    1.8660    5.3110 C.3    78  SER78       0.2130
    119  OG        21.4620    3.2530    5.6050 O.3    78  SER78      -0.2179
    120  N         22.3080    1.4520    8.5820 N.am   79  GLY79      -0.1939
    121  CA        23.3930    1.3350    9.5600 C.3    79  GLY79       0.2014
    122  C         23.3910    0.0670   10.3940 C.2    79  GLY79       0.2639
    123  O         24.3180   -0.1630   11.1700 O.2    79  GLY79      -0.2714
    124  N         22.3610   -0.7550   10.2340 N.am   80  GLY80      -0.1939
    125  CA        22.2060   -2.0040   10.9640 C.3    80  GLY80       0.2014
    126  C         21.8510   -1.7910   12.4230 C.2    80  GLY80       0.2638
    127  O         21.2600   -0.7710   12.7830 O.2    80  GLY80      -0.2714
    128  N         22.2600   -2.7340   13.2680 N.am   81  GLU81      -0.1977
    129  CA        21.9540   -2.7450   14.6940 C.3    81  GLU81       0.1602
    130  C         23.0070   -2.0400   15.5250 C.2    81  GLU81       0.2287
    131  O         24.1930   -2.1710   15.2460 O.2    81  GLU81      -0.2864
    132  CB        21.8180   -4.1940   15.2010 C.3    81  GLU81       0.0415
    133  CG        20.8310   -5.0200   14.3970 C.3    81  GLU81       0.1163
    134  CD        20.7390   -6.4960   14.7210 C.2    81  GLU81       0.3649
    135  OE1       21.3940   -6.9600   15.6860 O.co2  81  GLU81      -0.2457
    136  OE2       19.9780   -7.1860   14.0070 O.co2  81  GLU81      -0.2457
    137  N         19.9550   -5.0010   19.9030 N.3   124  GLU124     -0.1231
    138  CA        19.4810   -5.6970   18.7020 C.3   124  GLU124      0.1699
    139  C         18.2290   -5.0190   18.1300 C.2   124  GLU124      0.2592
    140  O         17.9760   -5.1040   16.9310 O.2   124  GLU124     -0.2718
    141  CB        19.1520   -7.1750   19.0230 C.3   124  GLU124      0.0402
    142  CG        20.3310   -7.9780   19.5620 C.3   124  GLU124      0.1161
    143  CD        20.5020   -8.0020   21.0740 C.2   124  GLU124      0.3649
    144  OE1       20.2130   -6.9860   21.7510 O.co2 124  GLU124     -0.2457
    145  OE2       20.9360   -9.0560   21.5860 O.co2 124  GLU124     -0.2457
    146  N         17.4440   -4.3590   18.9920 N.am  125  ASN125     -0.1974
    147  CA        16.1930   -3.7130   18.6090 C.3   125  ASN125      0.1688
    148  C         16.3710   -2.2400   18.4460 C.2   125  ASN125      0.2292
    149  O         15.3860   -1.5200   18.3910 O.2   125  ASN125     -0.2864
    150  CB        15.1050   -4.0290   19.6450 C.3   125  ASN125      0.1181
    151  CG        14.6030   -5.4410   19.4800 C.2   125  ASN125      0.2629
    152  OD1       14.6470   -6.0050   18.3940 O.2   125  ASN125     -0.2716
    153  ND2       14.0530   -6.0260   20.5170 N.am  125  ASN125     -0.0877
    154  N         18.0690    0.2310   15.8340 N.3   127  LEU127     -0.1245
    155  CA        18.6570    0.2800   14.4880 C.3   127  LEU127      0.1561
    156  C         19.1700    1.6580   14.1560 C.2   127  LEU127      0.2260
    157  O         18.7750    2.6290   14.7840 O.2   127  LEU127     -0.2867
    158  CB        17.6360   -0.1770   13.4240 C.3   127  LEU127      0.0270
    159  CG        16.9740   -1.5630   13.6480 C.3   127  LEU127      0.0019
    160  CD1       15.9580   -1.8820   12.5290 C.3   127  LEU127      0.0001
    161  CD2       18.0160   -2.6940   13.8030 C.3   127  LEU127      0.0001
    162  N         13.0290   -0.4400   17.1330 N.3   137  SER137     -0.1202
    163  CA        12.5360   -1.4580   16.2220 C.3   137  SER137      0.2020
    164  C         11.8170   -2.6260   16.8970 C.2   137  SER137      0.2618
    165  O         12.1370   -2.9790   18.0310 O.2   137  SER137     -0.2717
    166  CB        13.7350   -2.0150   15.4490 C.3   137  SER137      0.2103
    167  OG        13.3820   -3.0170   14.5100 O.3   137  SER137     -0.2182
    168  N         10.9090   -3.2810   16.1350 N.am  138  ASP138     -0.1973
    169  CA        10.1710   -4.5060   16.4970 C.3   138  ASP138      0.1709
    170  C          9.1750   -4.3030   17.6500 C.2   138  ASP138      0.2293
    171  O          9.5360   -4.4250   18.8260 O.2   138  ASP138     -0.2864
    172  CB        11.1630   -5.6440   16.8420 C.3   138  ASP138      0.1436
    173  CG        10.5410   -7.0180   16.9450 C.2   138  ASP138      0.3671
    174  OD1        9.2950   -7.1010   16.9640 O.co2 138  ASP138     -0.2456
    175  OD2       11.3070   -8.0130   17.0250 O.co2 138  ASP138     -0.2456
@<TRIPOS>BOND
     1     1     2    1
     2    51    50    2
     3     8     7    2
     4    50    49    1
     5     2     5    1
     6     2     3    1
     7     5     6    1
     8    55    53    1
     9    53    54    1
    10    53    52    1
    11     7     6    1
    12     7     9   am
    13    52    49    1
    14    49    48    1
    15     3     4    2
    16     3    10   am
    17    10    11    1
    18    15    14    1
    19   105   103   ar
    20   105   106   ar
    21   103   101   ar
    22    56    57    1
    23   107   106    1
    24    11    14    1
    25    11    12    1
    26   106   104   ar
    27   101   100    1
    28   101   102   ar
    29   100    97    1
    30    14    16    1
    31    57    58    1
    32    57    60    1
    33    58    59    2
    34   104   102   ar
    35   118   119    1
    36   118   115    1
    37    12    13    2
    38    12    17   am
    39    24    22    1
    40    82    81    2
    41    22    23    1
    42    22    21    1
    43    43    44    2
    44    43    42    1
    45    97    96    1
    46    97    98    1
    47    96    89   am
    48    17    18    1
    49    79    80    1
    50   115   114    1
    51   115   116    1
    52    61    62    1
    53    99    98    2
    54    64    63    2
    55    81    80    1
    56    81    87   am
    57    98   108   am
    58   117   116    2
    59   114   110   am
    60    63    62    1
    61    88    89    1
    62    88    87    1
    63    88    91    1
    64    18    21    1
    65    18    19    1
    66    89    90    2
    67    42    41    1
    68    42    45    1
    69   116   120   am
    70    80    83    1
    71    62    65    1
    72   108   109    1
    73    46    45    1
    74   110   111    2
    75   110   109    1
    76    92    91    1
    77    92    93    1
    78   109   112    1
    79    45    47    1
    80   120   121    1
    81    83    84    1
    82    19    25   am
    83    19    20    2
    84    25    26    1
    85    65    66    1
    86    28    27    2
    87    95    93   ar
    88    84    85    1
    89    84    86    1
    90    93    94   ar
    91   121   122    1
    92    27    26    1
    93   112   113    1
    94    66    67    1
    95   124   122   am
    96   124   125    1
    97   122   123    2
    98   125   126    1
    99    67    68    1
   100    37    35   ar
   101    37    39   ar
   102    32    31    2
   103    40    39    1
   104    35    34   ar
   105    31    30    1
   106   126   127    2
   107   126   128   am
   108    39    38   ar
   109   160   159    1
   110    68    69    1
   111   128   129    1
   112   158   159    1
   113   158   155    1
   114    34    33    1
   115    34    36   ar
   116   159   161    1
   117    38    36   ar
   118    30    33    1
   119    30    29    1
   120   136   134   ar
   121    78    76   ar
   122   156   155    1
   123   156   157    2
   124   133   134    1
   125   133   132    1
   126   155   154    1
   127   167   166    1
   128    76    77   ar
   129    76    75    1
   130   129   132    1
   131   129   130    1
   132   134   135   ar
   133    75    74    1
   134    72    73    2
   135    72    71    1
   136   131   130    2
   137   166   163    1
   138    74    71    1
   139    71    70    1
   140   168   169    1
   141   168   164   am
   142   163   164    1
   143   163   162    1
   144   169   172    1
   145   169   170    1
   146   172   173    1
   147   164   165    2
   148   140   139    2
   149   173   174   ar
   150   173   175   ar
   151   170   171    2
   152   139   138    1
   153   139   146   am
   154   149   148    2
   155   152   151    2
   156   148   147    1
   157   147   146    1
   158   147   150    1
   159   138   141    1
   160   138   137    1
   161   141   142    1
   162   151   150    1
   163   151   153   am
   164   142   143    1
   165   143   145   ar
   166   143   144   ar
