@<TRIPOS>MOLECULE
tmp/4ftwA01.pdb
 107 101 0 0 0
SMALL
GASTEIGER

@<TRIPOS>ATOM
      1  N        -40.1730  -33.7010   -7.1290 N.3    27  GLY27      -0.1210
      2  CA       -40.3770  -35.1210   -6.9820 C.3    27  GLY27       0.1956
      3  C        -39.8710  -35.9680   -8.1340 C.2    27  GLY27       0.2611
      4  O        -39.4820  -35.4670   -9.1850 O.2    27  GLY27      -0.2717
      5  N        -39.8990  -37.2750   -7.9180 N.am   28  TYR28      -0.1976
      6  CA       -39.5170  -38.2600   -8.9100 C.3    28  TYR28       0.1639
      7  C        -40.2170  -38.0420  -10.2480 C.2    28  TYR28       0.2290
      8  O        -41.4420  -38.1040  -10.3200 O.2    28  TYR28      -0.2864
      9  CB       -39.8560  -39.6500   -8.3670 C.3    28  TYR28       0.0560
     10  CG       -39.4160  -40.8050   -9.2280 C.ar   28  TYR28      -0.0198
     11  CD1      -40.2960  -41.4010  -10.1070 C.ar   28  TYR28      -0.0009
     12  CD2      -38.1260  -41.3130   -9.1470 C.ar   28  TYR28      -0.0009
     13  CE1      -39.9160  -42.4640  -10.8880 C.ar   28  TYR28       0.0417
     14  CE2      -37.7320  -42.3850   -9.9230 C.ar   28  TYR28       0.0417
     15  CZ       -38.6320  -42.9560  -10.7950 C.ar   28  TYR28       0.1957
     16  OH       -38.2690  -44.0220  -11.5850 O.3    28  TYR28      -0.2866
     17  N        -40.0130  -35.2470  -12.0650 N.3    30  ALA30      -0.1245
     18  CA       -40.1450  -33.8620  -12.3880 C.3    30  ALA30       0.1562
     19  C        -38.7980  -33.2230  -12.5270 C.2    30  ALA30       0.2260
     20  O        -37.8360  -33.8820  -12.7830 O.2    30  ALA30      -0.2867
     21  CB       -40.9080  -33.1810  -11.3400 C.3    30  ALA30       0.0290
     22  N        -40.7370  -27.2780  -12.6200 N.3    34  ASP34      -0.1225
     23  CA       -42.0420  -27.6860  -12.1000 C.3    34  ASP34       0.1805
     24  C        -42.4580  -26.9730  -10.8120 C.2    34  ASP34       0.2597
     25  O        -43.4800  -26.2950  -10.7880 O.2    34  ASP34      -0.2718
     26  CB       -42.0700  -29.2150  -11.9150 C.3    34  ASP34       0.1424
     27  CG       -43.1860  -29.6870  -10.9850 C.2    34  ASP34       0.3668
     28  OD1      -43.6580  -28.9040  -10.1310 O.co2  34  ASP34      -0.2456
     29  OD2      -43.5800  -30.8620  -11.0910 O.co2  34  ASP34      -0.2456
     30  N        -41.6980  -27.1480   -9.7360 N.am   35  LEU35      -0.1979
     31  CA       -42.0240  -26.4840   -8.4710 C.3    35  LEU35       0.1596
     32  C        -41.6850  -24.9970   -8.4660 C.2    35  LEU35       0.2287
     33  O        -42.3350  -24.2100   -7.7840 O.2    35  LEU35      -0.2864
     34  CB       -41.3320  -27.1590   -7.2820 C.3    35  LEU35       0.0297
     35  CG       -41.7390  -28.5800   -6.8990 C.3    35  LEU35       0.0022
     36  CD1      -41.1680  -28.9170   -5.5180 C.3    35  LEU35       0.0001
     37  CD2      -43.2660  -28.7650   -6.9350 C.3    35  LEU35       0.0001
     38  N        -44.2380  -22.3640   -8.4170 N.3    38  LEU38      -0.1245
     39  CA       -44.8410  -21.9160   -7.1630 C.3    38  LEU38       0.1561
     40  C        -44.3720  -20.5270   -6.7590 C.2    38  LEU38       0.2260
     41  O        -44.9880  -19.8920   -5.9150 O.2    38  LEU38      -0.2867
     42  CB       -44.5370  -22.9070   -6.0390 C.3    38  LEU38       0.0270
     43  CG       -45.1930  -24.2860   -6.1490 C.3    38  LEU38       0.0019
     44  CD1      -44.7640  -25.2140   -5.0160 C.3    38  LEU38       0.0001
     45  CD2      -46.7030  -24.1350   -6.1770 C.3    38  LEU38       0.0001
     46  N        -36.2830  -45.6470   -7.5530 N.3    72  ILE72      -0.1245
     47  CA       -37.2490  -46.2670   -6.6640 C.3    72  ILE72       0.1561
     48  C        -37.4300  -47.7260   -7.0620 C.2    72  ILE72       0.2260
     49  O        -38.2250  -48.0400   -7.9310 O.2    72  ILE72      -0.2867
     50  CB       -38.5980  -45.5210   -6.7200 C.3    72  ILE72       0.0252
     51  CG1      -38.4080  -44.0580   -6.3120 C.3    72  ILE72       0.0019
     52  CG2      -39.6390  -46.2100   -5.8460 C.3    72  ILE72       0.0019
     53  CD1      -39.6300  -43.1850   -6.5400 C.3    72  ILE72       0.0001
     54  N        -40.5100  -49.6570   -8.3610 N.3    75  LEU75      -0.1245
     55  CA       -41.2050  -48.9160   -9.4000 C.3    75  LEU75       0.1561
     56  C        -40.2490  -48.7740  -10.5700 C.2    75  LEU75       0.2260
     57  O        -40.6570  -48.6480  -11.7250 O.2    75  LEU75      -0.2867
     58  CB       -41.5460  -47.5360   -8.8480 C.3    75  LEU75       0.0270
     59  CG       -42.2420  -46.4430   -9.6570 C.3    75  LEU75       0.0019
     60  CD1      -42.4050  -45.2300   -8.7560 C.3    75  LEU75       0.0001
     61  CD2      -41.4810  -46.0580  -10.9160 C.3    75  LEU75       0.0001
     62  N        -41.4540  -31.7150   -2.2860 N.3   117  PHE117     -0.1227
     63  CA       -42.5010  -32.5600   -2.7920 C.3   117  PHE117      0.1736
     64  C        -41.9570  -33.9070   -3.2580 C.2   117  PHE117      0.2596
     65  O        -41.1910  -34.0680   -4.1470 O.2   117  PHE117     -0.2718
     66  CB       -43.3090  -31.8910   -3.8830 C.3   117  PHE117      0.0547
     67  CG       -44.4690  -32.6970   -4.3410 C.ar  117  PHE117     -0.0202
     68  CD1      -45.5930  -32.8090   -3.5770 C.ar  117  PHE117     -0.0042
     69  CD2      -44.4310  -33.3530   -5.5290 C.ar  117  PHE117     -0.0042
     70  CE1      -46.6400  -33.5400   -3.9990 C.ar  117  PHE117     -0.0003
     71  CE2      -45.4800  -34.0810   -5.9440 C.ar  117  PHE117     -0.0003
     72  CZ       -46.5820  -34.1790   -5.1800 C.ar  117  PHE117     -0.0000
     73  N        -42.3680  -34.8780   -2.4860 N.am  118  SER118     -0.1952
     74  CA       -42.4080  -36.3070   -2.5140 C.3   118  SER118      0.1924
     75  C        -41.0770  -36.8470   -2.1290 C.2   118  SER118      0.2314
     76  O        -40.7000  -36.8570   -0.9850 O.2   118  SER118     -0.2863
     77  CB       -42.8600  -36.8270   -3.8590 C.3   118  SER118      0.2116
     78  OG       -43.6860  -37.9350   -3.6840 O.3   118  SER118     -0.2180
     79  N        -50.2790  -42.5850   -3.4880 N.3   171  VAL171     -0.1245
     80  CA       -48.8610  -42.7910   -3.7700 C.3   171  VAL171      0.1561
     81  C        -48.0670  -42.9660   -2.4710 C.2   171  VAL171      0.2260
     82  O        -47.4390  -44.0110   -2.2310 O.2   171  VAL171     -0.2867
     83  CB       -48.2630  -41.6130   -4.5610 C.3   171  VAL171      0.0252
     84  CG1      -46.7570  -41.8090   -4.7480 C.3   171  VAL171      0.0019
     85  CG2      -48.9440  -41.4690   -5.9010 C.3   171  VAL171      0.0019
     86  N        -52.1700  -37.1640   -4.0310 N.3   201  HIS201     -0.1226
     87  CA       -50.7340  -36.8630   -4.1080 C.3   201  HIS201      0.1752
     88  C        -50.5030  -35.5820   -4.9240 C.2   201  HIS201      0.2597
     89  O        -50.1980  -35.6220   -6.1120 O.2   201  HIS201     -0.2718
     90  CB       -49.9750  -38.0570   -4.7080 C.3   201  HIS201      0.0759
     91  CG       -48.4960  -38.0200   -4.4690 C.ar  201  HIS201      0.0818
     92  ND1      -47.9390  -38.1740   -3.2180 N.ar  201  HIS201     -0.2268
     93  CD2      -47.4580  -37.8530   -5.3250 C.ar  201  HIS201      0.1154
     94  CE1      -46.6230  -38.1120   -3.3140 C.ar  201  HIS201      0.1986
     95  NE2      -46.3070  -37.9130   -4.5790 N.ar  201  HIS201     -0.2212
     96  N        -50.6850  -34.4390   -4.2800 N.am  202  GLY202     -0.1942
     97  CA       -50.6320  -33.1700   -4.9680 C.3   202  GLY202      0.2014
     98  C        -50.6910  -32.0420   -3.9610 C.2   202  GLY202      0.2638
     99  O        -50.9280  -32.2770   -2.7820 O.2   202  GLY202     -0.2714
    100  N        -50.4530  -30.8180   -4.4160 N.am  203  ILE203     -0.1977
    101  CA       -50.4410  -29.6750   -3.5220 C.3   203  ILE203      0.1596
    102  C        -51.6910  -28.8320   -3.7010 C.2   203  ILE203      0.2287
    103  O        -51.8840  -28.2110   -4.7460 O.2   203  ILE203     -0.2864
    104  CB       -49.1890  -28.8150   -3.7520 C.3   203  ILE203      0.0276
    105  CG1      -47.9430  -29.6090   -3.3560 C.3   203  ILE203      0.0022
    106  CG2      -49.2720  -27.5090   -2.9750 C.3   203  ILE203      0.0022
    107  CD1      -46.6570  -28.9910   -3.8280 C.3   203  ILE203      0.0001
@<TRIPOS>BOND
     1    20    19    2
     2    22    23    1
     3    19    18    1
     4    18    17    1
     5    18    21    1
     6    23    26    1
     7    23    24    1
     8    26    27    1
     9    57    56    2
    10    16    15    1
    11    29    27   ar
    12    27    28   ar
    13    61    59    1
    14    13    15   ar
    15    13    11   ar
    16    24    25    2
    17    24    30   am
    18    15    14   ar
    19    56    55    1
    20     8     7    2
    21     7     6    1
    22    11    10   ar
    23    14    12   ar
    24    30    31    1
    25    59    58    1
    26    59    60    1
    27    55    58    1
    28    55    54    1
    29    10    12   ar
    30    10     9    1
    31     4     3    2
    32     6     9    1
    33     6     5    1
    34    31    32    1
    35    31    34    1
    36    32    33    2
    37    38    39    1
    38     3     5   am
    39     3     2    1
    40    49    48    2
    41    46    47    1
    42    34    35    1
    43    39    40    1
    44    39    42    1
    45     1     2    1
    46    48    47    1
    47    37    35    1
    48    35    36    1
    49    40    41    2
    50    50    47    1
    51    50    51    1
    52    50    52    1
    53    53    51    1
    54    45    43    1
    55    43    42    1
    56    43    44    1
    57    89    88    2
    58    71    69   ar
    59    71    72   ar
    60    85    83    1
    61    69    67   ar
    62    93    95   ar
    63    93    91   ar
    64    72    70   ar
    65    97    96    1
    66    97    98    1
    67    88    96   am
    68    88    87    1
    69    84    83    1
    70   103   102    2
    71    90    91    1
    72    90    87    1
    73    95    94   ar
    74    83    80    1
    75    91    92   ar
    76   100    98   am
    77   100   101    1
    78    67    66    1
    79    67    68   ar
    80    65    64    2
    81    87    86    1
    82    70    68   ar
    83    98    99    2
    84    66    63    1
    85    77    78    1
    86    77    74    1
    87   107   105    1
    88    80    79    1
    89    80    81    1
    90   104   101    1
    91   104   105    1
    92   104   106    1
    93   102   101    1
    94    94    92   ar
    95    64    63    1
    96    64    73   am
    97    63    62    1
    98    74    73    1
    99    74    75    1
   100    81    82    2
   101    75    76    2
