@<TRIPOS>MOLECULE
tmp/4fu5A01.pdb
 114 113 0 0 0
SMALL
GASTEIGER

@<TRIPOS>ATOM
      1  N          8.5700    8.1680   11.2990 N.3    89  GLN89      -0.1245
      2  CA         8.8780    7.0220   10.4310 C.3    89  GLN89       0.1566
      3  C          8.5780    5.7530   11.2100 C.2    89  GLN89       0.2260
      4  O          8.5760    5.7620   12.4450 O.2    89  GLN89      -0.2867
      5  CB        10.3080    7.0160    9.9270 C.3    89  GLN89       0.0367
      6  CG        11.3860    7.0970   11.0200 C.3    89  GLN89       0.0905
      7  CD        12.1070    5.8140   11.2540 C.2    89  GLN89       0.2608
      8  OE1       11.5480    4.7240   11.2610 O.2    89  GLN89      -0.2717
      9  NE2       13.4030    5.9280   11.6240 N.am   89  GLN89      -0.0878
     10  N          9.9800    1.4470   10.9640 N.3    91  HIS91      -0.1241
     11  CA        10.8320    0.4530   10.3570 C.3    91  HIS91       0.1621
     12  C         10.7470   -0.8180   11.1860 C.2    91  HIS91       0.2264
     13  O         10.1140   -0.8460   12.2510 O.2    91  HIS91      -0.2867
     14  CB        12.3020    0.9460   10.2700 C.3    91  HIS91       0.0745
     15  CG        12.8290    1.2240   11.6430 C.ar   91  HIS91       0.0817
     16  ND1       12.6730    2.4350   12.2830 N.ar   91  HIS91      -0.2268
     17  CD2       13.4730    0.3850   12.5390 C.ar   91  HIS91       0.1154
     18  CE1       13.2090    2.3120   13.5200 C.ar   91  HIS91       0.1986
     19  NE2       13.7010    1.0820   13.7110 N.ar   91  HIS91      -0.2212
     20  N         13.0580   -4.5700   12.4970 N.3    93  HIS93      -0.1241
     21  CA        14.2230   -5.3760   12.6490 C.3    93  HIS93       0.1621
     22  C         13.7990   -6.8390   12.5500 C.2    93  HIS93       0.2264
     23  O         12.7130   -7.1810   13.0440 O.2    93  HIS93      -0.2867
     24  CB        14.8900   -5.1720   14.0520 C.3    93  HIS93       0.0745
     25  CG        15.1770   -3.7190   14.3060 C.ar   93  HIS93       0.0817
     26  ND1       16.4260   -3.1690   14.1390 N.ar   93  HIS93      -0.2268
     27  CD2       14.3790   -2.6780   14.6980 C.ar   93  HIS93       0.1154
     28  CE1       16.3580   -1.8730   14.4200 C.ar   93  HIS93       0.1986
     29  NE2       15.1310   -1.5240   14.7780 N.ar   93  HIS93      -0.2212
     30  N          9.1340   -0.7300   14.9070 N.3   116  HIS116     -0.1241
     31  CA         9.3850    0.5080   15.6650 C.3   116  HIS116      0.1621
     32  C          8.7170    1.6750   14.9590 C.2   116  HIS116      0.2264
     33  O          9.0960    2.0140   13.8300 O.2   116  HIS116     -0.2867
     34  CB        10.8780    0.8000   15.7580 C.3   116  HIS116      0.0745
     35  CG        11.5740   -0.1930   16.6320 C.ar  116  HIS116      0.0817
     36  ND1       12.9490   -0.4010   16.6090 N.ar  116  HIS116     -0.2268
     37  CD2       11.0380   -1.0080   17.5840 C.ar  116  HIS116      0.1154
     38  CE1       13.2110   -1.3290   17.5260 C.ar  116  HIS116      0.1986
     39  NE2       12.0820   -1.7170   18.1270 N.ar  116  HIS116     -0.2212
     40  N          8.4710    5.5040   15.2890 N.3   118  VAL118     -0.1245
     41  CA         9.3340    6.5160   15.9170 C.3   118  VAL118      0.1561
     42  C          8.6140    7.8720   15.9280 C.2   118  VAL118      0.2260
     43  O          8.1660    8.3230   14.8810 O.2   118  VAL118     -0.2867
     44  CB        10.6600    6.6240   15.1340 C.3   118  VAL118      0.0252
     45  CG1       11.5820    7.7040   15.7740 C.3   118  VAL118      0.0019
     46  CG2       11.3310    5.2670   15.0380 C.3   118  VAL118      0.0019
     47  N         12.8310   16.9750   14.8510 N.3   127  PHE127     -0.1241
     48  CA        13.4460   15.7530   15.2740 C.3   127  PHE127      0.1605
     49  C         14.9220   15.9940   15.7000 C.2   127  PHE127      0.2264
     50  O         15.3990   15.4190   16.6830 O.2   127  PHE127     -0.2867
     51  CB        13.4080   14.7400   14.1260 C.3   127  PHE127      0.0534
     52  CG        14.0730   13.4320   14.3990 C.ar  127  PHE127     -0.0203
     53  CD1       13.3480   12.3850   14.9650 C.ar  127  PHE127     -0.0042
     54  CD2       15.4340   13.2080   14.1500 C.ar  127  PHE127     -0.0042
     55  CE1       13.9750   11.1630   15.2290 C.ar  127  PHE127     -0.0003
     56  CE2       16.0210   12.0140   14.4420 C.ar  127  PHE127     -0.0003
     57  CZ        15.3130   10.9690   14.9590 C.ar  127  PHE127     -0.0000
     58  N          9.2530    5.6840   21.1440 N.3   139  VAL139     -0.1245
     59  CA         9.1780    4.6230   20.1480 C.3   139  VAL139      0.1561
     60  C          8.1840    3.5780   20.6440 C.2   139  VAL139      0.2260
     61  O          8.3010    3.0920   21.7500 O.2   139  VAL139     -0.2867
     62  CB        10.5480    4.0260   19.8100 C.3   139  VAL139      0.0252
     63  CG1       10.4010    2.9720   18.7070 C.3   139  VAL139      0.0019
     64  CG2       11.5300    5.0870   19.3470 C.3   139  VAL139      0.0019
     65  N         18.0270    5.0210   21.2360 N.3   194  LEU194     -0.1231
     66  CA        18.0160    4.4290   19.9200 C.3   194  LEU194      0.1693
     67  C         18.7740    3.1080   19.9530 C.2   194  LEU194      0.2593
     68  O         19.7830    2.9910   20.6640 O.2   194  LEU194     -0.2718
     69  CB        18.7230    5.3510   18.9220 C.3   194  LEU194      0.0284
     70  CG        18.1960    6.7480   18.7540 C.3   194  LEU194      0.0019
     71  CD1       19.0370    7.5120   17.7060 C.3   194  LEU194      0.0001
     72  CD2       16.7100    6.7090   18.3750 C.3   194  LEU194      0.0001
     73  N         18.3160    2.1350   19.1780 N.am  195  THR195     -0.1939
     74  CA        19.0220    0.8470   19.1060 C.3   195  THR195      0.2028
     75  C         20.0150    0.7610   17.9340 C.2   195  THR195      0.2643
     76  O         20.6670   -0.2690   17.7810 O.2   195  THR195     -0.2714
     77  CB        18.0720   -0.3260   19.0010 C.3   195  THR195      0.1808
     78  OG1       17.4610   -0.2930   17.7020 O.3   195  THR195     -0.2208
     79  CG2       16.9650   -0.3450   20.0840 C.3   195  THR195      0.0379
     80  N         20.1220    1.8320   17.1770 N.am  196  THR196     -0.1937
     81  CA        21.1210    1.9300   16.1140 C.3   196  THR196      0.2013
     82  C         22.0100    3.1290   16.4250 C.2   196  THR196      0.2484
     83  O         21.5520    4.1310   17.0080 O.2   196  THR196     -0.2729
     84  CB        20.4530    2.1850   14.7330 C.3   196  THR196      0.1807
     85  OG1       19.5350    3.3180   14.8500 O.3   196  THR196     -0.2208
     86  CG2       19.6500    0.9930   14.3460 C.3   196  THR196      0.0379
     87  N         23.2710    3.0930   15.9870 N.am  197  PRO197     -0.2715
     88  CA        24.0800    4.2950   16.0330 C.3   197  PRO197      0.1521
     89  C         23.3310    5.5120   15.4650 C.2   197  PRO197      0.2440
     90  O         22.6960    5.3780   14.4030 O.2   197  PRO197     -0.2731
     91  CB        25.3090    3.8890   15.1690 C.3   197  PRO197      0.0310
     92  CG        25.4350    2.4040   15.4610 C.3   197  PRO197      0.0237
     93  CD        23.9810    1.9390   15.4220 C.3   197  PRO197      0.0939
     94  N         23.3700    6.6600   16.1570 N.am  198  PRO198     -0.2727
     95  CA        24.2560    7.0350   17.2480 C.3   198  PRO198      0.1402
     96  C         23.8210    6.6220   18.6820 C.2   198  PRO198      0.2269
     97  O         24.4680    7.1000   19.6240 O.2   198  PRO198     -0.2865
     98  CB        24.3270    8.5690   17.0560 C.3   198  PRO198      0.0296
     99  CG        23.0040    8.9620   16.4760 C.3   198  PRO198      0.0237
    100  CD        22.6480    7.8380   15.5770 C.3   198  PRO198      0.0939
    101  N         10.5530    4.2200   25.6890 N.3   205  TRP205     -0.1241
    102  CA        10.1010    3.0270   24.9910 C.3   205  TRP205      0.1605
    103  C          8.7330    2.6090   25.4990 C.2   205  TRP205      0.2264
    104  O          8.4950    2.5640   26.7120 O.2   205  TRP205     -0.2867
    105  CB        11.1030    1.8450   25.1970 C.3   205  TRP205      0.0550
    106  CG        12.2300    1.9800   24.2490 C.ar  205  TRP205      0.0003
    107  CD1       13.4530    2.5610   24.4500 C.ar  205  TRP205      0.0946
    108  CD2       12.1960    1.5530   22.8960 C.ar  205  TRP205      0.0152
    109  NE1       14.1920    2.5140   23.2820 N.ar  205  TRP205     -0.2442
    110  CE2       13.4450    1.8950   22.3200 C.ar  205  TRP205      0.0810
    111  CE3       11.2480    0.8940   22.1000 C.ar  205  TRP205      0.0012
    112  CZ2       13.7480    1.6040   20.9790 C.ar  205  TRP205      0.0191
    113  CZ3       11.5700    0.6210   20.7870 C.ar  205  TRP205      0.0001
    114  CH2       12.7840    0.9710   20.2330 C.ar  205  TRP205      0.0015
@<TRIPOS>BOND
     1     5     2    1
     2     5     6    1
     3    14    11    1
     4    14    15    1
     5    11    10    1
     6    11    12    1
     7     2     3    1
     8     2     1    1
     9     6     7    1
    10    12    13    2
    11     3     4    2
    12     7     8    2
    13     7     9   am
    14    15    16   ar
    15    15    17   ar
    16    16    18   ar
    17    20    21    1
    18    17    19   ar
    19    22    21    1
    20    22    23    2
    21    21    24    1
    22    18    19   ar
    23    33    32    2
    24    24    25    1
    25    51    52    1
    26    51    48    1
    27    26    25   ar
    28    26    28   ar
    29    54    52   ar
    30    54    56   ar
    31    25    27   ar
    32    86    84    1
    33    52    53   ar
    34    90    89    2
    35    28    29   ar
    36    56    57   ar
    37    27    29   ar
    38    84    85    1
    39    84    81    1
    40    47    48    1
    41    43    42    2
    42    30    31    1
    43    32    31    1
    44    57    55   ar
    45    53    55   ar
    46    46    44    1
    47    44    45    1
    48    44    41    1
    49    91    92    1
    50    91    88    1
    51    48    49    1
    52    40    41    1
    53    93    92    1
    54    93    87    1
    55    89    88    1
    56    89    94   am
    57   100    94    1
    58   100    99    1
    59    31    34    1
    60    49    50    2
    61    34    35    1
    62    41    42    1
    63    87    88    1
    64    87    82   am
    65    81    82    1
    66    81    80    1
    67    94    95    1
    68    82    83    2
    69    99    98    1
    70    36    35   ar
    71    36    38   ar
    72    35    37   ar
    73    98    95    1
    74    80    75   am
    75    95    96    1
    76    38    39   ar
    77    37    39   ar
    78    78    77    1
    79    71    70    1
    80    76    75    2
    81    75    74    1
    82    72    70    1
    83    96    97    2
    84    63    62    1
    85    70    69    1
    86    69    66    1
    87    77    74    1
    88    77    79    1
    89    74    73    1
    90    73    67   am
    91    64    62    1
    92    62    59    1
    93    66    67    1
    94    66    65    1
    95    67    68    2
    96    59    60    1
    97    59    58    1
    98   114   113   ar
    99   114   112   ar
   100    60    61    2
   101   113   111   ar
   102   112   110   ar
   103   111   108   ar
   104   110   108   ar
   105   110   109   ar
   106   108   106   ar
   107   109   107   ar
   108   106   107   ar
   109   106   105    1
   110   102   105    1
   111   102   103    1
   112   102   101    1
   113   103   104    2
