@<TRIPOS>MOLECULE
tmp/4fu7A00.pdb
 133 132 0 0 0
SMALL
GASTEIGER

@<TRIPOS>ATOM
      1  N         23.0280   -9.2950   15.9910 N.3    46  HIS46      -0.1241
      2  CA        24.1680   -9.6880   15.1330 C.3    46  HIS46       0.1621
      3  C         24.3410   -8.7370   13.9250 C.2    46  HIS46       0.2264
      4  O         25.4470   -8.6180   13.3900 O.2    46  HIS46      -0.2867
      5  CB        24.0590  -11.1520   14.6750 C.3    46  HIS46       0.0745
      6  CG        23.2880  -11.4180   13.4250 C.ar   46  HIS46       0.0817
      7  ND1       22.1090  -12.1510   13.4560 N.ar   46  HIS46      -0.2268
      8  CD2       23.6260  -11.1990   12.1300 C.ar   46  HIS46       0.1154
      9  CE1       21.7320  -12.2850   12.1970 C.ar   46  HIS46       0.1986
     10  NE2       22.6090  -11.7360   11.3630 N.ar   46  HIS46      -0.2212
     11  N         13.0480  -20.4370    1.8140 N.3   192  ASP192     -0.1225
     12  CA        13.5880  -20.0960    3.1190 C.3   192  ASP192      0.1805
     13  C         14.0040  -18.6360    3.1820 C.2   192  ASP192      0.2598
     14  O         13.9970  -17.9400    2.1640 O.2   192  ASP192     -0.2718
     15  CB        14.8530  -20.9930    3.3390 C.3   192  ASP192      0.1424
     16  CG        15.3920  -21.1820    4.7470 C.2   192  ASP192      0.3668
     17  OD1       14.7070  -20.7590    5.7220 O.co2 192  ASP192     -0.2456
     18  OD2       16.4840  -21.7750    4.8810 O.co2 192  ASP192     -0.2456
     19  N         14.4240  -18.1870    4.3870 N.am  193  SER193     -0.1938
     20  CA        15.1020  -16.9170    4.5490 C.3   193  SER193      0.2055
     21  C         16.6010  -17.2210    4.2680 C.2   193  SER193      0.2643
     22  O         17.0090  -18.3910    4.1770 O.2   193  SER193     -0.2714
     23  CB        14.8480  -16.3090    5.9360 C.3   193  SER193      0.2130
     24  OG        15.0740  -17.2410    6.9830 O.3   193  SER193     -0.2179
     25  N         17.3940  -16.2000    4.0420 N.am  194  CYS194     -0.1953
     26  CA        18.7950  -16.4140    3.7510 C.3   194  CYS194      0.1843
     27  C         19.5610  -15.2090    4.2670 C.2   194  CYS194      0.2625
     28  O         18.9580  -14.3300    4.8790 O.2   194  CYS194     -0.2714
     29  CB        18.9980  -16.6250    2.2400 C.3   194  CYS194      0.0997
     30  SG        20.5990  -17.3680    1.7950 S.3   194  CYS194     -0.0797
     31  N         20.8790  -15.1650    4.0380 N.am  195  GLN195     -0.1963
     32  CA        21.7230  -14.0270    4.3930 C.3   195  GLN195      0.1733
     33  C         21.1230  -12.7550    3.8100 C.2   195  GLN195      0.2616
     34  O         20.8060  -12.7380    2.6280 O.2   195  GLN195     -0.2715
     35  CB        23.1370  -14.2510    3.8290 C.3   195  GLN195      0.0408
     36  CG        24.0770  -13.0690    4.0640 C.3   195  GLN195      0.0908
     37  CD        25.5280  -13.3900    3.7860 C.2   195  GLN195      0.2608
     38  OE1       25.8610  -14.3600    3.1090 O.2   195  GLN195     -0.2717
     39  NE2       26.4200  -12.5470    4.2670 N.am  195  GLN195     -0.0878
     40  N         20.9450  -11.7290    4.6350 N.am  196  GLY196     -0.1955
     41  CA        20.3370  -10.4600    4.2160 C.3   196  GLY196      0.1869
     42  C         18.9180  -10.3270    4.7250 C.2   196  GLY196      0.2309
     43  O         18.3820   -9.2220    4.8480 O.2   196  GLY196     -0.2863
     44  N         18.2230  -11.4100    7.8090 N.3   198  SER198     -0.1217
     45  CA        18.3920  -11.2880    9.2670 C.3   198  SER198      0.1889
     46  C         17.7520  -10.0520    9.8000 C.2   198  SER198      0.2288
     47  O         17.6840   -9.0470    9.0900 O.2   198  SER198     -0.2866
     48  CB        19.8590  -11.2920    9.6590 C.3   198  SER198      0.2089
     49  OG        20.4430  -12.5400    9.3510 O.3   198  SER198     -0.2183
     50  N         14.2340  -13.1770   12.1200 N.3   216  VAL216     -0.1231
     51  CA        15.2470  -13.9630   11.3910 C.3   216  VAL216      0.1692
     52  C         16.5980  -13.8490   12.1250 C.2   216  VAL216      0.2593
     53  O         17.0980  -12.7360   12.3110 O.2   216  VAL216     -0.2718
     54  CB        15.3760  -13.5370    9.8980 C.3   216  VAL216      0.0266
     55  CG1       16.3710  -14.4370    9.1600 C.3   216  VAL216      0.0020
     56  CG2       14.0220  -13.5100    9.1840 C.3   216  VAL216      0.0020
     57  N         17.1980  -14.9970   12.5220 N.am  217  SER217     -0.1938
     58  CA        18.4560  -14.9490   13.2540 C.3   217  SER217      0.2055
     59  C         19.5810  -15.7360   12.5830 C.2   217  SER217      0.2643
     60  O         20.6430  -15.1580   12.3350 O.2   217  SER217     -0.2714
     61  CB        18.2570  -15.4680   14.6790 C.3   217  SER217      0.2130
     62  OG        19.4700  -15.4350   15.4160 O.3   217  SER217     -0.2179
     63  N         19.4110  -17.0630   12.3950 N.am  218  TRP218     -0.1959
     64  CA        20.5010  -17.8800   11.8730 C.3   218  TRP218      0.1771
     65  C         20.0160  -19.1800   11.2060 C.2   218  TRP218      0.2620
     66  O         18.8420  -19.5210   11.2510 O.2   218  TRP218     -0.2715
     67  CB        21.5470  -18.1920   12.9820 C.3   218  TRP218      0.0590
     68  CG        21.0300  -19.0080   14.1370 C.ar  218  TRP218      0.0006
     69  CD1       20.4430  -18.5420   15.2840 C.ar  218  TRP218      0.0946
     70  CD2       21.1100  -20.4340   14.2750 C.ar  218  TRP218      0.0152
     71  NE1       20.1610  -19.5920   16.1310 N.ar  218  TRP218     -0.2442
     72  CE2       20.5870  -20.7630   15.5490 C.ar  218  TRP218      0.0810
     73  CE3       21.6170  -21.4670   13.4570 C.ar  218  TRP218      0.0012
     74  CZ2       20.4990  -22.0900   16.0020 C.ar  218  TRP218      0.0191
     75  CZ3       21.5120  -22.7810   13.8990 C.ar  218  TRP218      0.0001
     76  CH2       21.0070  -23.0790   15.1750 C.ar  218  TRP218      0.0015
     77  N         20.9390  -19.8420   10.5360 N.am  219  GLY219     -0.1940
     78  CA        20.6890  -21.0970    9.8420 C.3   219  GLY219      0.2014
     79  C         21.9390  -21.5940    9.1470 C.2   219  GLY219      0.2639
     80  O         22.8710  -20.8220    8.8900 O.2   219  GLY219     -0.2714
     81  N         21.9850  -22.8970    8.8930 N.am  220  ARG220     -0.1963
     82  CA        23.0830  -23.5160    8.1690 C.3   220  ARG220      0.1729
     83  C         22.6740  -23.5120    6.6870 C.2   220  ARG220      0.2617
     84  O         21.6890  -24.1480    6.3240 O.2   220  ARG220     -0.2715
     85  CB        23.3730  -24.9380    8.7060 C.3   220  ARG220      0.0348
     86  CG        24.3340  -25.7820    7.8610 C.3   220  ARG220      0.0492
     87  CD        25.8210  -25.3960    7.9450 C.3   220  ARG220      0.2205
     88  NE        26.1070  -24.2050    7.1460 N.pl3 220  ARG220     -0.0865
     89  CZ        26.3770  -24.2080    5.8430 C.cat 220  ARG220      0.5346
     90  NH1       26.4960  -25.3490    5.1870 N.pl3 220  ARG220      0.1354
     91  NH2       26.5810  -23.0660    5.1990 N.pl3 220  ARG220      0.1354
     92  N         23.4040  -22.7480    5.8800 N.am  221  GLY221     -0.1940
     93  CA        23.1210  -22.5420    4.4670 C.3   221  GLY221      0.2014
     94  C         21.7660  -21.8700    4.3530 C.2   221  GLY221      0.2639
     95  O         21.2800  -21.2730    5.3220 O.2   221  GLY221     -0.2714
     96  N         21.1170  -22.0340    3.2010 N.am  222  CYS222     -0.1967
     97  CA        19.7690  -21.5360    2.9490 C.3   222  CYS222      0.1712
     98  C         19.0040  -22.5660    2.1660 C.2   222  CYS222      0.2296
     99  O         19.5320  -23.0930    1.1930 O.2   222  CYS222     -0.2864
    100  CB        19.8160  -20.2010    2.2200 C.3   222  CYS222      0.0983
    101  SG        20.8080  -18.9530    3.0710 S.3   222  CYS222     -0.0798
    102  N         17.9480  -28.3140    7.5580 N.3   227  LYS227     -0.1245
    103  CA        18.5830  -27.1330    8.1460 C.3   227  LYS227      0.1561
    104  C         17.5590  -25.9790    8.1290 C.2   227  LYS227      0.2260
    105  O         17.5810  -25.1150    7.2320 O.2   227  LYS227     -0.2867
    106  CB        19.9040  -26.7880    7.4270 C.3   227  LYS227      0.0271
    107  CG        20.9520  -27.9230    7.3910 C.3   227  LYS227      0.0035
    108  CD        21.4470  -28.3000    8.7900 C.3   227  LYS227      0.0206
    109  CE        22.1630  -29.6490    8.7950 C.3   227  LYS227      0.1093
    110  NZ        22.6980  -29.9420   10.1440 N.3   227  LYS227     -0.1314
    111  N         15.3700  -22.5060    9.0980 N.3   229  GLY229     -0.1210
    112  CA        15.6480  -21.1440    9.4820 C.3   229  GLY229      0.1956
    113  C         15.4530  -21.1210   10.9860 C.2   229  GLY229      0.2612
    114  O         14.5570  -21.8130   11.5060 O.2   229  GLY229     -0.2717
    115  N         16.3180  -20.3660   11.7110 N.am  230  VAL230     -0.1965
    116  CA        16.1960  -20.2750   13.1690 C.3   230  VAL230      0.1727
    117  C         15.8810  -18.8080   13.4950 C.2   230  VAL230      0.2616
    118  O         16.5070  -17.8930   12.9650 O.2   230  VAL230     -0.2715
    119  CB        17.3870  -20.8380   13.9820 C.3   230  VAL230      0.0290
    120  CG1       17.0650  -20.8610   15.4760 C.3   230  VAL230      0.0023
    121  CG2       17.7750  -22.2470   13.5120 C.3   230  VAL230      0.0023
    122  N         14.8530  -18.6150   14.3170 N.am  231  TYR231     -0.1974
    123  CA        14.3130  -17.3110   14.6540 C.3   231  TYR231      0.1639
    124  C         14.3310  -17.0540   16.1210 C.2   231  TYR231      0.2290
    125  O         14.0220  -17.9560   16.9050 O.2   231  TYR231     -0.2864
    126  CB        12.8490  -17.2070   14.1330 C.3   231  TYR231      0.0560
    127  CG        12.7570  -17.4450   12.6380 C.ar  231  TYR231     -0.0198
    128  CD1       12.6660  -16.3770   11.7470 C.ar  231  TYR231     -0.0009
    129  CD2       12.8070  -18.7340   12.1100 C.ar  231  TYR231     -0.0009
    130  CE1       12.6480  -16.5830   10.3730 C.ar  231  TYR231      0.0417
    131  CE2       12.8200  -18.9480   10.7340 C.ar  231  TYR231      0.0417
    132  CZ        12.7010  -17.8710    9.8710 C.ar  231  TYR231      0.1957
    133  OH        12.6630  -18.0700    8.5120 O.3   231  TYR231     -0.2866
@<TRIPOS>BOND
     1    99    98    2
     2    30    29    1
     3    30   101    1
     4    11    12    1
     5    14    13    2
     6    98    97    1
     7   100    97    1
     8   100   101    1
     9    29    26    1
    10    34    33    2
    11    97    96    1
    12    38    37    2
    13    12    13    1
    14    12    15    1
    15    13    19   am
    16    96    94   am
    17    15    16    1
    18    26    25    1
    19    26    27    1
    20    37    36    1
    21    37    39   am
    22    33    32    1
    23    33    40   am
    24    35    36    1
    25    35    32    1
    26    31    27   am
    27    31    32    1
    28    25    21   am
    29    22    21    2
    30    41    40    1
    31    41    42    1
    32    27    28    2
    33    21    20    1
    34    94    93    1
    35    94    95    2
    36    19    20    1
    37    93    92    1
    38    20    23    1
    39    42    43    2
    40    16    18   ar
    41    16    17   ar
    42    90    89    1
    43    91    89    1
    44    89    88    2
    45    92    83   am
    46    23    24    1
    47    84    83    2
    48    83    82    1
    49    88    87    1
    50   105   104    2
    51   107   106    1
    52   107   108    1
    53   106   103    1
    54   102   103    1
    55    44    45    1
    56    86    87    1
    57    86    85    1
    58   104   103    1
    59    82    85    1
    60    82    81    1
    61   133   132    1
    62   108   109    1
    63   109   110    1
    64    80    79    2
    65    81    79   am
    66    47    46    2
    67   111   112    1
    68    79    78    1
    69    55    54    1
    70    56    54    1
    71    45    48    1
    72    45    46    1
    73    49    48    1
    74   112   113    1
    75    78    77    1
    76   132   130   ar
    77   132   131   ar
    78    54    51    1
    79   130   128   ar
    80    77    65   am
    81   131   129   ar
    82   113   114    2
    83   113   115   am
    84    65    66    2
    85    65    64    1
    86    10     8   ar
    87    10     9   ar
    88    51    50    1
    89    51    52    1
    90   115   116    1
    91   128   127   ar
    92    64    63    1
    93    64    67    1
    94   129   127   ar
    95    52    53    2
    96    52    57   am
    97     8     6   ar
    98     9     7   ar
    99    60    59    2
   100    63    59   am
   101    57    58    1
   102    59    58    1
   103   127   126    1
   104   118   117    2
   105    67    68    1
   106   116   117    1
   107   116   119    1
   108    58    61    1
   109     4     3    2
   110     6     7   ar
   111     6     5    1
   112    73    75   ar
   113    73    70   ar
   114   117   122   am
   115   121   119    1
   116    75    76   ar
   117     3     2    1
   118   119   120    1
   119   126   123    1
   120    68    70   ar
   121    68    69   ar
   122    70    72   ar
   123   122   123    1
   124   123   124    1
   125     5     2    1
   126    61    62    1
   127     2     1    1
   128    76    74   ar
   129    69    71   ar
   130    72    74   ar
   131    72    71   ar
   132   124   125    2
