@<TRIPOS>MOLECULE
tmp/4fu8A00.pdb
 128 128 0 0 0
SMALL
GASTEIGER

@<TRIPOS>ATOM
      1  N        -23.2290   -9.4740  -15.8000 N.3    46  HIS46      -0.1241
      2  CA       -24.3230   -9.9100  -14.9150 C.3    46  HIS46       0.1621
      3  C        -24.4680   -8.9930  -13.6790 C.2    46  HIS46       0.2264
      4  O        -25.5440   -8.9460  -13.0800 O.2    46  HIS46      -0.2867
      5  CB       -24.1850  -11.3980  -14.5190 C.3    46  HIS46       0.0745
      6  CG       -23.4180  -11.6960  -13.2680 C.ar   46  HIS46       0.0817
      7  ND1      -22.1330  -12.1930  -13.3180 N.ar   46  HIS46      -0.2268
      8  CD2      -23.8190  -11.6540  -11.9750 C.ar   46  HIS46       0.1154
      9  CE1      -21.7770  -12.3970  -12.0630 C.ar   46  HIS46       0.1986
     10  NE2      -22.7550  -12.0730  -11.2170 N.ar   46  HIS46      -0.2212
     11  N        -13.0900  -20.8470   -1.6830 N.3   192  ASP192     -0.1225
     12  CA       -13.6770  -20.4960   -2.9830 C.3   192  ASP192      0.1805
     13  C        -14.1480  -19.0410   -3.0100 C.2   192  ASP192      0.2598
     14  O        -14.1990  -18.3860   -1.9680 O.2   192  ASP192     -0.2718
     15  CB       -14.9010  -21.4180   -3.2480 C.3   192  ASP192      0.1424
     16  CG       -15.3960  -21.5490   -4.6820 C.2   192  ASP192      0.3668
     17  OD1      -14.7970  -20.9210   -5.5840 O.co2 192  ASP192     -0.2456
     18  OD2      -16.3850  -22.2810   -4.9010 O.co2 192  ASP192     -0.2456
     19  N        -14.5150  -18.5470   -4.2040 N.am  193  SER193     -0.1938
     20  CA       -15.1590  -17.2500   -4.3820 C.3   193  SER193      0.2055
     21  C        -16.6590  -17.4910   -4.1750 C.2   193  SER193      0.2643
     22  O        -17.0910  -18.6480   -4.1920 O.2   193  SER193     -0.2714
     23  CB       -14.8430  -16.6490   -5.7510 C.3   193  SER193      0.2130
     24  OG       -15.1180  -17.5440   -6.8150 O.3   193  SER193     -0.2179
     25  N        -17.4430  -16.4360   -3.9210 N.am  194  CYS194     -0.1953
     26  CA       -18.8740  -16.5820   -3.6460 C.3   194  CYS194      0.1843
     27  C        -19.6510  -15.3530   -4.1420 C.2   194  CYS194      0.2625
     28  O        -19.0920  -14.5190   -4.8570 O.2   194  CYS194     -0.2714
     29  CB       -19.0860  -16.8150   -2.1490 C.3   194  CYS194      0.0997
     30  SG       -20.6970  -17.5260   -1.7130 S.3   194  CYS194     -0.0797
     31  N        -20.9440  -15.2560   -3.7670 N.am  195  GLN195     -0.1963
     32  CA       -21.8370  -14.1470   -4.1030 C.3   195  GLN195      0.1733
     33  C        -21.2540  -12.8400   -3.5500 C.2   195  GLN195      0.2616
     34  O        -20.9890  -12.7380   -2.3480 O.2   195  GLN195     -0.2715
     35  CB       -23.2360  -14.4200   -3.5310 C.3   195  GLN195      0.0408
     36  CG       -24.3650  -13.6880   -4.2500 C.3   195  GLN195      0.0908
     37  CD       -25.7030  -13.8770   -3.5730 C.2   195  GLN195      0.2608
     38  OE1      -26.4190  -12.9120   -3.2910 O.2   195  GLN195     -0.2717
     39  NE2      -26.0840  -15.1210   -3.3040 N.am  195  GLN195     -0.0878
     40  N        -20.9980  -11.8940   -4.4470 N.am  196  GLY196     -0.1955
     41  CA       -20.3950  -10.6080   -4.1140 C.3   196  GLY196      0.1869
     42  C        -18.9780  -10.4660   -4.6360 C.2   196  GLY196      0.2309
     43  O        -18.4770   -9.3460   -4.7630 O.2   196  GLY196     -0.2863
     44  N        -18.1780  -11.6300   -7.6230 N.3   198  SER198     -0.1217
     45  CA       -18.4280  -11.5360   -9.0650 C.3   198  SER198      0.1889
     46  C        -17.7900  -10.2930   -9.6740 C.2   198  SER198      0.2288
     47  O        -17.7390   -9.2500   -9.0280 O.2   198  SER198     -0.2866
     48  CB       -19.9250  -11.5330   -9.3420 C.3   198  SER198      0.2089
     49  OG       -20.4860  -12.8200   -9.1400 O.3   198  SER198     -0.2183
     50  N        -14.4320  -13.4130  -12.0080 N.3   216  VAL216     -0.1231
     51  CA       -15.4230  -14.1880  -11.2430 C.3   216  VAL216      0.1692
     52  C        -16.7850  -14.0600  -11.9400 C.2   216  VAL216      0.2593
     53  O        -17.2860  -12.9460  -12.1160 O.2   216  VAL216     -0.2718
     54  CB       -15.4950  -13.7940   -9.7400 C.3   216  VAL216      0.0266
     55  CG1      -16.3680  -14.7740   -8.9540 C.3   216  VAL216      0.0020
     56  CG2      -14.1060  -13.6930   -9.1120 C.3   216  VAL216      0.0020
     57  N        -17.3410  -15.2000  -12.3880 N.am  217  SER217     -0.1938
     58  CA       -18.5960  -15.2310  -13.1310 C.3   217  SER217      0.2055
     59  C        -19.7010  -16.0100  -12.3980 C.2   217  SER217      0.2643
     60  O        -20.6580  -15.3880  -11.9400 O.2   217  SER217     -0.2714
     61  CB       -18.3690  -15.8110  -14.5260 C.3   217  SER217      0.2130
     62  OG       -19.5630  -15.8470  -15.2900 O.3   217  SER217     -0.2179
     63  N        -19.5970  -17.3560  -12.3150 N.am  218  TRP218     -0.1959
     64  CA       -20.6420  -18.1820  -11.7020 C.3   218  TRP218      0.1771
     65  C        -20.0990  -19.4590  -11.0400 C.2   218  TRP218      0.2620
     66  O        -18.8980  -19.7260  -11.0840 O.2   218  TRP218     -0.2715
     67  CB       -21.7120  -18.5520  -12.7540 C.3   218  TRP218      0.0590
     68  CG       -21.2060  -19.3520  -13.9220 C.ar  218  TRP218      0.0006
     69  CD1      -20.6250  -18.8660  -15.0570 C.ar  218  TRP218      0.0946
     70  CD2      -21.3150  -20.7710  -14.1030 C.ar  218  TRP218      0.0152
     71  NE1      -20.3360  -19.8960  -15.9200 N.ar  218  TRP218     -0.2442
     72  CE2      -20.7430  -21.0790  -15.3580 C.ar  218  TRP218      0.0810
     73  CE3      -21.8210  -21.8200  -13.3150 C.ar  218  TRP218      0.0012
     74  CZ2      -20.6710  -22.3900  -15.8480 C.ar  218  TRP218      0.0191
     75  CZ3      -21.7380  -23.1190  -13.7950 C.ar  218  TRP218      0.0001
     76  CH2      -21.1760  -23.3930  -15.0500 C.ar  218  TRP218      0.0015
     77  N        -21.0100  -20.2180  -10.4290 N.am  219  GLY219     -0.1940
     78  CA       -20.7290  -21.4810   -9.7570 C.3   219  GLY219      0.2014
     79  C        -21.9260  -22.0120   -8.9940 C.2   219  GLY219      0.2639
     80  O        -22.7400  -21.2250   -8.5030 O.2   219  GLY219     -0.2714
     81  N        -22.0530  -23.3520   -8.8980 N.am  220  ARG220     -0.1963
     82  CA       -23.1430  -23.9800   -8.1480 C.3   220  ARG220      0.1729
     83  C        -22.7830  -23.9190   -6.6670 C.2   220  ARG220      0.2617
     84  O        -21.8720  -24.6210   -6.2160 O.2   220  ARG220     -0.2715
     85  CB       -23.4310  -25.4220   -8.6330 C.3   220  ARG220      0.0348
     86  CG       -24.4260  -26.2300   -7.7740 C.3   220  ARG220      0.0492
     87  CD       -25.9000  -25.8460   -7.9260 C.3   220  ARG220      0.2205
     88  NE       -26.2250  -24.5520   -7.3160 N.pl3 220  ARG220     -0.0865
     89  CZ       -26.5110  -24.3650   -6.0290 C.cat 220  ARG220      0.5346
     90  NH1      -26.5170  -25.3910   -5.1860 N.pl3 220  ARG220      0.1354
     91  NH2      -26.7870  -23.1500   -5.5750 N.pl3 220  ARG220      0.1354
     92  N        -23.4620  -23.0250   -5.9490 N.am  221  GLY221     -0.1940
     93  CA       -23.2190  -22.7680   -4.5360 C.3   221  GLY221      0.2014
     94  C        -21.8490  -22.1560   -4.3210 C.2   221  GLY221      0.2639
     95  O        -21.2910  -21.5460   -5.2390 O.2   221  GLY221     -0.2714
     96  N        -21.2890  -22.3260   -3.1150 N.am  222  CYS222     -0.1967
     97  CA       -19.9650  -21.8040   -2.7790 C.3   222  CYS222      0.1712
     98  C        -19.1850  -22.8560   -2.0000 C.2   222  CYS222      0.2296
     99  O        -19.6760  -23.3570   -0.9860 O.2   222  CYS222     -0.2864
    100  CB       -20.0690  -20.4910   -2.0080 C.3   222  CYS222      0.0983
    101  SG       -20.9070  -19.1590   -2.9090 S.3   222  CYS222     -0.0798
    102  N        -18.0060  -28.7640   -7.5350 N.3   227  LYS227     -0.1231
    103  CA       -18.6510  -27.5570   -8.0540 C.3   227  LYS227      0.1678
    104  C        -17.6440  -26.3890   -8.0070 C.2   227  LYS227      0.2434
    105  O        -17.7050  -25.5470   -7.1020 O.2   227  LYS227     -0.2733
    106  CB       -19.9580  -27.2380   -7.2880 C.3   227  LYS227      0.0284
    107  CG       -20.9970  -28.3690   -7.2670 C.3   227  LYS227      0.0035
    108  CD       -21.5400  -28.7260   -8.6570 C.3   227  LYS227      0.0206
    109  CE       -22.3070  -30.0240   -8.6560 C.3   227  LYS227      0.1093
    110  NZ       -22.7460  -30.3970  -10.0230 N.3   227  LYS227     -0.1314
    111  N        -16.6880  -26.3430   -8.9690 N.am  228  PRO228     -0.2718
    112  CA       -15.6770  -25.2720   -8.9520 C.3   228  PRO228      0.1535
    113  C        -16.2280  -23.8910   -9.2940 C.2   228  PRO228      0.2599
    114  O        -17.3610  -23.7580   -9.7590 O.2   228  PRO228     -0.2715
    115  CB       -14.6780  -25.7110  -10.0390 C.3   228  PRO228      0.0310
    116  CG       -14.9880  -27.1350  -10.3260 C.3   228  PRO228      0.0237
    117  CD       -16.4480  -27.2690  -10.0930 C.3   228  PRO228      0.0939
    118  N        -15.4060  -22.8750   -9.0590 N.am  229  GLY229     -0.1941
    119  CA       -15.7190  -21.5070   -9.4350 C.3   229  GLY229      0.2014
    120  C        -15.4810  -21.3780  -10.9240 C.2   229  GLY229      0.2638
    121  O        -14.4820  -21.8970  -11.4340 O.2   229  GLY229     -0.2714
    122  N        -16.4180  -20.7520  -11.6460 N.am  230  VAL230     -0.1977
    123  CA       -16.2800  -20.5890  -13.0940 C.3   230  VAL230      0.1596
    124  C        -15.9620  -19.1300  -13.3750 C.2   230  VAL230      0.2287
    125  O        -16.6330  -18.2300  -12.8700 O.2   230  VAL230     -0.2864
    126  CB       -17.4910  -21.1020  -13.9090 C.3   230  VAL230      0.0276
    127  CG1      -17.1570  -21.1590  -15.3950 C.3   230  VAL230      0.0022
    128  CG2      -17.9340  -22.4760  -13.4240 C.3   230  VAL230      0.0022
@<TRIPOS>BOND
     1    71    72   ar
     2    71    69   ar
     3    74    72   ar
     4    74    76   ar
     5     1     2    1
     6   127   126    1
     7    72    70   ar
     8    62    61    1
     9    69    68   ar
    10    76    75   ar
    11     2     5    1
    12     2     3    1
    13    61    58    1
    14     5     6    1
    15    70    68   ar
    16    70    73   ar
    17    68    67    1
    18   126   128    1
    19   126   123    1
    20    75    73   ar
    21     3     4    2
    22   124   123    1
    23   124   125    2
    24     7     6   ar
    25     7     9   ar
    26     6     8   ar
    27    58    59    1
    28    58    57    1
    29   123   122    1
    30    67    64    1
    31    59    63   am
    32    59    60    2
    33    57    52   am
    34    63    64    1
    35    53    52    2
    36     9    10   ar
    37    50    51    1
    38     8    10   ar
    39    52    51    1
    40    64    65    1
    41   122   120   am
    42   121   120    2
    43    51    54    1
    44    66    65    2
    45    65    77   am
    46   120   119    1
    47    77    78    1
    48   116   117    1
    49   116   115    1
    50   117   111    1
    51   115   112    1
    52   110   109    1
    53   114   113    2
    54    78    79    1
    55    54    56    1
    56    54    55    1
    57    46    45    1
    58    46    47    2
    59   119   118    1
    60    48    49    1
    61    48    45    1
    62   113   118   am
    63   113   112    1
    64    45    44    1
    65    79    81   am
    66    79    80    2
    67   111   112    1
    68   111   104   am
    69    81    82    1
    70   108   109    1
    71   108   107    1
    72    85    82    1
    73    85    86    1
    74    82    83    1
    75   103   104    1
    76   103   102    1
    77   103   106    1
    78   104   105    2
    79    87    86    1
    80    87    88    1
    81    88    89    2
    82   106   107    1
    83    24    23    1
    84    83    84    2
    85    83    92   am
    86    89    91    1
    87    89    90    1
    88    92    93    1
    89    23    20    1
    90    17    16   ar
    91    95    94    2
    92    18    16   ar
    93    28    27    2
    94    43    42    2
    95    16    15    1
    96    42    41    1
    97    93    94    1
    98    40    41    1
    99    40    33   am
   100    20    19    1
   101    20    21    1
   102    94    96   am
   103    36    37    1
   104    36    35    1
   105    19    13   am
   106    22    21    2
   107    21    25   am
   108    27    31   am
   109    27    26    1
   110    32    31    1
   111    32    33    1
   112    32    35    1
   113    25    26    1
   114    26    29    1
   115    37    39   am
   116    37    38    2
   117    33    34    2
   118    15    12    1
   119    96    97    1
   120    13    12    1
   121    13    14    2
   122    12    11    1
   123   101   100    1
   124   101    30    1
   125    97   100    1
   126    97    98    1
   127    29    30    1
   128    98    99    2
