@<TRIPOS>MOLECULE
tmp/4fuaA00.pdb
 111 109 0 0 0
SMALL
GASTEIGER

@<TRIPOS>ATOM
      1  N         74.8750   42.3990   83.9530 N.3    26  THR26      -0.1203
      2  CA        74.1350   41.9370   82.7810 C.3    26  THR26       0.1994
      3  C         74.4910   42.8110   81.5750 C.2    26  THR26       0.2618
      4  O         73.8970   42.6820   80.4980 O.2    26  THR26      -0.2717
      5  CB        72.5940   41.9690   83.0320 C.3    26  THR26       0.1784
      6  OG1       72.1920   43.2690   83.5040 O.3    26  THR26      -0.2211
      7  CG2       72.2030   40.9150   84.0570 C.3    26  THR26       0.0376
      8  N         75.4740   43.6870   81.7720 N.am   27  ALA27      -0.1965
      9  CA        75.9310   44.5920   80.7340 C.3    27  ALA27       0.1728
     10  C         76.7640   43.8760   79.6740 C.2    27  ALA27       0.2617
     11  O         77.2890   42.7890   79.8980 O.2    27  ALA27      -0.2715
     12  CB        76.7300   45.7170   81.3580 C.3    27  ALA27       0.0334
     13  N         76.8690   44.4870   78.5060 N.am   28  GLY28      -0.1940
     14  CA        77.6610   43.8960   77.4530 C.3    28  GLY28       0.2014
     15  C         76.9780   42.9010   76.5370 C.2    28  GLY28       0.2638
     16  O         75.9480   42.3100   76.8570 O.2    28  GLY28      -0.2714
     17  N         77.5650   42.7630   75.3570 N.am   29  ASN29      -0.1972
     18  CA        77.0930   41.8540   74.3390 C.3    29  ASN29       0.1688
     19  C         78.2170   41.5910   73.3500 C.2    29  ASN29       0.2292
     20  O         79.1440   42.3840   73.1990 O.2    29  ASN29      -0.2864
     21  CB        75.8000   42.3590   73.6560 C.3    29  ASN29       0.1181
     22  CG        75.6910   43.8820   73.6040 C.2    29  ASN29       0.2629
     23  OD1       76.3020   44.5200   72.7650 O.2    29  ASN29      -0.2716
     24  ND2       74.8740   44.4570   74.4780 N.am   29  ASN29      -0.0877
     25  N         74.9920   37.2770   71.4390 N.3    41  THR41      -0.1204
     26  CA        74.5440   36.8700   72.7520 C.3    41  THR41       0.1979
     27  C         73.1110   37.3090   72.9500 C.2    41  THR41       0.2460
     28  O         72.6180   38.1890   72.2520 O.2    41  THR41      -0.2732
     29  CB        75.4280   37.4860   73.8440 C.3    41  THR41       0.1783
     30  OG1       75.6000   38.8810   73.5940 O.3    41  THR41      -0.2211
     31  CG2       76.7900   36.8430   73.8450 C.3    41  THR41       0.0376
     32  N         72.3780   36.6020   73.8110 N.am   42  PRO42      -0.2717
     33  CA        70.9900   36.9670   74.0580 C.3    42  PRO42       0.1536
     34  C         70.8820   38.0150   75.1470 C.2    42  PRO42       0.2599
     35  O         71.7380   38.1070   76.0530 O.2    42  PRO42      -0.2715
     36  CB        70.3750   35.6440   74.4840 C.3    42  PRO42       0.0310
     37  CG        71.4720   35.0130   75.2370 C.3    42  PRO42       0.0237
     38  CD        72.6600   35.2570   74.3430 C.3    42  PRO42       0.0939
     39  N         69.7900   38.7710   75.0630 N.am   43  THR43      -0.1937
     40  CA        69.4970   39.8470   75.9940 C.3    43  THR43       0.2028
     41  C         69.2160   39.4090   77.4230 C.2    43  THR43       0.2642
     42  O         68.3470   38.5670   77.6750 O.2    43  THR43      -0.2714
     43  CB        68.3310   40.7380   75.4940 C.3    43  THR43       0.1808
     44  OG1       68.0740   41.7710   76.4470 O.3    43  THR43      -0.2208
     45  CG2       67.0530   39.9260   75.2900 C.3    43  THR43       0.0379
     46  N         70.0130   39.9550   78.3380 N.am   44  GLY44      -0.1954
     47  CA        69.8490   39.6940   79.7530 C.3    44  GLY44       0.1869
     48  C         70.0670   38.3190   80.3550 C.2    44  GLY44       0.2309
     49  O         69.4120   37.9910   81.3440 O.2    44  GLY44      -0.2863
     50  N         70.3540   40.2630   71.7140 N.3    71  SER71      -0.1202
     51  CA        70.7610   41.4140   72.5120 C.3    71  SER71       0.2020
     52  C         70.0490   42.6640   72.0230 C.2    71  SER71       0.2619
     53  O         69.9370   42.8750   70.8220 O.2    71  SER71      -0.2717
     54  CB        72.2740   41.6200   72.3970 C.3    71  SER71       0.2103
     55  OG        72.6480   42.9020   72.8450 O.3    71  SER71      -0.2182
     56  N         69.5880   43.4830   72.9610 N.am   72  SER72      -0.1937
     57  CA        68.8960   44.7300   72.6550 C.3    72  SER72       0.2055
     58  C         69.7340   45.6200   71.7340 C.2    72  SER72       0.2642
     59  O         69.2060   46.4290   70.9660 O.2    72  SER72      -0.2714
     60  CB        68.5650   45.4880   73.9530 C.3    72  SER72       0.2130
     61  OG        69.7270   45.9440   74.6350 O.3    72  SER72      -0.2179
     62  N         71.0420   45.4110   71.7640 N.am   73  GLU73      -0.1976
     63  CA        71.9410   46.1990   70.9520 C.3    73  GLU73       0.1602
     64  C         72.2320   45.5930   69.5970 C.2    73  GLU73       0.2287
     65  O         73.0460   46.1280   68.8630 O.2    73  GLU73      -0.2864
     66  CB        73.2520   46.4330   71.7040 C.3    73  GLU73       0.0415
     67  CG        73.0700   47.0120   73.0870 C.3    73  GLU73       0.1163
     68  CD        72.5610   48.4510   73.0940 C.2    73  GLU73       0.3649
     69  OE1       72.1970   49.0070   72.0250 O.co2  73  GLU73      -0.2457
     70  OE2       72.5090   49.0340   74.1960 O.co2  73  GLU73      -0.2457
     71  N         81.1310   44.5470   73.0860 N.3    92  HIS92      -0.1241
     72  CA        80.5660   45.7020   73.7550 C.3    92  HIS92       0.1621
     73  C         80.5350   45.4650   75.2480 C.2    92  HIS92       0.2264
     74  O         80.0560   44.4380   75.7020 O.2    92  HIS92      -0.2867
     75  CB        79.1430   45.9820   73.3050 C.3    92  HIS92       0.0745
     76  CG        78.4540   47.0100   74.1490 C.ar   92  HIS92       0.0817
     77  ND1       78.9180   48.2970   74.3320 N.ar   92  HIS92      -0.2268
     78  CD2       77.3340   46.9130   74.9090 C.ar   92  HIS92       0.1154
     79  CE1       78.0870   48.9190   75.1750 C.ar   92  HIS92       0.1986
     80  NE2       77.1080   48.1160   75.5520 N.ar   92  HIS92      -0.2212
     81  N         80.5370   47.6340   79.4240 N.3    94  HIS94      -0.1241
     82  CA        80.4410   48.8750   80.1890 C.3    94  HIS94       0.1621
     83  C         81.6630   48.9760   81.1260 C.2    94  HIS94       0.2264
     84  O         81.5290   49.1810   82.3400 O.2    94  HIS94      -0.2867
     85  CB        79.1480   48.9310   81.0000 C.3    94  HIS94       0.0745
     86  CG        77.9050   49.0110   80.1740 C.ar   94  HIS94       0.0817
     87  ND1       76.6580   49.2680   80.6920 N.ar   94  HIS94      -0.2268
     88  CD2       77.7140   48.8320   78.8440 C.ar   94  HIS94       0.1154
     89  CE1       75.7620   49.2300   79.6850 C.ar   94  HIS94       0.1986
     90  NE2       76.3500   48.9700   78.5400 N.ar   94  HIS94      -0.2212
     91  N         69.5970   53.3350   74.5420 N.3   131  PHE131     -0.1241
     92  CA        70.1760   52.0270   74.2390 C.3   131  PHE131      0.1605
     93  C         69.1920   51.2420   73.4070 C.2   131  PHE131      0.2264
     94  O         67.9960   51.4690   73.5010 O.2   131  PHE131     -0.2867
     95  CB        70.5020   51.2450   75.5210 C.3   131  PHE131      0.0534
     96  CG        69.2960   50.7470   76.2430 C.ar  131  PHE131     -0.0203
     97  CD1       68.7060   49.5450   75.8840 C.ar  131  PHE131     -0.0042
     98  CD2       68.7150   51.5080   77.2510 C.ar  131  PHE131     -0.0042
     99  CE1       67.5480   49.1100   76.5160 C.ar  131  PHE131     -0.0003
    100  CE2       67.5580   51.0870   77.8920 C.ar  131  PHE131     -0.0003
    101  CZ        66.9700   49.8850   77.5250 C.ar  131  PHE131     -0.0000
    102  N         77.3990   55.6850   78.2190 N.3   155  HIS155     -0.1241
    103  CA        77.0590   54.2720   78.0510 C.3   155  HIS155      0.1621
    104  C         78.1880   53.2770   78.2570 C.2   155  HIS155      0.2264
    105  O         78.1600   52.5120   79.2120 O.2   155  HIS155     -0.2867
    106  CB        76.4020   54.0610   76.6870 C.3   155  HIS155      0.0745
    107  CG        75.8270   52.6940   76.4920 C.ar  155  HIS155      0.0817
    108  ND1       74.7010   52.4310   75.7440 N.ar  155  HIS155     -0.2268
    109  CD2       76.2580   51.4870   76.9370 C.ar  155  HIS155      0.1154
    110  CE1       74.4970   51.1100   75.7600 C.ar  155  HIS155      0.1986
    111  NE2       75.4180   50.4910   76.4740 N.ar  155  HIS155     -0.2212
@<TRIPOS>BOND
     1    65    64    2
     2    64    63    1
     3    53    52    2
     4    63    66    1
     5    63    62    1
     6    59    58    2
     7    25    26    1
     8    66    67    1
     9    50    51    1
    10    58    62   am
    11    58    57    1
    12    52    51    1
    13    52    56   am
    14    69    68   ar
    15    28    27    2
    16    54    51    1
    17    54    55    1
    18    57    56    1
    19    57    60    1
    20    26    27    1
    21    26    29    1
    22    23    22    2
    23    27    32   am
    24    71    72    1
    25    67    68    1
    26    68    70   ar
    27    20    19    2
    28    75    72    1
    29    75    76    1
    30    19    18    1
    31    93    94    2
    32    93    92    1
    33    30    29    1
    34    22    21    1
    35    22    24   am
    36    21    18    1
    37    72    73    1
    38    32    33    1
    39    32    38    1
    40    29    31    1
    41    60    61    1
    42    33    36    1
    43    33    34    1
    44    76    77   ar
    45    76    78   ar
    46    92    91    1
    47    92    95    1
    48    77    79   ar
    49    18    17    1
    50    38    37    1
    51    36    37    1
    52    78    80   ar
    53    39    34   am
    54    39    40    1
    55    34    35    2
    56    79    80   ar
    57    73    74    2
    58    45    43    1
    59    17    15   am
    60    43    40    1
    61    43    44    1
    62    95    96    1
    63   108   110   ar
    64   108   107   ar
    65   110   111   ar
    66    97    96   ar
    67    97    99   ar
    68    40    41    1
    69    96    98   ar
    70   111   109   ar
    71   107   106    1
    72   107   109   ar
    73    99   101   ar
    74    15    16    2
    75    15    14    1
    76   106   103    1
    77    98   100   ar
    78    41    42    2
    79    41    46   am
    80    14    13    1
    81   101   100   ar
    82   103   102    1
    83   103   104    1
    84   104   105    2
    85    46    47    1
    86    13    10   am
    87    90    88   ar
    88    90    89   ar
    89    88    86   ar
    90    81    82    1
    91    10    11    2
    92    10     9    1
    93    89    87   ar
    94    47    48    1
    95    86    87   ar
    96    86    85    1
    97    82    85    1
    98    82    83    1
    99    48    49    2
   100     4     3    2
   101     9    12    1
   102     9     8    1
   103    83    84    2
   104     3     8   am
   105     3     2    1
   106     2     5    1
   107     2     1    1
   108     5     6    1
   109     5     7    1
