@<TRIPOS>MOLECULE
tmp/4fueA00.pdb
 178 178 0 0 0
SMALL
GASTEIGER

@<TRIPOS>ATOM
      1  N         -4.5630   -9.5770   15.9320 N.3    46  HIS46      -0.1241
      2  CA        -3.4440   -9.9780   15.0580 C.3    46  HIS46       0.1621
      3  C         -3.2790   -9.0540   13.8150 C.2    46  HIS46       0.2264
      4  O         -2.1910   -9.0020   13.2470 O.2    46  HIS46      -0.2867
      5  CB        -3.5120  -11.4680   14.6660 C.3    46  HIS46       0.0745
      6  CG        -4.3190  -11.8180   13.4480 C.ar   46  HIS46       0.0817
      7  ND1       -5.4400  -12.6200   13.5430 N.ar   46  HIS46      -0.2268
      8  CD2       -4.0800  -11.5570   12.1390 C.ar   46  HIS46       0.1154
      9  CE1       -5.8670  -12.7890   12.3030 C.ar   46  HIS46       0.1986
     10  NE2       -5.0760  -12.1750   11.4230 N.ar   46  HIS46      -0.2212
     11  N         -1.2770   -5.7390   15.8320 N.3    49  ILE49      -0.1231
     12  CA        -0.2300   -5.9790   16.8360 C.3    49  ILE49       0.1692
     13  C          1.1960   -5.5670   16.3650 C.2    49  ILE49       0.2592
     14  O          1.9670   -5.1060   17.1980 O.2    49  ILE49      -0.2718
     15  CB        -0.2840   -7.4560   17.3640 C.3    49  ILE49       0.0266
     16  CG1        0.5140   -7.6450   18.6900 C.3    49  ILE49       0.0019
     17  CG2        0.1640   -8.4700   16.2870 C.3    49  ILE49       0.0020
     18  CD1        0.0070   -6.8480   19.9550 C.3    49  ILE49       0.0001
     19  N          1.5310   -5.7050   15.0700 N.am   50  ASP50      -0.1974
     20  CA         2.8480   -5.3320   14.5300 C.3    50  ASP50       0.1709
     21  C          2.9510   -3.8270   14.2070 C.2    50  ASP50       0.2293
     22  O          4.0600   -3.2960   14.1030 O.2    50  ASP50      -0.2864
     23  CB         3.1760   -6.1510   13.2600 C.3    50  ASP50       0.1436
     24  CG         3.3330   -7.6550   13.4690 C.2    50  ASP50       0.3671
     25  OD1        3.4720   -8.0910   14.6350 O.co2  50  ASP50      -0.2456
     26  OD2        3.2780   -8.3890   12.4820 O.co2  50  ASP50      -0.2456
     27  N         -3.7150  -11.1570   24.2220 N.3    87  TYR87      -0.1241
     28  CA        -3.5550  -11.6710   22.8610 C.3    87  TYR87       0.1605
     29  C         -2.1990  -12.3970   22.7610 C.2    87  TYR87       0.2264
     30  O         -1.1850  -11.8940   23.2900 O.2    87  TYR87      -0.2867
     31  CB        -3.6320  -10.5480   21.7830 C.3    87  TYR87       0.0534
     32  CG        -3.1030  -11.0170   20.4360 C.ar   87  TYR87      -0.0201
     33  CD1       -1.7760  -10.7990   20.0720 C.ar   87  TYR87      -0.0009
     34  CD2       -3.8800  -11.8180   19.6020 C.ar   87  TYR87      -0.0009
     35  CE1       -1.2430  -11.3580   18.9150 C.ar   87  TYR87       0.0417
     36  CE2       -3.3660  -12.3520   18.4250 C.ar   87  TYR87       0.0417
     37  CZ        -2.0440  -12.1340   18.0940 C.ar   87  TYR87       0.1957
     38  OH        -1.5450  -12.6610   16.9340 O.3    87  TYR87      -0.2866
     39  N         -4.3740  -18.4750   17.3190 N.3    94  HIS94      -0.1241
     40  CA        -4.3030  -17.1320   17.8780 C.3    94  HIS94       0.1621
     41  C         -5.2240  -17.1320   19.1020 C.2    94  HIS94       0.2264
     42  O         -6.2740  -17.7780   19.0860 O.2    94  HIS94      -0.2867
     43  CB        -4.6870  -16.0530   16.8580 C.3    94  HIS94       0.0745
     44  CG        -3.6900  -15.8970   15.7600 C.ar   94  HIS94       0.0817
     45  ND1       -2.9180  -14.7640   15.6510 N.ar   94  HIS94      -0.2268
     46  CD2       -3.3360  -16.7640   14.7810 C.ar   94  HIS94       0.1154
     47  CE1       -2.1440  -14.9530   14.5950 C.ar   94  HIS94       0.1986
     48  NE2       -2.3640  -16.1440   14.0370 N.ar   94  HIS94      -0.2212
     49  N        -14.3680  -20.9110    1.8650 N.3   192  ASP192     -0.1225
     50  CA       -13.8240  -20.5780    3.1800 C.3   192  ASP192      0.1805
     51  C        -13.4110  -19.1140    3.2570 C.2   192  ASP192      0.2598
     52  O        -13.3690  -18.4240    2.2320 O.2   192  ASP192     -0.2718
     53  CB       -12.5420  -21.4510    3.3910 C.3   192  ASP192      0.1424
     54  CG       -12.0470  -21.6630    4.8130 C.2   192  ASP192      0.3668
     55  OD1      -12.7070  -21.1570    5.7690 O.co2 192  ASP192     -0.2456
     56  OD2      -11.0040  -22.3360    4.9800 O.co2 192  ASP192     -0.2456
     57  N        -13.0210  -18.6500    4.4610 N.am  193  SER193     -0.1938
     58  CA       -12.3530  -17.3600    4.5660 C.3   193  SER193      0.2055
     59  C        -10.8740  -17.6430    4.2710 C.2   193  SER193      0.2643
     60  O        -10.4630  -18.8160    4.1840 O.2   193  SER193     -0.2714
     61  CB       -12.5700  -16.6840    5.9270 C.3   193  SER193      0.2130
     62  OG       -12.3750  -17.5110    7.0660 O.3   193  SER193     -0.2179
     63  N        -10.0810  -16.5890    4.0600 N.am  194  CYS194     -0.1953
     64  CA        -8.6630  -16.7210    3.7730 C.3   194  CYS194      0.1843
     65  C         -7.9360  -15.4520    4.2390 C.2   194  CYS194      0.2625
     66  O         -8.5630  -14.5460    4.7940 O.2   194  CYS194     -0.2714
     67  CB        -8.4550  -16.9890    2.2770 C.3   194  CYS194      0.0997
     68  SG        -6.8250  -17.6460    1.8580 S.3   194  CYS194     -0.0797
     69  N         -6.6220  -15.3980    4.0530 N.am  195  GLN195     -0.1963
     70  CA        -5.8000  -14.2340    4.3880 C.3   195  GLN195      0.1733
     71  C         -6.4010  -12.9410    3.7890 C.2   195  GLN195      0.2616
     72  O         -6.7370  -12.9030    2.5930 O.2   195  GLN195     -0.2715
     73  CB        -4.3840  -14.4610    3.8430 C.3   195  GLN195      0.0408
     74  CG        -3.3960  -13.3680    4.1860 C.3   195  GLN195      0.0908
     75  CD        -1.9940  -13.8340    3.8740 C.2   195  GLN195      0.2608
     76  OE1       -1.6690  -15.0160    3.9450 O.2   195  GLN195     -0.2717
     77  NE2       -1.1230  -12.9150    3.5710 N.am  195  GLN195     -0.0878
     78  N         -6.5540  -11.9180    4.6320 N.am  196  GLY196     -0.1955
     79  CA        -7.1610  -10.6500    4.2250 C.3   196  GLY196      0.1869
     80  C         -8.5920  -10.5450    4.7130 C.2   196  GLY196      0.2309
     81  O         -9.1380   -9.4470    4.8150 O.2   196  GLY196     -0.2863
     82  N         -9.3550  -11.6950    7.7360 N.3   198  SER198     -0.1217
     83  CA        -9.1680  -11.6160    9.1990 C.3   198  SER198      0.1889
     84  C         -9.7800  -10.3670    9.7930 C.2   198  SER198      0.2288
     85  O         -9.8410   -9.3430    9.1230 O.2   198  SER198     -0.2866
     86  CB        -7.6910  -11.6730    9.5640 C.3   198  SER198      0.2089
     87  OG        -7.1130  -12.9280    9.2370 O.3   198  SER198     -0.2183
     88  N        -13.2410  -13.5100   12.1380 N.3   216  VAL216     -0.1231
     89  CA       -12.2650  -14.3320   11.3780 C.3   216  VAL216      0.1692
     90  C        -10.9130  -14.2710   12.0910 C.2   216  VAL216      0.2593
     91  O        -10.3650  -13.1720   12.2540 O.2   216  VAL216     -0.2718
     92  CB       -12.1070  -13.9190    9.8820 C.3   216  VAL216      0.0266
     93  CG1      -11.1460  -14.8630    9.1610 C.3   216  VAL216      0.0020
     94  CG2      -13.4480  -13.8480    9.1530 C.3   216  VAL216      0.0020
     95  N        -10.3800  -15.4350   12.5170 N.am  217  SER217     -0.1938
     96  CA        -9.1310  -15.4190   13.2660 C.3   217  SER217      0.2055
     97  C         -8.0070  -16.2120   12.5900 C.2   217  SER217      0.2643
     98  O         -6.9680  -15.6150   12.2960 O.2   217  SER217     -0.2714
     99  CB        -9.3620  -15.9270   14.6920 C.3   217  SER217      0.2130
    100  OG        -8.1570  -15.9310   15.4440 O.3   217  SER217     -0.2179
    101  N         -8.1570  -17.5420   12.3950 N.am  218  TRP218     -0.1959
    102  CA        -7.0580  -18.3490   11.8250 C.3   218  TRP218      0.1771
    103  C         -7.5380  -19.6250   11.1330 C.2   218  TRP218      0.2620
    104  O         -8.7230  -19.9490   11.1640 O.2   218  TRP218     -0.2715
    105  CB        -5.9950  -18.7000   12.8990 C.3   218  TRP218      0.0590
    106  CG        -6.4840  -19.5120   14.0730 C.ar  218  TRP218      0.0006
    107  CD1       -7.0050  -19.0310   15.2410 C.ar  218  TRP218      0.0946
    108  CD2       -6.3820  -20.9410   14.2360 C.ar  218  TRP218      0.0152
    109  NE1       -7.2730  -20.0720   16.1050 N.ar  218  TRP218     -0.2442
    110  CE2       -6.8790  -21.2530   15.5230 C.ar  218  TRP218      0.0810
    111  CE3       -5.9460  -21.9920   13.4050 C.ar  218  TRP218      0.0012
    112  CZ2       -6.9600  -22.5710   15.9990 C.ar  218  TRP218      0.0191
    113  CZ3       -6.0120  -23.3000   13.8820 C.ar  218  TRP218      0.0001
    114  CH2       -6.5020  -23.5790   15.1660 C.ar  218  TRP218      0.0015
    115  N         -6.6000  -20.3140   10.4890 N.am  219  GLY219     -0.1940
    116  CA        -6.8730  -21.5520    9.7770 C.3   219  GLY219      0.2014
    117  C         -5.6510  -22.0830    9.0640 C.2   219  GLY219      0.2639
    118  O         -4.7680  -21.3050    8.6890 O.2   219  GLY219     -0.2714
    119  N         -5.5890  -23.4210    8.9050 N.am  220  ARG220     -0.1963
    120  CA        -4.5060  -24.0860    8.1870 C.3   220  ARG220      0.1729
    121  C         -4.8560  -24.0400    6.6880 C.2   220  ARG220      0.2617
    122  O         -5.8190  -24.6840    6.2470 O.2   220  ARG220     -0.2715
    123  CB        -4.2720  -25.5280    8.7160 C.3   220  ARG220      0.0348
    124  CG        -3.2970  -26.3930    7.8770 C.3   220  ARG220      0.0492
    125  CD        -1.8010  -26.0780    8.0620 C.3   220  ARG220      0.2205
    126  NE        -1.4140  -24.7920    7.4720 N.pl3 220  ARG220     -0.0865
    127  CZ        -1.1590  -24.5820    6.1800 C.cat 220  ARG220      0.5346
    128  NH1       -1.1930  -25.5890    5.3140 N.pl3 220  ARG220      0.1354
    129  NH2       -0.8710  -23.3630    5.7450 N.pl3 220  ARG220      0.1354
    130  N         -4.1170  -23.2170    5.9420 N.am  221  GLY221     -0.1940
    131  CA        -4.3610  -22.9990    4.5180 C.3   221  GLY221      0.2014
    132  C         -5.7180  -22.3370    4.3760 C.2   221  GLY221      0.2639
    133  O         -6.2320  -21.8050    5.3630 O.2   221  GLY221     -0.2714
    134  N         -6.3400  -22.4210    3.1870 N.am  222  CYS222     -0.1967
    135  CA        -7.6850  -21.8870    2.9550 C.3   222  CYS222      0.1712
    136  C         -8.4800  -22.9320    2.1720 C.2   222  CYS222      0.2296
    137  O         -7.9930  -23.4160    1.1410 O.2   222  CYS222     -0.2864
    138  CB        -7.6330  -20.5480    2.2180 C.3   222  CYS222      0.0983
    139  SG        -6.6200  -19.2910    3.0410 S.3   222  CYS222     -0.0798
    140  N         -9.5850  -28.9790    7.6010 N.3   227  LYS227     -0.1231
    141  CA        -8.9440  -27.7880    8.1710 C.3   227  LYS227      0.1678
    142  C         -9.9190  -26.5900    8.1490 C.2   227  LYS227      0.2434
    143  O         -9.8330  -25.7070    7.2730 O.2   227  LYS227     -0.2733
    144  CB        -7.6210  -27.4630    7.4340 C.3   227  LYS227      0.0284
    145  CG        -6.5730  -28.5970    7.4340 C.3   227  LYS227      0.0035
    146  CD        -6.1200  -29.0240    8.8460 C.3   227  LYS227      0.0206
    147  CE        -5.2500  -30.2620    8.7820 C.3   227  LYS227      0.1093
    148  NZ        -4.8230  -30.6880   10.1360 N.3   227  LYS227     -0.1314
    149  N        -10.8650  -26.5600    9.1180 N.am  228  PRO228     -0.2718
    150  CA       -11.8550  -25.4630    9.1510 C.3   228  PRO228      0.1535
    151  C        -11.2690  -24.0830    9.4050 C.2   228  PRO228      0.2599
    152  O        -10.1480  -23.9420    9.8890 O.2   228  PRO228     -0.2715
    153  CB       -12.7450  -25.8320   10.3550 C.3   228  PRO228      0.0310
    154  CG       -12.5420  -27.2750   10.5880 C.3   228  PRO228      0.0237
    155  CD       -11.1230  -27.5500   10.1870 C.3   228  PRO228      0.0939
    156  N        -12.0790  -23.0670    9.1310 N.am  229  GLY229     -0.1941
    157  CA       -11.7780  -21.6980    9.5060 C.3   229  GLY229      0.2014
    158  C        -12.0200  -21.6350   11.0020 C.2   229  GLY229      0.2639
    159  O        -12.9370  -22.3080   11.5060 O.2   229  GLY229     -0.2714
    160  N        -11.1570  -20.8950   11.7430 N.am  230  VAL230     -0.1963
    161  CA       -11.2960  -20.7590   13.1990 C.3   230  VAL230      0.1727
    162  C        -11.5800  -19.2770   13.5230 C.2   230  VAL230      0.2616
    163  O        -10.9530  -18.3740   12.9780 O.2   230  VAL230     -0.2715
    164  CB       -10.1040  -21.3430   13.9910 C.3   230  VAL230      0.0290
    165  CG1      -10.4120  -21.3640   15.4890 C.3   230  VAL230      0.0023
    166  CG2       -9.7790  -22.7730   13.5090 C.3   230  VAL230      0.0023
    167  N        -12.5890  -19.0540   14.3550 N.am  231  TYR231     -0.1974
    168  CA       -13.1100  -17.7360   14.6680 C.3   231  TYR231      0.1639
    169  C        -13.1060  -17.4810   16.1510 C.2   231  TYR231      0.2290
    170  O        -13.3630  -18.3960   16.9300 O.2   231  TYR231     -0.2864
    171  CB       -14.5740  -17.6300   14.1250 C.3   231  TYR231      0.0560
    172  CG       -14.6590  -17.8650   12.6300 C.ar  231  TYR231     -0.0198
    173  CD1      -14.7560  -16.7970   11.7400 C.ar  231  TYR231     -0.0009
    174  CD2      -14.6320  -19.1560   12.1010 C.ar  231  TYR231     -0.0009
    175  CE1      -14.8100  -17.0060   10.3600 C.ar  231  TYR231      0.0417
    176  CE2      -14.6300  -19.3730   10.7210 C.ar  231  TYR231      0.0417
    177  CZ       -14.7210  -18.2930    9.8540 C.ar  231  TYR231      0.1957
    178  OH       -14.7390  -18.5000    8.4890 O.3   231  TYR231     -0.2866
@<TRIPOS>BOND
     1   137   136    2
     2    68    67    1
     3    68   139    1
     4    49    50    1
     5   136   135    1
     6   138   135    1
     7   138   139    1
     8    52    51    2
     9    67    64    1
    10    72    71    2
    11   135   134    1
    12    50    51    1
    13    50    53    1
    14   134   132   am
    15    51    57   am
    16    53    54    1
    17    77    75   am
    18    64    63    1
    19    64    65    1
    20    71    70    1
    21    71    78   am
    22    73    74    1
    23    73    70    1
    24    75    76    2
    25    75    74    1
    26    69    65   am
    27    69    70    1
    28    63    59   am
    29    60    59    2
    30    79    78    1
    31    79    80    1
    32    65    66    2
    33    59    58    1
    34   132   131    1
    35   132   133    2
    36    57    58    1
    37   131   130    1
    38    58    61    1
    39    80    81    2
    40    54    56   ar
    41    54    55   ar
    42   128   127    1
    43   129   127    1
    44    61    62    1
    45   130   121   am
    46   127   126    2
    47   122   121    2
    48   121   120    1
    49   143   142    2
    50   145   144    1
    51   145   146    1
    52   144   141    1
    53   126   125    1
    54   140   141    1
    55    82    83    1
    56   124   125    1
    57   124   123    1
    58   142   141    1
    59   142   149   am
    60   120   123    1
    61   120   119    1
    62   178   177    1
    63   118   117    2
    64   147   146    1
    65   147   148    1
    66   119   117   am
    67   117   116    1
    68   149   150    1
    69   149   155    1
    70    85    84    2
    71   156   151   am
    72   156   157    1
    73   150   151    1
    74   150   153    1
    75    94    92    1
    76    93    92    1
    77    83    86    1
    78    83    84    1
    79    87    86    1
    80   151   152    2
    81   157   158    1
    82   116   115    1
    83   177   175   ar
    84   177   176   ar
    85    92    89    1
    86   155   154    1
    87   153   154    1
    88   175   173   ar
    89   115   103   am
    90   176   174   ar
    91   158   159    2
    92   158   160   am
    93   103   104    2
    94   103   102    1
    95    89    90    1
    96    89    88    1
    97    10     8   ar
    98    10     9   ar
    99   173   172   ar
   100   160   161    1
   101   102   101    1
   102   102   105    1
   103    90    91    2
   104    90    95   am
   105   174   172   ar
   106     8     6   ar
   107    98    97    2
   108     9     7   ar
   109   101    97   am
   110    26    24   ar
   111    95    96    1
   112    97    96    1
   113   172   171    1
   114   105   106    1
   115   163   162    2
   116   161   162    1
   117   161   164    1
   118     4     3    2
   119    23    24    1
   120    23    20    1
   121    96    99    1
   122   111   113   ar
   123   111   108   ar
   124     6     7   ar
   125     6     5    1
   126    24    25   ar
   127   166   164    1
   128   162   167   am
   129     3     2    1
   130   113   114   ar
   131   164   165    1
   132    48    47   ar
   133    48    46   ar
   134   106   108   ar
   135   106   107   ar
   136    22    21    2
   137   171   168    1
   138    21    20    1
   139   108   110   ar
   140   167   168    1
   141    20    19    1
   142    47    45   ar
   143     5     2    1
   144   168   169    1
   145    99   100    1
   146    46    44   ar
   147     2     1    1
   148    19    13   am
   149   114   112   ar
   150   107   109   ar
   151   110   112   ar
   152   110   109   ar
   153    45    44   ar
   154    44    43    1
   155    11    12    1
   156   169   170    2
   157    17    15    1
   158    13    12    1
   159    13    14    2
   160    12    15    1
   161    43    40    1
   162    38    37    1
   163    39    40    1
   164    15    16    1
   165    40    41    1
   166    37    36   ar
   167    37    35   ar
   168    36    34   ar
   169    16    18    1
   170    35    33   ar
   171    42    41    2
   172    34    32   ar
   173    33    32   ar
   174    32    31    1
   175    31    28    1
   176    29    28    1
   177    29    30    2
   178    28    27    1
