@<TRIPOS>MOLECULE
tmp/4fufA00.pdb
 155 154 0 0 0
SMALL
GASTEIGER

@<TRIPOS>ATOM
      1  N         -4.5080   -9.3960   15.9470 N.3    46  HIS46      -0.1241
      2  CA        -3.3860   -9.7690   15.0560 C.3    46  HIS46       0.1621
      3  C         -3.2030   -8.8420   13.8660 C.2    46  HIS46       0.2264
      4  O         -2.0890   -8.7030   13.3600 O.2    46  HIS46      -0.2867
      5  CB        -3.4250  -11.2550   14.6530 C.3    46  HIS46       0.0745
      6  CG        -4.2270  -11.5780   13.4250 C.ar   46  HIS46       0.0817
      7  ND1       -5.4070  -12.2790   13.5110 N.ar   46  HIS46      -0.2268
      8  CD2       -3.9390  -11.3710   12.1170 C.ar   46  HIS46       0.1154
      9  CE1       -5.8320  -12.4320   12.2650 C.ar   46  HIS46       0.1986
     10  NE2       -4.9790  -11.9240   11.3890 N.ar   46  HIS46      -0.2212
     11  N         -8.1620  -12.6990    0.0460 N.3   142  LYS142     -0.1245
     12  CA        -7.8110  -13.4600   -1.1630 C.3   142  LYS142      0.1561
     13  C         -8.9170  -14.3570   -1.6710 C.2   142  LYS142      0.2260
     14  O         -9.6770  -14.9400   -0.8830 O.2   142  LYS142     -0.2867
     15  CB        -6.5630  -14.3160   -0.9240 C.3   142  LYS142      0.0271
     16  CG        -5.2870  -13.5230   -0.6830 C.3   142  LYS142      0.0035
     17  CD        -4.1850  -14.5010   -0.2880 C.3   142  LYS142      0.0206
     18  CE        -2.8880  -13.7800   -0.0110 C.3   142  LYS142      0.1093
     19  NZ        -1.7280  -14.7070   -0.1350 N.3   142  LYS142     -0.1314
     20  N         -5.5470  -18.9860   -2.3610 N.3   145  SER145     -0.1217
     21  CA        -4.3600  -18.9580   -1.4850 C.3   145  SER145      0.1889
     22  C         -3.1150  -18.5300   -2.2690 C.2   145  SER145      0.2288
     23  O         -2.2280  -17.9120   -1.6960 O.2   145  SER145     -0.2866
     24  CB        -4.1080  -20.3400   -0.8920 C.3   145  SER145      0.2089
     25  OG        -5.3000  -20.8930   -0.3680 O.3   145  SER145     -0.2183
     26  N        -14.4790  -20.4110    1.7350 N.3   192  ASP192     -0.1225
     27  CA       -13.9270  -20.1280    3.0660 C.3   192  ASP192      0.1805
     28  C        -13.4450  -18.6830    3.1550 C.2   192  ASP192      0.2598
     29  O        -13.3800  -17.9960    2.1410 O.2   192  ASP192     -0.2718
     30  CB       -12.7060  -21.0810    3.2720 C.3   192  ASP192      0.1424
     31  CG       -12.2010  -21.2750    4.6870 C.2   192  ASP192      0.3668
     32  OD1      -12.9100  -20.8520    5.6410 O.co2 192  ASP192     -0.2456
     33  OD2      -11.0730  -21.8210    4.8470 O.co2 192  ASP192     -0.2456
     34  N        -13.1210  -18.2170    4.3670 N.am  193  SER193     -0.1938
     35  CA       -12.4650  -16.9330    4.5260 C.3   193  SER193      0.2055
     36  C        -10.9580  -17.2400    4.2600 C.2   193  SER193      0.2643
     37  O        -10.5460  -18.4130    4.2150 O.2   193  SER193     -0.2714
     38  CB       -12.6730  -16.3700    5.9310 C.3   193  SER193      0.2130
     39  OG       -12.4630  -17.3560    6.9270 O.3   193  SER193     -0.2179
     40  N        -10.1700  -16.2020    3.9850 N.am  194  CYS194     -0.1953
     41  CA        -8.7550  -16.3860    3.6850 C.3   194  CYS194      0.1843
     42  C         -7.9780  -15.1790    4.2000 C.2   194  CYS194      0.2625
     43  O         -8.5780  -14.2940    4.8010 O.2   194  CYS194     -0.2714
     44  CB        -8.5580  -16.5970    2.1780 C.3   194  CYS194      0.0997
     45  SG        -6.9410  -17.2940    1.7290 S.3   194  CYS194     -0.0797
     46  N         -6.6490  -15.1500    3.9930 N.am  195  GLN195     -0.1963
     47  CA        -5.7980  -14.0150    4.3630 C.3   195  GLN195      0.1733
     48  C         -6.4060  -12.7280    3.7620 C.2   195  GLN195      0.2616
     49  O         -6.7270  -12.7010    2.5700 O.2   195  GLN195     -0.2715
     50  CB        -4.3910  -14.2170    3.7690 C.3   195  GLN195      0.0408
     51  CG        -3.4120  -13.0830    4.1150 C.3   195  GLN195      0.0908
     52  CD        -1.9800  -13.4380    3.7860 C.2   195  GLN195      0.2608
     53  OE1       -1.7110  -14.2820    2.9370 O.2   195  GLN195     -0.2717
     54  NE2       -1.0310  -12.8180    4.4680 N.am  195  GLN195     -0.0878
     55  N         -6.5770  -11.7050    4.5950 N.am  196  GLY196     -0.1955
     56  CA        -7.1890  -10.4330    4.1930 C.3   196  GLY196      0.1869
     57  C         -8.6080  -10.3100    4.7320 C.2   196  GLY196      0.2309
     58  O         -9.1370   -9.2100    4.8860 O.2   196  GLY196     -0.2863
     59  N         -9.3310  -11.4180    7.7940 N.3   198  SER198     -0.1217
     60  CA        -9.2080  -11.3120    9.2640 C.3   198  SER198      0.1889
     61  C         -9.8630  -10.0810    9.8270 C.2   198  SER198      0.2288
     62  O         -9.9160   -9.0480    9.1610 O.2   198  SER198     -0.2866
     63  CB        -7.7420  -11.3130    9.6830 C.3   198  SER198      0.2089
     64  OG        -7.1400  -12.5630    9.4010 O.3   198  SER198     -0.2183
     65  N        -13.2870  -13.2530   12.1490 N.3   216  VAL216     -0.1231
     66  CA       -12.2880  -14.0540   11.4190 C.3   216  VAL216      0.1692
     67  C        -10.9410  -13.9400   12.1340 C.2   216  VAL216      0.2593
     68  O        -10.4320  -12.8420   12.3220 O.2   216  VAL216     -0.2718
     69  CB       -12.1580  -13.6410    9.9270 C.3   216  VAL216      0.0266
     70  CG1      -11.1760  -14.5630    9.1930 C.3   216  VAL216      0.0020
     71  CG2      -13.5220  -13.6020    9.2080 C.3   216  VAL216      0.0020
     72  N        -10.3770  -15.0720   12.5330 N.am  217  SER217     -0.1938
     73  CA        -9.1360  -15.0580   13.2960 C.3   217  SER217      0.2055
     74  C         -7.9980  -15.8180   12.6430 C.2   217  SER217      0.2643
     75  O         -6.9590  -15.2140   12.3700 O.2   217  SER217     -0.2714
     76  CB        -9.3910  -15.5680   14.7160 C.3   217  SER217      0.2130
     77  OG        -8.1740  -15.6050   15.4430 O.3   217  SER217     -0.2179
     78  N         -8.1410  -17.1550   12.4760 N.am  218  TRP218     -0.1959
     79  CA        -7.0440  -17.9790   11.9470 C.3   218  TRP218      0.1771
     80  C         -7.5220  -19.2500   11.2800 C.2   218  TRP218      0.2620
     81  O         -8.6910  -19.6100   11.3640 O.2   218  TRP218     -0.2715
     82  CB        -5.9960  -18.2930   13.0460 C.3   218  TRP218      0.0590
     83  CG        -6.5110  -19.1190   14.1950 C.ar  218  TRP218      0.0006
     84  CD1       -7.1300  -18.6600   15.3210 C.ar  218  TRP218      0.0946
     85  CD2       -6.4370  -20.5470   14.3320 C.ar  218  TRP218      0.0152
     86  NE1       -7.4250  -19.7080   16.1630 N.ar  218  TRP218     -0.2442
     87  CE2       -6.9930  -20.8770   15.5900 C.ar  218  TRP218      0.0810
     88  CE3       -5.9540  -21.5850   13.5110 C.ar  218  TRP218      0.0012
     89  CZ2       -7.0720  -22.2010   16.0520 C.ar  218  TRP218      0.0191
     90  CZ3       -6.0520  -22.8970   13.9600 C.ar  218  TRP218      0.0001
     91  CH2       -6.5790  -23.1920   15.2270 C.ar  218  TRP218      0.0015
     92  N         -6.6140  -19.8850   10.5700 N.am  219  GLY219     -0.1940
     93  CA        -6.8880  -21.1210    9.8610 C.3   219  GLY219      0.2014
     94  C         -5.6440  -21.6200    9.1580 C.2   219  GLY219      0.2639
     95  O         -4.7330  -20.8370    8.8630 O.2   219  GLY219     -0.2714
     96  N         -5.6000  -22.9340    8.9000 N.am  220  ARG220     -0.1963
     97  CA        -4.4970  -23.5410    8.1600 C.3   220  ARG220      0.1729
     98  C         -4.8790  -23.4780    6.6860 C.2   220  ARG220      0.2617
     99  O         -5.8840  -24.0800    6.2900 O.2   220  ARG220     -0.2715
    100  CB        -4.2750  -24.9990    8.6210 C.3   220  ARG220      0.0348
    101  CG        -3.1730  -25.7430    7.8670 C.3   220  ARG220      0.0492
    102  CD        -1.7390  -25.1790    8.0150 C.3   220  ARG220      0.2205
    103  NE        -0.8730  -25.9170    7.0950 N.pl3 220  ARG220     -0.0865
    104  CZ        -0.6550  -25.5960    5.8220 C.cat 220  ARG220      0.5346
    105  NH1       -1.0720  -24.4320    5.3410 N.pl3 220  ARG220      0.1354
    106  NH2        0.0440  -26.4070    5.0390 N.pl3 220  ARG220      0.1354
    107  N         -4.0990  -22.7340    5.9010 N.am  221  GLY221     -0.1940
    108  CA        -4.3700  -22.5160    4.4810 C.3   221  GLY221      0.2014
    109  C         -5.7270  -21.8570    4.3200 C.2   221  GLY221      0.2639
    110  O         -6.1990  -21.2140    5.2620 O.2   221  GLY221     -0.2714
    111  N         -6.3760  -22.0240    3.1450 N.am  222  CYS222     -0.1967
    112  CA        -7.7370  -21.5150    2.8910 C.3   222  CYS222      0.1712
    113  C         -8.4860  -22.5610    2.0970 C.2   222  CYS222      0.2296
    114  O         -7.9460  -23.1000    1.1220 O.2   222  CYS222     -0.2864
    115  CB        -7.7280  -20.1800    2.1530 C.3   222  CYS222      0.0983
    116  SG        -6.7160  -18.9140    2.9430 S.3   222  CYS222     -0.0798
    117  N         -9.6170  -28.3380    7.5620 N.3   227  LYS227     -0.1231
    118  CA        -9.0110  -27.1260    8.1460 C.3   227  LYS227      0.1678
    119  C        -10.0190  -25.9700    8.1210 C.2   227  LYS227      0.2434
    120  O        -10.0150  -25.1250    7.2030 O.2   227  LYS227     -0.2733
    121  CB        -7.6800  -26.7610    7.4430 C.3   227  LYS227      0.0284
    122  CG        -6.6190  -27.8960    7.4380 C.3   227  LYS227      0.0035
    123  CD        -6.0620  -28.2220    8.8720 C.3   227  LYS227      0.0206
    124  CE        -5.4910  -29.6410    8.8910 C.3   227  LYS227      0.1093
    125  NZ        -4.9220  -30.0070   10.2210 N.3   227  LYS227     -0.1314
    126  N        -10.9340  -25.9400    9.1110 N.am  228  PRO228     -0.2718
    127  CA       -11.9580  -24.8820    9.1200 C.3   228  PRO228      0.1535
    128  C        -11.3640  -23.5120    9.3770 C.2   228  PRO228      0.2599
    129  O        -10.2260  -23.3830    9.8630 O.2   228  PRO228     -0.2715
    130  CB       -12.8350  -25.2600   10.3230 C.3   228  PRO228      0.0310
    131  CG       -12.5940  -26.7200   10.5430 C.3   228  PRO228      0.0237
    132  CD       -11.1480  -26.8900   10.2260 C.3   228  PRO228      0.0939
    133  N        -12.1650  -22.4990    9.0840 N.am  229  GLY229     -0.1941
    134  CA       -11.8620  -21.1420    9.4850 C.3   229  GLY229      0.2014
    135  C        -12.0880  -21.1400   10.9860 C.2   229  GLY229      0.2639
    136  O        -12.9580  -21.8780   11.4680 O.2   229  GLY229     -0.2714
    137  N        -11.2350  -20.4170   11.7470 N.am  230  VAL230     -0.1963
    138  CA       -11.3730  -20.3110   13.2020 C.3   230  VAL230      0.1727
    139  C        -11.6620  -18.8390   13.5080 C.2   230  VAL230      0.2616
    140  O        -11.0070  -17.9340   12.9860 O.2   230  VAL230     -0.2715
    141  CB       -10.1840  -20.8820   14.0270 C.3   230  VAL230      0.0290
    142  CG1      -10.5540  -20.9660   15.5130 C.3   230  VAL230      0.0023
    143  CG2       -9.7680  -22.2630   13.5210 C.3   230  VAL230      0.0023
    144  N        -12.6790  -18.6240   14.3250 N.am  231  TYR231     -0.1974
    145  CA       -13.2490  -17.3220   14.6340 C.3   231  TYR231      0.1639
    146  C        -13.2370  -17.0850   16.1160 C.2   231  TYR231      0.2290
    147  O        -13.4820  -18.0250   16.8710 O.2   231  TYR231     -0.2864
    148  CB       -14.7300  -17.3180   14.1130 C.3   231  TYR231      0.0560
    149  CG       -14.8070  -17.5380   12.6120 C.ar  231  TYR231     -0.0198
    150  CD1      -14.8720  -16.4620   11.7360 C.ar  231  TYR231     -0.0009
    151  CD2      -14.7590  -18.8200   12.0670 C.ar  231  TYR231     -0.0009
    152  CE1      -14.8750  -16.6470   10.3550 C.ar  231  TYR231      0.0417
    153  CE2      -14.7380  -19.0170   10.6810 C.ar  231  TYR231      0.0417
    154  CZ       -14.8120  -17.9240    9.8280 C.ar  231  TYR231      0.1957
    155  OH       -14.7990  -18.0700    8.4530 O.3   231  TYR231     -0.2866
@<TRIPOS>BOND
     1    20    21    1
     2    22    23    2
     3    22    21    1
     4    13    12    1
     5    13    14    2
     6    21    24    1
     7    12    15    1
     8    12    11    1
     9    15    16    1
    10    24    25    1
    11    16    17    1
    12    17    18    1
    13    19    18    1
    14   114   113    2
    15    45    44    1
    16    45   116    1
    17    26    27    1
    18   113   112    1
    19    29    28    2
    20   115   112    1
    21   115   116    1
    22    44    41    1
    23    49    48    2
    24   112   111    1
    25    53    52    2
    26    27    28    1
    27    27    30    1
    28   111   109   am
    29    28    34   am
    30    30    31    1
    31    41    40    1
    32    41    42    1
    33    48    47    1
    34    48    55   am
    35    50    51    1
    36    50    47    1
    37    52    51    1
    38    52    54   am
    39    40    36   am
    40    46    42   am
    41    46    47    1
    42    56    55    1
    43    56    57    1
    44    42    43    2
    45    37    36    2
    46    36    35    1
    47   109   108    1
    48   109   110    2
    49    34    35    1
    50   108   107    1
    51    35    38    1
    52    31    33   ar
    53    31    32   ar
    54    57    58    2
    55   106   104    1
    56   105   104    1
    57   104   103    2
    58   107    98   am
    59    38    39    1
    60    99    98    2
    61    98    97    1
    62   103   102    1
    63   120   119    2
    64   122   121    1
    65   122   123    1
    66   121   118    1
    67   117   118    1
    68    59    60    1
    69   101   102    1
    70   101   100    1
    71   119   118    1
    72   119   126   am
    73    97   100    1
    74    97    96    1
    75   155   154    1
    76    95    94    2
    77   123   124    1
    78   124   125    1
    79    96    94   am
    80   133   128   am
    81   133   134    1
    82   126   127    1
    83   126   132    1
    84   127   128    1
    85   127   130    1
    86    94    93    1
    87    62    61    2
    88    70    69    1
    89    71    69    1
    90    60    63    1
    91    60    61    1
    92   128   129    2
    93    64    63    1
    94   134   135    1
    95   154   152   ar
    96   154   153   ar
    97    93    92    1
    98    69    66    1
    99   132   131    1
   100   130   131    1
   101   152   150   ar
   102    92    80   am
   103   153   151   ar
   104   135   136    2
   105   135   137   am
   106    80    81    2
   107    80    79    1
   108    10     8   ar
   109    10     9   ar
   110    66    67    1
   111    66    65    1
   112   150   149   ar
   113   137   138    1
   114    79    78    1
   115    79    82    1
   116   151   149   ar
   117     8     6   ar
   118    67    68    2
   119    67    72   am
   120     9     7   ar
   121    75    74    2
   122    78    74   am
   123    72    73    1
   124   149   148    1
   125    74    73    1
   126   140   139    2
   127    82    83    1
   128   138   139    1
   129   138   141    1
   130    73    76    1
   131     4     3    2
   132     6     7   ar
   133     6     5    1
   134   139   144   am
   135    88    90   ar
   136    88    85   ar
   137   143   141    1
   138     3     2    1
   139    90    91   ar
   140   141   142    1
   141   148   145    1
   142    83    85   ar
   143    83    84   ar
   144   144   145    1
   145    85    87   ar
   146   145   146    1
   147     5     2    1
   148    76    77    1
   149     2     1    1
   150    91    89   ar
   151    84    86   ar
   152    87    89   ar
   153    87    86   ar
   154   146   147    2
