@<TRIPOS>MOLECULE
tmp/4fugA00.pdb
 137 133 0 0 0
SMALL
GASTEIGER

@<TRIPOS>ATOM
      1  N        -22.9990   -9.3870  -15.8850 N.3    46  HIS46      -0.1241
      2  CA       -24.1200   -9.7430  -14.9790 C.3    46  HIS46       0.1621
      3  C        -24.3150   -8.8010  -13.7880 C.2    46  HIS46       0.2264
      4  O        -25.4050   -8.7490  -13.2300 O.2    46  HIS46      -0.2867
      5  CB       -24.1110  -11.2070  -14.5080 C.3    46  HIS46       0.0745
      6  CG       -23.2810  -11.5150  -13.2970 C.ar   46  HIS46       0.0817
      7  ND1      -22.1100  -12.2440  -13.4000 N.ar   46  HIS46      -0.2268
      8  CD2      -23.5210  -11.2630  -11.9820 C.ar   46  HIS46       0.1154
      9  CE1      -21.6740  -12.4210  -12.1600 C.ar   46  HIS46       0.1986
     10  NE2      -22.4800  -11.8440  -11.2690 N.ar   46  HIS46      -0.2212
     11  N        -19.2300  -12.8170    0.0390 N.3   142  LYS142     -0.1245
     12  CA       -19.6090  -13.5720    1.2420 C.3   142  LYS142      0.1561
     13  C        -18.4990  -14.4770    1.7760 C.2   142  LYS142      0.2260
     14  O        -17.7640  -15.0800    0.9930 O.2   142  LYS142     -0.2867
     15  CB       -20.8770  -14.4130    0.9880 C.3   142  LYS142      0.0271
     16  CG       -22.1400  -13.6070    0.7140 C.3   142  LYS142      0.0035
     17  CD       -23.3220  -14.5550    0.5660 C.3   142  LYS142      0.0206
     18  CE       -24.5810  -13.8330    0.1250 C.3   142  LYS142      0.1093
     19  NZ       -25.7660  -14.7400    0.2280 N.3   142  LYS142     -0.1314
     20  N        -21.7210  -19.2070    2.5150 N.3   145  SER145     -0.1217
     21  CA       -22.8800  -19.1980    1.6030 C.3   145  SER145      0.1889
     22  C        -24.1550  -18.6530    2.2350 C.2   145  SER145      0.2288
     23  O        -24.9220  -17.9830    1.5550 O.2   145  SER145     -0.2866
     24  CB       -23.1450  -20.5980    1.0510 C.3   145  SER145      0.2089
     25  OG       -21.9870  -21.0780    0.3860 O.3   145  SER145     -0.2183
     26  N        -12.9240  -20.5280   -1.6770 N.3   192  ASP192     -0.1225
     27  CA       -13.4860  -20.2000   -2.9870 C.3   192  ASP192      0.1805
     28  C        -13.9610  -18.7420   -3.0470 C.2   192  ASP192      0.2598
     29  O        -13.9880  -18.0560   -2.0240 O.2   192  ASP192     -0.2718
     30  CB       -14.7330  -21.1060   -3.2250 C.3   192  ASP192      0.1424
     31  CG       -15.2000  -21.3270   -4.6610 C.2   192  ASP192      0.3668
     32  OD1      -14.5730  -20.7620   -5.5980 O.co2 192  ASP192     -0.2456
     33  OD2      -16.2440  -21.9790   -4.8430 O.co2 192  ASP192     -0.2456
     34  N        -14.3580  -18.2900   -4.2560 N.am  193  SER193     -0.1938
     35  CA       -15.0480  -17.0160   -4.4330 C.3   193  SER193      0.2055
     36  C        -16.5440  -17.3510   -4.1540 C.2   193  SER193      0.2643
     37  O        -16.9380  -18.5310   -4.1020 O.2   193  SER193     -0.2714
     38  CB       -14.8610  -16.4400   -5.8400 C.3   193  SER193      0.2130
     39  OG       -15.0750  -17.3980   -6.8650 O.3   193  SER193     -0.2179
     40  N        -17.3530  -16.3180   -3.9230 N.am  194  CYS194     -0.1953
     41  CA       -18.7590  -16.5070   -3.6160 C.3   194  CYS194      0.1843
     42  C        -19.5280  -15.2920   -4.1210 C.2   194  CYS194      0.2625
     43  O        -18.9310  -14.4110   -4.7360 O.2   194  CYS194     -0.2714
     44  CB       -18.9450  -16.7270   -2.1100 C.3   194  CYS194      0.0997
     45  SG       -20.5500  -17.4400   -1.6540 S.3   194  CYS194     -0.0797
     46  N        -20.8540  -15.2590   -3.9140 N.am  195  GLN195     -0.1977
     47  CA       -21.6680  -14.1130   -4.3240 C.3   195  GLN195      0.1601
     48  C        -21.0640  -12.8340   -3.7100 C.2   195  GLN195      0.2287
     49  O        -20.7030  -12.8250   -2.5330 O.2   195  GLN195     -0.2864
     50  CB       -23.1110  -14.3060   -3.8160 C.3   195  GLN195      0.0394
     51  CG       -24.0170  -13.1140   -4.1200 C.3   195  GLN195      0.0908
     52  CD       -25.4550  -13.5020   -3.9830 C.2   195  GLN195      0.2608
     53  OE1      -25.8560  -14.1760   -3.0250 O.2   195  GLN195     -0.2717
     54  NE2      -26.2440  -13.1580   -4.9860 N.am  195  GLN195     -0.0878
     55  N        -18.1610  -11.5100   -7.6630 N.3   198  SER198     -0.1217
     56  CA       -18.3690  -11.3820   -9.1160 C.3   198  SER198      0.1889
     57  C        -17.7110  -10.1450   -9.6760 C.2   198  SER198      0.2288
     58  O        -17.6810   -9.1050   -9.0060 O.2   198  SER198     -0.2866
     59  CB       -19.8650  -11.3380   -9.4280 C.3   198  SER198      0.2089
     60  OG       -20.4990  -12.5830   -9.1700 O.3   198  SER198     -0.2183
     61  N        -14.2430  -13.2530  -12.0590 N.3   216  VAL216     -0.1231
     62  CA       -15.2660  -14.0480  -11.3260 C.3   216  VAL216      0.1692
     63  C        -16.6080  -13.9100  -12.0310 C.2   216  VAL216      0.2593
     64  O        -17.1120  -12.8010  -12.2160 O.2   216  VAL216     -0.2718
     65  CB       -15.4070  -13.6660   -9.8180 C.3   216  VAL216      0.0266
     66  CG1      -16.3640  -14.6400   -9.0910 C.3   216  VAL216      0.0020
     67  CG2      -14.0460  -13.5980   -9.1200 C.3   216  VAL216      0.0020
     68  N        -17.1970  -15.0440  -12.3980 N.am  217  SER217     -0.1938
     69  CA       -18.4440  -15.0580  -13.1440 C.3   217  SER217      0.2055
     70  C        -19.5420  -15.8230  -12.4440 C.2   217  SER217      0.2643
     71  O        -20.5820  -15.2350  -12.1410 O.2   217  SER217     -0.2714
     72  CB       -18.2040  -15.5900  -14.5630 C.3   217  SER217      0.2130
     73  OG       -19.4040  -15.5660  -15.3190 O.3   217  SER217     -0.2179
     74  N        -19.3720  -17.1480  -12.2450 N.am  218  TRP218     -0.1959
     75  CA       -20.4420  -17.9470  -11.6610 C.3   218  TRP218      0.1771
     76  C        -19.9610  -19.2200  -10.9780 C.2   218  TRP218      0.2620
     77  O        -18.8070  -19.5960  -11.1150 O.2   218  TRP218     -0.2715
     78  CB       -21.4970  -18.2780  -12.7470 C.3   218  TRP218      0.0590
     79  CG       -21.0000  -19.1220  -13.8960 C.ar  218  TRP218      0.0006
     80  CD1      -20.4860  -18.6730  -15.0820 C.ar  218  TRP218      0.0946
     81  CD2      -21.1220  -20.5420  -14.0250 C.ar  218  TRP218      0.0152
     82  NE1      -20.2290  -19.7370  -15.9190 N.ar  218  TRP218     -0.2442
     83  CE2      -20.6500  -20.8910  -15.3150 C.ar  218  TRP218      0.0810
     84  CE3      -21.5810  -21.5630  -13.1720 C.ar  218  TRP218      0.0012
     85  CZ2      -20.5690  -22.2200  -15.7470 C.ar  218  TRP218      0.0191
     86  CZ3      -21.4990  -22.8810  -13.6010 C.ar  218  TRP218      0.0001
     87  CH2      -21.0450  -23.1930  -14.8940 C.ar  218  TRP218      0.0015
     88  N        -20.8540  -19.8580  -10.2340 N.am  219  GLY219     -0.1940
     89  CA       -20.5470  -21.1010   -9.5390 C.3   219  GLY219      0.2014
     90  C        -21.7480  -21.6280   -8.7940 C.2   219  GLY219      0.2639
     91  O        -22.5580  -20.8450   -8.2840 O.2   219  GLY219     -0.2714
     92  N        -21.8730  -22.9660   -8.7520 N.am  220  ARG220     -0.1963
     93  CA       -22.9450  -23.6310   -8.0330 C.3   220  ARG220      0.1729
     94  C        -22.5350  -23.6760   -6.5680 C.2   220  ARG220      0.2617
     95  O        -21.5560  -24.3440   -6.2110 O.2   220  ARG220     -0.2715
     96  CB       -23.1700  -25.0640   -8.5840 C.3   220  ARG220      0.0348
     97  CG       -24.2020  -25.8830   -7.7900 C.3   220  ARG220      0.0492
     98  CD       -25.6480  -25.3590   -7.8260 C.3   220  ARG220      0.2205
     99  NE       -26.5230  -26.2130   -7.0100 N.pl3 220  ARG220     -0.0865
    100  CZ       -26.7170  -26.0590   -5.6990 C.cat 220  ARG220      0.5346
    101  NH1      -26.1430  -25.0530   -5.0470 N.pl3 220  ARG220      0.1354
    102  NH2      -27.4960  -26.9030   -5.0320 N.pl3 220  ARG220      0.1354
    103  N        -23.2720  -22.9430   -5.7360 N.am  221  GLY221     -0.1940
    104  CA       -22.9510  -22.7970   -4.3220 C.3   221  GLY221      0.2014
    105  C        -21.6150  -22.0870   -4.1820 C.2   221  GLY221      0.2639
    106  O        -21.1660  -21.4490   -5.1360 O.2   221  GLY221     -0.2714
    107  N        -20.9710  -22.1860   -3.0020 N.am  222  CYS222     -0.1953
    108  CA       -19.6310  -21.6320   -2.7460 C.3   222  CYS222      0.1843
    109  C        -18.8130  -22.6450   -1.9710 C.2   222  CYS222      0.2625
    110  O        -19.2860  -23.1520   -0.9600 O.2   222  CYS222     -0.2714
    111  CB       -19.7200  -20.3090   -1.9980 C.3   222  CYS222      0.0997
    112  SG       -20.7410  -19.0870   -2.8410 S.3   222  CYS222     -0.0797
    113  N        -17.5800  -22.9410   -2.4470 N.am  223  ALA223     -0.1977
    114  CA       -16.7000  -23.9620   -1.8700 C.3   223  ALA223      0.1597
    115  C        -17.4570  -25.3200   -1.7500 C.2   223  ALA223      0.2287
    116  O        -17.3040  -26.0760   -0.7760 O.2   223  ALA223     -0.2864
    117  CB       -16.1420  -23.4970   -0.5230 C.3   223  ALA223      0.0319
    118  N        -17.8280  -28.4230   -7.5200 N.3   227  LYS227     -0.1245
    119  CA       -18.4340  -27.2390   -8.1110 C.3   227  LYS227      0.1561
    120  C        -17.4140  -26.0850   -8.0770 C.2   227  LYS227      0.2260
    121  O        -17.4460  -25.2150   -7.1820 O.2   227  LYS227     -0.2867
    122  CB       -19.7740  -26.8930   -7.4160 C.3   227  LYS227      0.0271
    123  CG       -20.7990  -28.0290   -7.4160 C.3   227  LYS227      0.0035
    124  CD       -21.2430  -28.4570   -8.8370 C.3   227  LYS227      0.0206
    125  CE       -22.0200  -29.7600   -8.7770 C.3   227  LYS227      0.1093
    126  NZ       -22.5210  -30.1540  -10.1090 N.3   227  LYS227     -0.1314
    127  N        -15.3000  -22.5750   -9.0600 N.3   229  GLY229     -0.1210
    128  CA       -15.6000  -21.2080   -9.4350 C.3   229  GLY229      0.1956
    129  C        -15.4220  -21.1710  -10.9470 C.2   229  GLY229      0.2611
    130  O        -14.5030  -21.8200  -11.4740 O.2   229  GLY229     -0.2717
    131  N        -16.3120  -20.4720  -11.6620 N.am  230  VAL230     -0.1979
    132  CA       -16.1940  -20.3390  -13.1220 C.3   230  VAL230      0.1595
    133  C        -15.9010  -18.8740  -13.4110 C.2   230  VAL230      0.2287
    134  O        -16.5300  -17.9710  -12.8370 O.2   230  VAL230     -0.2864
    135  CB       -17.3820  -20.8850  -13.9430 C.3   230  VAL230      0.0276
    136  CG1      -17.0480  -20.9060  -15.4450 C.3   230  VAL230      0.0022
    137  CG2      -17.7660  -22.2880  -13.4760 C.3   230  VAL230      0.0022
@<TRIPOS>BOND
     1    82    83   ar
     2    82    80   ar
     3     1     2    1
     4    85    83   ar
     5    85    87   ar
     6   136   135    1
     7    73    72    1
     8    83    81   ar
     9    80    79   ar
    10     2     5    1
    11     2     3    1
    12    87    86   ar
    13    72    69    1
    14     5     6    1
    15    81    79   ar
    16    81    84   ar
    17   135   137    1
    18   135   132    1
    19    79    78    1
    20     3     4    2
    21    86    84   ar
    22   133   132    1
    23   133   134    2
    24     7     6   ar
    25     7     9   ar
    26     6     8   ar
    27    69    70    1
    28    69    68    1
    29   132   131    1
    30    78    75    1
    31    70    74   am
    32    70    71    2
    33    68    63   am
    34    74    75    1
    35    64    63    2
    36     9    10   ar
    37    61    62    1
    38    63    62    1
    39     8    10   ar
    40   131   129   am
    41    75    76    1
    42   130   129    2
    43    62    65    1
    44    77    76    2
    45    76    88   am
    46   129   128    1
    47    88    89    1
    48   126   125    1
    49    65    67    1
    50    65    66    1
    51    57    56    1
    52    57    58    2
    53    89    90    1
    54   128   127    1
    55    59    60    1
    56    59    56    1
    57    56    55    1
    58   124   125    1
    59   124   123    1
    60    90    92   am
    61    90    91    2
    62    92    93    1
    63    96    93    1
    64    96    97    1
    65   119   120    1
    66   119   118    1
    67   119   122    1
    68   120   121    2
    69    93    94    1
    70    98    97    1
    71    98    99    1
    72   123   122    1
    73    99   100    2
    74    39    38    1
    75    94    95    2
    76    94   103   am
    77    38    35    1
    78   103   104    1
    79   100   101    1
    80   100   102    1
    81    32    31   ar
    82   106   105    2
    83    54    52   am
    84    33    31   ar
    85    43    42    2
    86    31    30    1
    87    35    34    1
    88    35    36    1
    89    47    46    1
    90    47    50    1
    91    47    48    1
    92   104   105    1
    93    34    28   am
    94   105   107   am
    95    36    37    2
    96    36    40   am
    97    42    46   am
    98    42    41    1
    99    51    52    1
   100    51    50    1
   101    52    53    2
   102    40    41    1
   103    48    49    2
   104    41    44    1
   105    30    27    1
   106    28    27    1
   107    28    29    2
   108   107   108    1
   109    27    26    1
   110   112   111    1
   111   112    45    1
   112   108   111    1
   113   108   109    1
   114   113   109   am
   115   113   114    1
   116    44    45    1
   117   109   110    2
   118   114   115    1
   119   114   117    1
   120   115   116    2
   121    11    12    1
   122    18    19    1
   123    18    17    1
   124    25    24    1
   125    17    16    1
   126    16    15    1
   127    15    12    1
   128    14    13    2
   129    24    21    1
   130    12    13    1
   131    23    22    2
   132    21    22    1
   133    21    20    1
