@<TRIPOS>MOLECULE
tmp/4fuhA00.pdb
 113 112 0 0 0
SMALL
GASTEIGER

@<TRIPOS>ATOM
      1  N         -4.5680   -9.5240   15.9010 N.3    46  HIS46      -0.1241
      2  CA        -3.4420   -9.8910   15.0450 C.3    46  HIS46       0.1621
      3  C         -3.2610   -8.9470   13.8340 C.2    46  HIS46       0.2264
      4  O         -2.1620   -8.8890   13.2580 O.2    46  HIS46      -0.2867
      5  CB        -3.4610  -11.3810   14.6350 C.3    46  HIS46       0.0745
      6  CG        -4.2220  -11.7260   13.3970 C.ar   46  HIS46       0.0817
      7  ND1       -5.3840  -12.4930   13.4450 N.ar   46  HIS46      -0.2268
      8  CD2       -3.8950  -11.5290   12.0940 C.ar   46  HIS46       0.1154
      9  CE1       -5.7790  -12.6550   12.1920 C.ar   46  HIS46       0.1986
     10  NE2       -4.9110  -12.0990   11.3370 N.ar   46  HIS46      -0.2212
     11  N        -14.4200  -20.8770    1.8510 N.3   192  ASP192     -0.1225
     12  CA       -13.8590  -20.5580    3.1550 C.3   192  ASP192      0.1805
     13  C        -13.4160  -19.0960    3.1890 C.2   192  ASP192      0.2598
     14  O        -13.3710  -18.4190    2.1470 O.2   192  ASP192     -0.2718
     15  CB       -12.6150  -21.4470    3.3960 C.3   192  ASP192      0.1424
     16  CG       -12.1440  -21.6590    4.8360 C.2   192  ASP192      0.3668
     17  OD1      -12.7380  -21.0220    5.7870 O.co2 192  ASP192     -0.2456
     18  OD2      -11.1140  -22.3520    5.0170 O.co2 192  ASP192     -0.2456
     19  N        -13.0600  -18.6180    4.3720 N.am  193  SER193     -0.1938
     20  CA       -12.3650  -17.3260    4.4860 C.3   193  SER193      0.2055
     21  C        -10.8750  -17.6060    4.2370 C.2   193  SER193      0.2643
     22  O        -10.4600  -18.7760    4.1820 O.2   193  SER193     -0.2714
     23  CB       -12.5670  -16.6570    5.8460 C.3   193  SER193      0.2130
     24  OG       -12.3640  -17.5340    6.9400 O.3   193  SER193     -0.2179
     25  N        -10.0600  -16.5550    4.0530 N.am  194  CYS194     -0.1953
     26  CA        -8.6420  -16.7300    3.7560 C.3   194  CYS194      0.1843
     27  C         -7.8890  -15.4800    4.2150 C.2   194  CYS194      0.2625
     28  O         -8.4580  -14.5650    4.8300 O.2   194  CYS194     -0.2714
     29  CB        -8.4680  -17.0000    2.2540 C.3   194  CYS194      0.0997
     30  SG        -6.8700  -17.7580    1.7750 S.3   194  CYS194     -0.0797
     31  N         -6.6040  -15.4470    3.9330 N.am  195  GLN195     -0.1977
     32  CA        -5.7930  -14.2800    4.2620 C.3   195  GLN195      0.1601
     33  C         -6.4250  -13.0030    3.6920 C.2   195  GLN195      0.2287
     34  O         -6.8600  -13.0050    2.5410 O.2   195  GLN195     -0.2864
     35  CB        -4.4030  -14.4900    3.6740 C.3   195  GLN195      0.0394
     36  CG        -3.4540  -13.3550    3.9870 C.3   195  GLN195      0.0908
     37  CD        -2.0450  -13.6390    3.5360 C.2   195  GLN195      0.2608
     38  OE1       -1.7180  -14.7230    3.0590 O.2   195  GLN195     -0.2717
     39  NE2       -1.1790  -12.6540    3.6610 N.am  195  GLN195     -0.0878
     40  N         -9.2790  -11.6330    7.7360 N.3   198  SER198     -0.1217
     41  CA        -9.1230  -11.5420    9.1790 C.3   198  SER198      0.1889
     42  C         -9.7800  -10.3010    9.7300 C.2   198  SER198      0.2288
     43  O         -9.7790   -9.2370    9.0930 O.2   198  SER198     -0.2866
     44  CB        -7.6520  -11.5520    9.5640 C.3   198  SER198      0.2089
     45  OG        -7.0590  -12.8210    9.2980 O.3   198  SER198     -0.2183
     46  N        -13.1940  -13.5110   12.1360 N.3   216  VAL216     -0.1231
     47  CA       -12.2360  -14.3250   11.3980 C.3   216  VAL216      0.1692
     48  C        -10.8670  -14.1940   12.0880 C.2   216  VAL216      0.2593
     49  O        -10.3520  -13.0710   12.2330 O.2   216  VAL216     -0.2718
     50  CB       -12.0830  -13.8690    9.9220 C.3   216  VAL216      0.0266
     51  CG1      -11.0300  -14.7320    9.1950 C.3   216  VAL216      0.0020
     52  CG2      -13.4140  -13.8820    9.1540 C.3   216  VAL216      0.0020
     53  N        -10.2670  -15.3450   12.4680 N.am  217  SER217     -0.1938
     54  CA        -9.0080  -15.3790   13.1930 C.3   217  SER217      0.2055
     55  C         -7.8970  -16.1830   12.4920 C.2   217  SER217      0.2643
     56  O         -6.8360  -15.6280   12.2000 O.2   217  SER217     -0.2714
     57  CB        -9.2250  -15.8730   14.6300 C.3   217  SER217      0.2130
     58  OG        -7.9950  -15.8990   15.3340 O.3   217  SER217     -0.2179
     59  N         -8.1010  -17.4890   12.2560 N.am  218  TRP218     -0.1959
     60  CA        -7.0310  -18.3310   11.6990 C.3   218  TRP218      0.1771
     61  C         -7.5190  -19.6130   11.0320 C.2   218  TRP218      0.2620
     62  O         -8.6790  -19.9800   11.1250 O.2   218  TRP218     -0.2715
     63  CB        -5.9950  -18.6860   12.7930 C.3   218  TRP218      0.0590
     64  CG        -6.5000  -19.5200   13.9530 C.ar  218  TRP218      0.0006
     65  CD1       -7.0720  -19.0600   15.1080 C.ar  218  TRP218      0.0946
     66  CD2       -6.3820  -20.9510   14.1120 C.ar  218  TRP218      0.0152
     67  NE1       -7.3180  -20.1030   15.9720 N.ar  218  TRP218     -0.2442
     68  CE2       -6.9050  -21.2760   15.3860 C.ar  218  TRP218      0.0810
     69  CE3       -5.9460  -21.9910   13.2810 C.ar  218  TRP218      0.0012
     70  CZ2       -6.9390  -22.5980   15.8720 C.ar  218  TRP218      0.0191
     71  CZ3       -5.9200  -23.2820   13.7840 C.ar  218  TRP218      0.0001
     72  CH2       -6.4450  -23.5840   15.0470 C.ar  218  TRP218      0.0015
     73  N         -6.6040  -20.2850   10.3640 N.am  219  GLY219     -0.1954
     74  CA        -6.8810  -21.5740    9.7520 C.3   219  GLY219      0.1869
     75  C         -5.6520  -22.1380    9.0750 C.2   219  GLY219      0.2309
     76  O         -4.7350  -21.3700    8.7580 O.2   219  GLY219     -0.2863
     77  N         -4.1530  -23.2860    5.9390 N.3   221  GLY221     -0.1210
     78  CA        -4.4700  -23.1230    4.5240 C.3   221  GLY221      0.1956
     79  C         -5.8430  -22.4800    4.4100 C.2   221  GLY221      0.2612
     80  O         -6.3610  -21.9430    5.3970 O.2   221  GLY221     -0.2717
     81  N         -6.4440  -22.5260    3.2000 N.am  222  CYS222     -0.1970
     82  CA        -7.7840  -21.9840    2.9380 C.3   222  CYS222      0.1712
     83  C         -8.5570  -23.0320    2.1540 C.2   222  CYS222      0.2296
     84  O         -8.0610  -23.5360    1.1400 O.2   222  CYS222     -0.2864
     85  CB        -7.7130  -20.6800    2.1630 C.3   222  CYS222      0.0983
     86  SG        -6.6990  -19.4290    2.9870 S.3   222  CYS222     -0.0798
     87  N         -9.6670  -28.9780    7.5890 N.3   227  LYS227     -0.1231
     88  CA        -9.0640  -27.7810    8.1980 C.3   227  LYS227      0.1678
     89  C        -10.0260  -26.5910    8.1750 C.2   227  LYS227      0.2434
     90  O         -9.9820  -25.7040    7.3070 O.2   227  LYS227     -0.2733
     91  CB        -7.7560  -27.4320    7.4920 C.3   227  LYS227      0.0284
     92  CG        -6.7200  -28.5580    7.4930 C.3   227  LYS227      0.0035
     93  CD        -6.2630  -29.0580    8.8900 C.3   227  LYS227      0.0206
     94  CE        -5.5200  -30.3670    8.8340 C.3   227  LYS227      0.1093
     95  NZ        -5.0280  -30.8070   10.1620 N.3   227  LYS227     -0.1314
     96  N        -10.9510  -26.5810    9.1410 N.am  228  PRO228     -0.2718
     97  CA       -11.9260  -25.4810    9.1670 C.3   228  PRO228      0.1535
     98  C        -11.3270  -24.0890    9.3780 C.2   228  PRO228      0.2599
     99  O        -10.2120  -23.9200    9.8760 O.2   228  PRO228     -0.2715
    100  CB       -12.7960  -25.8190   10.3750 C.3   228  PRO228      0.0310
    101  CG       -12.7000  -27.3180   10.5200 C.3   228  PRO228      0.0237
    102  CD       -11.2430  -27.5980   10.1780 C.3   228  PRO228      0.0939
    103  N        -12.1170  -23.0790    9.0550 N.am  229  GLY229     -0.1941
    104  CA       -11.8180  -21.7270    9.4690 C.3   229  GLY229      0.2014
    105  C        -12.0590  -21.6780   10.9760 C.2   229  GLY229      0.2638
    106  O        -12.9960  -22.3150   11.4840 O.2   229  GLY229     -0.2714
    107  N        -11.2280  -20.9010   11.7060 N.am  230  VAL230     -0.1977
    108  CA       -11.3460  -20.7150   13.1610 C.3   230  VAL230      0.1596
    109  C        -11.5950  -19.2270   13.4650 C.2   230  VAL230      0.2287
    110  O        -10.9380  -18.3250   12.9160 O.2   230  VAL230     -0.2864
    111  CB       -10.1470  -21.2820   13.9450 C.3   230  VAL230      0.0276
    112  CG1      -10.4520  -21.2790   15.4650 C.3   230  VAL230      0.0022
    113  CG2       -9.7860  -22.6950   13.4640 C.3   230  VAL230      0.0022
@<TRIPOS>BOND
     1    84    83    2
     2    30    29    1
     3    30    86    1
     4    11    12    1
     5    14    13    2
     6    83    82    1
     7    85    82    1
     8    85    86    1
     9    29    26    1
    10    34    33    2
    11    82    81    1
    12    38    37    2
    13    12    13    1
    14    12    15    1
    15    13    19   am
    16    81    79   am
    17    15    16    1
    18    37    39   am
    19    37    36    1
    20    35    36    1
    21    35    32    1
    22    33    32    1
    23    26    25    1
    24    26    27    1
    25    31    27   am
    26    31    32    1
    27    25    21   am
    28    22    21    2
    29    27    28    2
    30    21    20    1
    31    19    20    1
    32    79    78    1
    33    79    80    2
    34    20    23    1
    35    78    77    1
    36    16    18   ar
    37    16    17   ar
    38    23    24    1
    39    90    89    2
    40    91    92    1
    41    91    88    1
    42    92    93    1
    43    87    88    1
    44    40    41    1
    45    89    88    1
    46    89    96   am
    47    76    75    2
    48    94    93    1
    49    94    95    1
    50   103    98   am
    51   103   104    1
    52    75    74    1
    53    43    42    2
    54    96    97    1
    55    96   102    1
    56    52    50    1
    57    97    98    1
    58    97   100    1
    59    41    44    1
    60    41    42    1
    61    51    50    1
    62    45    44    1
    63    98    99    2
    64   104   105    1
    65    74    73    1
    66    50    47    1
    67   102   101    1
    68    73    61   am
    69   100   101    1
    70   105   106    2
    71   105   107   am
    72    61    62    2
    73    61    60    1
    74    10     8   ar
    75    10     9   ar
    76    47    48    1
    77    47    46    1
    78    60    59    1
    79    60    63    1
    80   107   108    1
    81    48    49    2
    82    48    53   am
    83     8     6   ar
    84     9     7   ar
    85    56    55    2
    86    59    55   am
    87    53    54    1
    88    55    54    1
    89    63    64    1
    90   110   109    2
    91   108   109    1
    92   108   111    1
    93    54    57    1
    94     4     3    2
    95    69    71   ar
    96    69    66   ar
    97     6     7   ar
    98     6     5    1
    99   113   111    1
   100    71    72   ar
   101     3     2    1
   102   111   112    1
   103    64    66   ar
   104    64    65   ar
   105    66    68   ar
   106    57    58    1
   107     5     2    1
   108     2     1    1
   109    72    70   ar
   110    65    67   ar
   111    68    70   ar
   112    68    67   ar
