@<TRIPOS>MOLECULE
tmp/4fuiA00.pdb
 155 154 0 0 0
SMALL
GASTEIGER

@<TRIPOS>ATOM
      1  N         -4.5340   -9.4970   15.8900 N.3    46  HIS46      -0.1241
      2  CA        -3.4020   -9.9030   15.0280 C.3    46  HIS46       0.1621
      3  C         -3.2170   -8.9730   13.7980 C.2    46  HIS46       0.2264
      4  O         -2.1140   -8.8960   13.2530 O.2    46  HIS46      -0.2867
      5  CB        -3.5000  -11.3820   14.6130 C.3    46  HIS46       0.0745
      6  CG        -4.2900  -11.6980   13.3790 C.ar   46  HIS46       0.0817
      7  ND1       -5.4310  -12.4780   13.4440 N.ar   46  HIS46      -0.2268
      8  CD2       -3.9930  -11.4690   12.0770 C.ar   46  HIS46       0.1154
      9  CE1       -5.8270  -12.6450   12.1930 C.ar   46  HIS46       0.1986
     10  NE2       -4.9860  -12.0640   11.3330 N.ar   46  HIS46      -0.2212
     11  N         -8.2900  -12.9750    0.0000 N.3   142  LYS142     -0.1245
     12  CA        -7.9090  -13.7710   -1.1770 C.3   142  LYS142      0.1561
     13  C         -9.0140  -14.6860   -1.6790 C.2   142  LYS142      0.2260
     14  O         -9.7390  -15.2890   -0.8830 O.2   142  LYS142     -0.2867
     15  CB        -6.6780  -14.6340   -0.8700 C.3   142  LYS142      0.0271
     16  CG        -5.3860  -13.8500   -0.6490 C.3   142  LYS142      0.0035
     17  CD        -4.2230  -14.8020   -0.4830 C.3   142  LYS142      0.0206
     18  CE        -2.9460  -14.0770   -0.1460 C.3   142  LYS142      0.1093
     19  NZ        -1.7840  -15.0130   -0.1070 N.3   142  LYS142     -0.1314
     20  N         -5.7480  -19.5500   -2.5120 N.3   145  SER145     -0.1217
     21  CA        -4.5430  -19.6050   -1.6600 C.3   145  SER145      0.1889
     22  C         -3.2840  -19.1210   -2.4200 C.2   145  SER145      0.2288
     23  O         -2.4220  -18.5030   -1.8070 O.2   145  SER145     -0.2866
     24  CB        -4.3270  -21.0340   -1.1580 C.3   145  SER145      0.2089
     25  OG        -5.5190  -21.5690   -0.6060 O.3   145  SER145     -0.2183
     26  N        -14.5590  -20.8530    1.8840 N.3   192  ASP192     -0.1225
     27  CA       -13.9780  -20.5130    3.1920 C.3   192  ASP192      0.1805
     28  C        -13.4830  -19.0620    3.2410 C.2   192  ASP192      0.2598
     29  O        -13.4200  -18.3940    2.2090 O.2   192  ASP192     -0.2718
     30  CB       -12.7500  -21.4650    3.4180 C.3   192  ASP192      0.1424
     31  CG       -12.2100  -21.6400    4.8280 C.2   192  ASP192      0.3668
     32  OD1      -12.8030  -21.0640    5.7770 O.co2 192  ASP192     -0.2456
     33  OD2      -11.2050  -22.3710    4.9900 O.co2 192  ASP192     -0.2456
     34  N        -13.0980  -18.5870    4.4370 N.am  193  SER193     -0.1938
     35  CA       -12.3870  -17.3160    4.5700 C.3   193  SER193      0.2055
     36  C        -10.8990  -17.6080    4.2670 C.2   193  SER193      0.2643
     37  O        -10.4860  -18.7860    4.1940 O.2   193  SER193     -0.2714
     38  CB       -12.5790  -16.6990    5.9590 C.3   193  SER193      0.2130
     39  OG       -12.3660  -17.6370    7.0010 O.3   193  SER193     -0.2179
     40  N        -10.1060  -16.5550    4.0330 N.am  194  CYS194     -0.1953
     41  CA        -8.6830  -16.7160    3.7400 C.3   194  CYS194      0.1843
     42  C         -7.9500  -15.4500    4.2000 C.2   194  CYS194      0.2625
     43  O         -8.5910  -14.5620    4.7710 O.2   194  CYS194     -0.2714
     44  CB        -8.4770  -16.9900    2.2460 C.3   194  CYS194      0.0997
     45  SG        -6.8720  -17.7230    1.8280 S.3   194  CYS194     -0.0797
     46  N         -6.6170  -15.3720    3.9780 N.am  195  GLN195     -0.1963
     47  CA        -5.7880  -14.1960    4.3030 C.3   195  GLN195      0.1733
     48  C         -6.4450  -12.9230    3.7190 C.2   195  GLN195      0.2616
     49  O         -6.8180  -12.9280    2.5500 O.2   195  GLN195     -0.2715
     50  CB        -4.3710  -14.4050    3.7180 C.3   195  GLN195      0.0408
     51  CG        -3.4000  -13.2540    3.9820 C.3   195  GLN195      0.0908
     52  CD        -1.9980  -13.5230    3.4840 C.2   195  GLN195      0.2608
     53  OE1       -1.6990  -14.5530    2.8700 O.2   195  GLN195     -0.2717
     54  NE2       -1.0990  -12.5980    3.7500 N.am  195  GLN195     -0.0878
     55  N         -6.6200  -11.8830    4.5410 N.am  196  GLY196     -0.1955
     56  CA        -7.2750  -10.6370    4.1270 C.3   196  GLY196      0.1869
     57  C         -8.6830  -10.5120    4.6910 C.2   196  GLY196      0.2309
     58  O         -9.2100   -9.4070    4.8490 O.2   196  GLY196     -0.2863
     59  N         -9.3730  -11.6560    7.7520 N.3   198  SER198     -0.1217
     60  CA        -9.1840  -11.5350    9.2090 C.3   198  SER198      0.1889
     61  C         -9.8360  -10.2880    9.7700 C.2   198  SER198      0.2288
     62  O         -9.8450   -9.2560    9.0920 O.2   198  SER198     -0.2866
     63  CB        -7.7000  -11.5030    9.5520 C.3   198  SER198      0.2089
     64  OG        -7.0640  -12.7290    9.2260 O.3   198  SER198     -0.2183
     65  N        -13.2680  -13.4270   12.1110 N.3   216  VAL216     -0.1231
     66  CA       -12.2810  -14.2330   11.3580 C.3   216  VAL216      0.1692
     67  C        -10.9180  -14.1670   12.0680 C.2   216  VAL216      0.2593
     68  O        -10.3710  -13.0750   12.2470 O.2   216  VAL216     -0.2718
     69  CB       -12.1510  -13.8460    9.8530 C.3   216  VAL216      0.0266
     70  CG1      -11.1960  -14.8170    9.1160 C.3   216  VAL216      0.0020
     71  CG2      -13.5100  -13.7890    9.1590 C.3   216  VAL216      0.0020
     72  N        -10.3780  -15.3320   12.4830 N.am  217  SER217     -0.1938
     73  CA        -9.1230  -15.3470   13.2210 C.3   217  SER217      0.2055
     74  C         -8.0130  -16.1450   12.5170 C.2   217  SER217      0.2643
     75  O         -7.0190  -15.5340   12.1420 O.2   217  SER217     -0.2714
     76  CB        -9.3430  -15.8920   14.6310 C.3   217  SER217      0.2130
     77  OG        -8.1480  -15.8410   15.3930 O.3   217  SER217     -0.2179
     78  N         -8.1460  -17.4900   12.3750 N.am  218  TRP218     -0.1959
     79  CA        -7.0800  -18.3310   11.8100 C.3   218  TRP218      0.1771
     80  C         -7.5780  -19.6240   11.1290 C.2   218  TRP218      0.2620
     81  O         -8.7690  -19.9460   11.1660 O.2   218  TRP218     -0.2715
     82  CB        -6.0560  -18.6960   12.9110 C.3   218  TRP218      0.0590
     83  CG        -6.5750  -19.5430   14.0470 C.ar  218  TRP218      0.0006
     84  CD1       -7.1240  -19.0970   15.2120 C.ar  218  TRP218      0.0946
     85  CD2       -6.4360  -20.9710   14.1890 C.ar  218  TRP218      0.0152
     86  NE1       -7.3910  -20.1600   16.0500 N.ar  218  TRP218     -0.2442
     87  CE2       -6.9720  -21.3210   15.4500 C.ar  218  TRP218      0.0810
     88  CE3       -5.9550  -21.9950   13.3520 C.ar  218  TRP218      0.0012
     89  CZ2       -7.0180  -22.6470   15.9030 C.ar  218  TRP218      0.0191
     90  CZ3       -6.0070  -23.3130   13.7970 C.ar  218  TRP218      0.0001
     91  CH2       -6.5270  -23.6280   15.0600 C.ar  218  TRP218      0.0015
     92  N         -6.6420  -20.3250   10.4840 N.am  219  GLY219     -0.1940
     93  CA        -6.8860  -21.5900    9.8040 C.3   219  GLY219      0.2014
     94  C         -5.6450  -22.1370    9.1180 C.2   219  GLY219      0.2639
     95  O         -4.7210  -21.3720    8.8050 O.2   219  GLY219     -0.2714
     96  N         -5.6170  -23.4760    8.8930 N.am  220  ARG220     -0.1963
     97  CA        -4.5450  -24.1650    8.1650 C.3   220  ARG220      0.1729
     98  C         -4.9680  -24.2150    6.6840 C.2   220  ARG220      0.2617
     99  O         -5.9680  -24.8570    6.3500 O.2   220  ARG220     -0.2715
    100  CB        -4.2730  -25.5680    8.7610 C.3   220  ARG220      0.0348
    101  CG        -3.3550  -26.4780    7.9270 C.3   220  ARG220      0.0492
    102  CD        -1.8840  -26.0790    7.9170 C.3   220  ARG220      0.2205
    103  NE        -1.1240  -26.9030    6.9680 N.pl3 220  ARG220     -0.0865
    104  CZ        -0.8950  -26.5720    5.6980 C.cat 220  ARG220      0.5346
    105  NH1       -1.3270  -25.4130    5.2160 N.pl3 220  ARG220      0.1354
    106  NH2       -0.2130  -27.3900    4.9060 N.pl3 220  ARG220      0.1354
    107  N         -4.2480  -23.4680    5.8400 N.am  221  GLY221     -0.1940
    108  CA        -4.5790  -23.3020    4.4280 C.3   221  GLY221      0.2014
    109  C         -5.8930  -22.5390    4.3020 C.2   221  GLY221      0.2639
    110  O         -6.3610  -21.9420    5.2860 O.2   221  GLY221     -0.2714
    111  N         -6.5040  -22.5620    3.0990 N.am  222  CYS222     -0.1967
    112  CA        -7.8370  -21.9760    2.8330 C.3   222  CYS222      0.1712
    113  C         -8.6570  -23.0070    2.0450 C.2   222  CYS222      0.2296
    114  O         -8.1670  -23.5180    1.0320 O.2   222  CYS222     -0.2864
    115  CB        -7.7230  -20.6490    2.0910 C.3   222  CYS222      0.0983
    116  SG        -6.7520  -19.4070    2.9720 S.3   222  CYS222     -0.0798
    117  N         -9.7390  -29.0040    7.5830 N.3   227  LYS227     -0.1231
    118  CA        -9.1180  -27.8230    8.1980 C.3   227  LYS227      0.1678
    119  C        -10.0960  -26.6320    8.1800 C.2   227  LYS227      0.2434
    120  O        -10.0240  -25.7660    7.2970 O.2   227  LYS227     -0.2733
    121  CB        -7.7800  -27.4670    7.5070 C.3   227  LYS227      0.0284
    122  CG        -6.7290  -28.5870    7.4690 C.3   227  LYS227      0.0035
    123  CD        -6.1920  -28.9940    8.8540 C.3   227  LYS227      0.0206
    124  CE        -5.5750  -30.3880    8.7980 C.3   227  LYS227      0.1093
    125  NZ        -4.9350  -30.7530   10.0850 N.3   227  LYS227     -0.1314
    126  N        -11.0200  -26.5710    9.1680 N.am  228  PRO228     -0.2718
    127  CA       -12.0090  -25.4800    9.1850 C.3   228  PRO228      0.1535
    128  C        -11.4200  -24.0850    9.4360 C.2   228  PRO228      0.2599
    129  O        -10.2720  -23.9330    9.8710 O.2   228  PRO228     -0.2715
    130  CB       -12.9310  -25.8650   10.3570 C.3   228  PRO228      0.0310
    131  CG       -12.7590  -27.3590   10.5190 C.3   228  PRO228      0.0237
    132  CD       -11.2800  -27.5400   10.2570 C.3   228  PRO228      0.0939
    133  N        -12.2330  -23.0700    9.1530 N.am  229  GLY229     -0.1941
    134  CA       -11.9190  -21.6940    9.4840 C.3   229  GLY229      0.2014
    135  C        -12.0930  -21.6080   10.9880 C.2   229  GLY229      0.2639
    136  O        -12.9620  -22.3020   11.5330 O.2   229  GLY229     -0.2714
    137  N        -11.2260  -20.8470   11.6880 N.am  230  VAL230     -0.1963
    138  CA       -11.3600  -20.7240   13.1430 C.3   230  VAL230      0.1727
    139  C        -11.6690  -19.2420   13.4430 C.2   230  VAL230      0.2616
    140  O        -11.1040  -18.3330   12.8360 O.2   230  VAL230     -0.2715
    141  CB       -10.1780  -21.2980   13.9710 C.3   230  VAL230      0.0290
    142  CG1      -10.5310  -21.3810   15.4590 C.3   230  VAL230      0.0023
    143  CG2       -9.7590  -22.6810   13.4660 C.3   230  VAL230      0.0023
    144  N        -12.6390  -19.0330   14.3170 N.am  231  TYR231     -0.1974
    145  CA       -13.1910  -17.7240   14.6390 C.3   231  TYR231      0.1639
    146  C        -13.1940  -17.4830   16.1270 C.2   231  TYR231      0.2290
    147  O        -13.4580  -18.4100   16.9020 O.2   231  TYR231     -0.2864
    148  CB       -14.6530  -17.6480   14.1030 C.3   231  TYR231      0.0560
    149  CG       -14.7550  -17.8700   12.6070 C.ar  231  TYR231     -0.0198
    150  CD1      -14.8640  -16.7950   11.7290 C.ar  231  TYR231     -0.0009
    151  CD2      -14.7350  -19.1540   12.0670 C.ar  231  TYR231     -0.0009
    152  CE1      -14.9130  -16.9890   10.3510 C.ar  231  TYR231      0.0417
    153  CE2      -14.7530  -19.3580   10.6890 C.ar  231  TYR231      0.0417
    154  CZ       -14.8540  -18.2710    9.8340 C.ar  231  TYR231      0.1957
    155  OH       -14.8490  -18.4690    8.4740 O.3   231  TYR231     -0.2866
@<TRIPOS>BOND
     1    20    21    1
     2    22    23    2
     3    22    21    1
     4    13    12    1
     5    13    14    2
     6    21    24    1
     7    12    15    1
     8    12    11    1
     9    24    25    1
    10    15    16    1
    11    16    17    1
    12    17    18    1
    13    18    19    1
    14   114   113    2
    15    45    44    1
    16    45   116    1
    17    26    27    1
    18   113   112    1
    19   115   112    1
    20   115   116    1
    21    29    28    2
    22    44    41    1
    23    49    48    2
    24   112   111    1
    25    53    52    2
    26   111   109   am
    27    27    28    1
    28    27    30    1
    29    28    34   am
    30    30    31    1
    31    52    54   am
    32    52    51    1
    33    50    51    1
    34    50    47    1
    35    48    47    1
    36    48    55   am
    37    41    40    1
    38    41    42    1
    39    46    42   am
    40    46    47    1
    41    40    36   am
    42    56    55    1
    43    56    57    1
    44    37    36    2
    45    42    43    2
    46    36    35    1
    47   109   108    1
    48   109   110    2
    49   108   107    1
    50    34    35    1
    51    35    38    1
    52    57    58    2
    53    31    33   ar
    54    31    32   ar
    55   106   104    1
    56   105   104    1
    57   104   103    2
    58   107    98   am
    59    38    39    1
    60    99    98    2
    61    98    97    1
    62   103   102    1
    63   120   119    2
    64   122   121    1
    65   122   123    1
    66   121   118    1
    67   117   118    1
    68    59    60    1
    69   102   101    1
    70   101   100    1
    71    97   100    1
    72    97    96    1
    73   119   118    1
    74   119   126   am
    75   155   154    1
    76   124   123    1
    77   124   125    1
    78    95    94    2
    79    96    94   am
    80    62    61    2
    81    70    69    1
    82    94    93    1
    83   133   128   am
    84   133   134    1
    85    71    69    1
    86   126   127    1
    87   126   132    1
    88   127   128    1
    89   127   130    1
    90    60    63    1
    91    60    61    1
    92    64    63    1
    93   128   129    2
    94   134   135    1
    95    93    92    1
    96   154   152   ar
    97   154   153   ar
    98    69    66    1
    99   132   131    1
   100   152   150   ar
   101   130   131    1
   102    92    80   am
   103   153   151   ar
   104   135   136    2
   105   135   137   am
   106    80    81    2
   107    80    79    1
   108    10     8   ar
   109    10     9   ar
   110    66    67    1
   111    66    65    1
   112   137   138    1
   113   150   149   ar
   114    79    78    1
   115    79    82    1
   116   151   149   ar
   117    67    68    2
   118    67    72   am
   119     8     6   ar
   120    75    74    2
   121     9     7   ar
   122    78    74   am
   123    72    73    1
   124    74    73    1
   125   149   148    1
   126   140   139    2
   127    82    83    1
   128   138   139    1
   129   138   141    1
   130    73    76    1
   131     4     3    2
   132    88    90   ar
   133    88    85   ar
   134     6     7   ar
   135     6     5    1
   136   139   144   am
   137   143   141    1
   138    90    91   ar
   139     3     2    1
   140   141   142    1
   141    83    85   ar
   142    83    84   ar
   143   148   145    1
   144    85    87   ar
   145   144   145    1
   146     5     2    1
   147    76    77    1
   148   145   146    1
   149     2     1    1
   150    91    89   ar
   151    84    86   ar
   152    87    89   ar
   153    87    86   ar
   154   146   147    2
