@<TRIPOS>MOLECULE
tmp/4fujA00.pdb
 153 151 0 0 0
SMALL
GASTEIGER

@<TRIPOS>ATOM
      1  N         -4.6030   -9.4390   15.8690 N.3    46  HIS46      -0.1226
      2  CA        -3.4900   -9.8370   14.9910 C.3    46  HIS46       0.1752
      3  C         -3.2860   -8.9170   13.7850 C.2    46  HIS46       0.2596
      4  O         -2.2070   -8.8930   13.2150 O.2    46  HIS46      -0.2718
      5  CB        -3.5410  -11.3240   14.6090 C.3    46  HIS46       0.0759
      6  CG        -4.3330  -11.6530   13.3840 C.ar   46  HIS46       0.0818
      7  ND1       -5.4930  -12.3910   13.4670 N.ar   46  HIS46      -0.2268
      8  CD2       -4.0590  -11.4170   12.0800 C.ar   46  HIS46       0.1154
      9  CE1       -5.8940  -12.5680   12.2240 C.ar   46  HIS46       0.1986
     10  NE2       -5.0770  -11.9820   11.3580 N.ar   46  HIS46      -0.2212
     11  N         -4.3330   -8.1760   13.3990 N.am   47  CYS47      -0.1970
     12  CA        -4.3200   -7.2550   12.2650 C.3    47  CYS47       0.1712
     13  C         -3.4700   -6.0100   12.5950 C.2    47  CYS47       0.2296
     14  O         -3.0020   -5.3420   11.6770 O.2    47  CYS47      -0.2864
     15  CB        -5.7500   -6.8410   11.9120 C.3    47  CYS47       0.0983
     16  SG        -6.7820   -8.1490   11.1890 S.3    47  CYS47      -0.0798
     17  N          1.5710   -5.7070   15.0910 N.3    50  ASP50      -0.1239
     18  CA         2.8950   -5.3420   14.5940 C.3    50  ASP50       0.1674
     19  C          3.0020   -3.8830   14.1620 C.2    50  ASP50       0.2266
     20  O          4.1090   -3.3910   13.9640 O.2    50  ASP50      -0.2867
     21  CB         3.3380   -6.3050   13.4840 C.3    50  ASP50       0.1410
     22  CG         3.4210   -7.7590   13.9340 C.2    50  ASP50       0.3668
     23  OD1        3.5950   -8.0010   15.1490 O.co2  50  ASP50      -0.2456
     24  OD2        3.2300   -8.6410   13.0930 O.co2  50  ASP50      -0.2456
     25  N         -4.4200  -18.2510   17.2870 N.3    94  HIS94      -0.1241
     26  CA        -4.3550  -16.8860   17.7710 C.3    94  HIS94       0.1621
     27  C         -5.3200  -16.8510   18.9430 C.2    94  HIS94       0.2264
     28  O         -6.4310  -17.3530   18.8290 O.2    94  HIS94      -0.2867
     29  CB        -4.7460  -15.9030   16.6550 C.3    94  HIS94       0.0745
     30  CG        -3.6980  -15.8270   15.5940 C.ar   94  HIS94       0.0817
     31  ND1       -2.8960  -14.7130   15.4590 N.ar   94  HIS94      -0.2268
     32  CD2       -3.2670  -16.7810   14.7360 C.ar   94  HIS94       0.1154
     33  CE1       -2.0500  -14.9950   14.4820 C.ar   94  HIS94       0.1986
     34  NE2       -2.2200  -16.2370   14.0340 N.ar   94  HIS94      -0.2212
     35  N         -5.8140   -8.7270   -3.6610 N.3   150  TYR150     -0.1241
     36  CA        -7.1430   -8.9330   -3.0960 C.3   150  TYR150      0.1605
     37  C         -8.2010   -8.5730   -4.1330 C.2   150  TYR150      0.2264
     38  O         -7.9560   -7.6730   -4.9300 O.2   150  TYR150     -0.2867
     39  CB        -7.3530   -8.0540   -1.8550 C.3   150  TYR150      0.0534
     40  CG        -6.5720   -8.4940   -0.6380 C.ar  150  TYR150     -0.0201
     41  CD1       -6.4900   -7.6830    0.4870 C.ar  150  TYR150     -0.0009
     42  CD2       -5.8710   -9.6950   -0.6290 C.ar  150  TYR150     -0.0009
     43  CE1       -5.7540   -8.0680    1.6010 C.ar  150  TYR150      0.0417
     44  CE2       -5.1020  -10.0740    0.4680 C.ar  150  TYR150      0.0417
     45  CZ        -5.0460   -9.2550    1.5800 C.ar  150  TYR150      0.1957
     46  OH        -4.2840   -9.6030    2.6580 O.3   150  TYR150     -0.2866
     47  N        -14.3700  -20.6270    1.8940 N.3   192  ASP192     -0.1225
     48  CA       -13.7790  -20.3140    3.2020 C.3   192  ASP192      0.1805
     49  C        -13.3600  -18.8630    3.2590 C.2   192  ASP192      0.2598
     50  O        -13.3410  -18.1890    2.2360 O.2   192  ASP192     -0.2718
     51  CB       -12.4880  -21.1790    3.3810 C.3   192  ASP192      0.1424
     52  CG       -12.0160  -21.4250    4.8000 C.2   192  ASP192      0.3668
     53  OD1      -12.6980  -20.9480    5.7530 O.co2 192  ASP192     -0.2456
     54  OD2      -10.9940  -22.1360    4.9700 O.co2 192  ASP192     -0.2456
     55  N        -12.9590  -18.3990    4.4350 N.am  193  SER193     -0.1938
     56  CA       -12.3140  -17.0950    4.5590 C.3   193  SER193      0.2055
     57  C        -10.8240  -17.3510    4.2690 C.2   193  SER193      0.2643
     58  O        -10.3900  -18.5040    4.1560 O.2   193  SER193     -0.2714
     59  CB       -12.5190  -16.4840    5.9440 C.3   193  SER193      0.2130
     60  OG       -12.3360  -17.4400    6.9670 O.3   193  SER193     -0.2179
     61  N        -10.0710  -16.2850    4.0200 N.am  194  CYS194     -0.1953
     62  CA        -8.6630  -16.4310    3.7110 C.3   194  CYS194      0.1843
     63  C         -7.9200  -15.1850    4.1470 C.2   194  CYS194      0.2625
     64  O         -8.5170  -14.2740    4.7420 O.2   194  CYS194     -0.2714
     65  CB        -8.4750  -16.7120    2.2180 C.3   194  CYS194      0.0997
     66  SG        -6.8570  -17.3970    1.7920 S.3   194  CYS194     -0.0797
     67  N         -6.6160  -15.1380    3.8640 N.am  195  GLN195     -0.1963
     68  CA        -5.7970  -14.0000    4.2280 C.3   195  GLN195      0.1733
     69  C         -6.4060  -12.7320    3.6640 C.2   195  GLN195      0.2616
     70  O         -6.7620  -12.6710    2.4740 O.2   195  GLN195     -0.2715
     71  CB        -4.3550  -14.1670    3.7520 C.3   195  GLN195      0.0408
     72  CG        -3.4770  -12.9830    4.1730 C.3   195  GLN195      0.0908
     73  CD        -2.1800  -12.9420    3.4270 C.2   195  GLN195      0.2608
     74  OE1       -1.4290  -13.9200    3.4180 O.2   195  GLN195     -0.2717
     75  NE2       -1.9020  -11.7990    2.7840 N.am  195  GLN195     -0.0878
     76  N         -6.5650  -11.7620    4.5500 N.am  196  GLY196     -0.1955
     77  CA        -7.1690  -10.4750    4.2220 C.3   196  GLY196      0.1869
     78  C         -8.5890  -10.3910    4.7330 C.2   196  GLY196      0.2309
     79  O         -9.1380   -9.3020    4.8290 O.2   196  GLY196     -0.2863
     80  N         -9.3220  -11.5410    7.8050 N.3   198  SER198     -0.1217
     81  CA        -9.1890  -11.4450    9.2600 C.3   198  SER198      0.1889
     82  C         -9.8230  -10.2040    9.8090 C.2   198  SER198      0.2288
     83  O         -9.8740   -9.2040    9.1120 O.2   198  SER198     -0.2866
     84  CB        -7.7310  -11.4800    9.6790 C.3   198  SER198      0.2089
     85  OG        -7.0900  -12.6640    9.2410 O.3   198  SER198     -0.2183
     86  N        -13.2560  -13.3080   12.0840 N.3   216  VAL216     -0.1231
     87  CA       -12.2660  -14.0950   11.3210 C.3   216  VAL216      0.1692
     88  C        -10.9120  -14.0040   12.0370 C.2   216  VAL216      0.2593
     89  O        -10.4020  -12.9030   12.2550 O.2   216  VAL216     -0.2718
     90  CB       -12.1470  -13.6730    9.8410 C.3   216  VAL216      0.0266
     91  CG1      -11.1690  -14.5950    9.0910 C.3   216  VAL216      0.0020
     92  CG2      -13.5050  -13.6190    9.1390 C.3   216  VAL216      0.0020
     93  N        -10.3650  -15.1500   12.4440 N.am  217  SER217     -0.1938
     94  CA        -9.1130  -15.1640   13.1990 C.3   217  SER217      0.2055
     95  C         -7.9970  -15.9560   12.5440 C.2   217  SER217      0.2643
     96  O         -6.9650  -15.3670   12.2380 O.2   217  SER217     -0.2714
     97  CB        -9.3500  -15.6590   14.6290 C.3   217  SER217      0.2130
     98  OG        -8.1400  -15.6160   15.3720 O.3   217  SER217     -0.2179
     99  N         -8.1490  -17.2870   12.3910 N.am  218  TRP218     -0.1959
    100  CA        -7.0500  -18.1100   11.8590 C.3   218  TRP218      0.1771
    101  C         -7.5110  -19.3780   11.1770 C.2   218  TRP218      0.2620
    102  O         -8.6800  -19.7320   11.2330 O.2   218  TRP218     -0.2715
    103  CB        -5.9960  -18.4280   12.9530 C.3   218  TRP218      0.0590
    104  CG        -6.4980  -19.2410   14.1110 C.ar  218  TRP218      0.0006
    105  CD1       -7.0960  -18.7750   15.2500 C.ar  218  TRP218      0.0946
    106  CD2       -6.4020  -20.6650   14.2610 C.ar  218  TRP218      0.0152
    107  NE1       -7.3680  -19.8190   16.1030 N.ar  218  TRP218     -0.2442
    108  CE2       -6.9350  -20.9910   15.5280 C.ar  218  TRP218      0.0810
    109  CE3       -5.8720  -21.6980   13.4630 C.ar  218  TRP218      0.0012
    110  CZ2       -6.9840  -22.3130   16.0050 C.ar  218  TRP218      0.0191
    111  CZ3       -5.9230  -23.0060   13.9330 C.ar  218  TRP218      0.0001
    112  CH2       -6.4400  -23.2990   15.2010 C.ar  218  TRP218      0.0015
    113  N         -6.5900  -20.0110   10.4850 N.am  219  GLY219     -0.1954
    114  CA        -6.8440  -21.2700    9.8120 C.3   219  GLY219      0.1869
    115  C         -5.6020  -21.7880    9.1280 C.2   219  GLY219      0.2309
    116  O         -4.7190  -21.0050    8.7790 O.2   219  GLY219     -0.2863
    117  N         -4.0750  -22.7740    5.9960 N.3   221  GLY221     -0.1210
    118  CA        -4.3280  -22.5400    4.5830 C.3   221  GLY221      0.1956
    119  C         -5.7180  -21.9730    4.4310 C.2   221  GLY221      0.2612
    120  O         -6.2770  -21.4700    5.4140 O.2   221  GLY221     -0.2717
    121  N         -6.3130  -22.1030    3.2320 N.am  222  CYS222     -0.1970
    122  CA        -7.6720  -21.6060    2.9630 C.3   222  CYS222      0.1712
    123  C         -8.4550  -22.6630    2.1760 C.2   222  CYS222      0.2296
    124  O         -7.9520  -23.1740    1.1700 O.2   222  CYS222     -0.2864
    125  CB        -7.6130  -20.2860    2.2070 C.3   222  CYS222      0.0983
    126  SG        -6.6160  -19.0110    3.0210 S.3   222  CYS222     -0.0798
    127  N         -9.5410  -28.5320    7.5910 N.3   227  LYS227     -0.1231
    128  CA        -8.9140  -27.3190    8.1390 C.3   227  LYS227      0.1678
    129  C         -9.9080  -26.1710    8.1370 C.2   227  LYS227      0.2434
    130  O         -9.8410  -25.2700    7.2850 O.2   227  LYS227     -0.2733
    131  CB        -7.5850  -26.9490    7.4150 C.3   227  LYS227      0.0284
    132  CG        -6.5120  -28.0600    7.4230 C.3   227  LYS227      0.0035
    133  CD        -6.1030  -28.5190    8.8350 C.3   227  LYS227      0.0206
    134  CE        -5.2850  -29.8040    8.7710 C.3   227  LYS227      0.1093
    135  NZ        -4.7750  -30.2170   10.1110 N.3   227  LYS227     -0.1314
    136  N        -10.8650  -26.1830    9.0910 N.am  228  PRO228     -0.2718
    137  CA       -11.8680  -25.0990    9.1270 C.3   228  PRO228      0.1535
    138  C        -11.2680  -23.7200    9.4060 C.2   228  PRO228      0.2599
    139  O        -10.1530  -23.5860    9.9050 O.2   228  PRO228     -0.2715
    140  CB       -12.7910  -25.4990   10.3000 C.3   228  PRO228      0.0310
    141  CG       -12.5080  -26.9100   10.5880 C.3   228  PRO228      0.0237
    142  CD       -11.1000  -27.1720   10.1620 C.3   228  PRO228      0.0939
    143  N        -12.0320  -22.6950    9.0970 N.am  229  GLY229     -0.1941
    144  CA       -11.6810  -21.3430    9.4770 C.3   229  GLY229      0.2014
    145  C        -11.9600  -21.2760   10.9700 C.2   229  GLY229      0.2638
    146  O        -12.8780  -21.9590   11.4500 O.2   229  GLY229     -0.2714
    147  N        -11.0860  -20.5970   11.7330 N.am  230  VAL230     -0.1977
    148  CA       -11.2690  -20.4610   13.1770 C.3   230  VAL230      0.1596
    149  C        -11.6000  -18.9980   13.4900 C.2   230  VAL230      0.2287
    150  O        -11.0340  -18.0820   12.9060 O.2   230  VAL230     -0.2864
    151  CB       -10.1190  -21.0370   14.0340 C.3   230  VAL230      0.0276
    152  CG1      -10.5250  -21.1260   15.4980 C.3   230  VAL230      0.0022
    153  CG2       -9.6770  -22.4050   13.5220 C.3   230  VAL230      0.0022
@<TRIPOS>BOND
     1    38    37    2
     2    37    36    1
     3    35    36    1
     4    36    39    1
     5    39    40    1
     6    40    42   ar
     7    40    41   ar
     8    42    44   ar
     9    44    45   ar
    10    41    43   ar
    11   124   123    2
    12    45    43   ar
    13    45    46    1
    14    66    65    1
    15    66   126    1
    16    47    48    1
    17   123   122    1
    18   125   122    1
    19   125   126    1
    20    65    62    1
    21    50    49    2
    22    70    69    2
    23    75    73   am
    24   122   121    1
    25    48    49    1
    26    48    51    1
    27   121   119   am
    28    49    55   am
    29    51    52    1
    30    74    73    2
    31    73    72    1
    32    69    68    1
    33    69    76   am
    34    62    61    1
    35    62    63    1
    36    71    72    1
    37    71    68    1
    38    67    63   am
    39    67    68    1
    40    61    57   am
    41    63    64    2
    42    58    57    2
    43    77    76    1
    44    77    78    1
    45    57    56    1
    46   119   118    1
    47   119   120    2
    48    55    56    1
    49    56    59    1
    50   118   117    1
    51    78    79    2
    52    52    54   ar
    53    52    53   ar
    54    59    60    1
    55   130   129    2
    56   131   132    1
    57   131   128    1
    58   132   133    1
    59   127   128    1
    60    80    81    1
    61   129   128    1
    62   129   136   am
    63   134   133    1
    64   134   135    1
    65   116   115    2
    66    91    90    1
    67   136   137    1
    68   136   142    1
    69   143   138   am
    70   143   144    1
    71    83    82    2
    72   137   138    1
    73   137   140    1
    74   115   114    1
    75    92    90    1
    76    85    84    1
    77    81    84    1
    78    81    82    1
    79   138   139    2
    80   144   145    1
    81   114   113    1
    82    90    87    1
    83   142   141    1
    84   140   141    1
    85   113   101   am
    86   145   146    2
    87   145   147   am
    88   101   102    2
    89   101   100    1
    90    16    15    1
    91    87    88    1
    92    87    86    1
    93    10     8   ar
    94    10     9   ar
    95    14    13    2
    96   147   148    1
    97   100    99    1
    98   100   103    1
    99    15    12    1
   100    88    89    2
   101    88    93   am
   102     8     6   ar
   103     9     7   ar
   104    96    95    2
   105    12    13    1
   106    12    11    1
   107    99    95   am
   108    93    94    1
   109    95    94    1
   110   150   149    2
   111   103   104    1
   112    24    22   ar
   113   148   149    1
   114   148   151    1
   115    94    97    1
   116     4     3    2
   117     6     7   ar
   118     6     5    1
   119    11     3   am
   120   109   111   ar
   121   109   106   ar
   122    21    22    1
   123    21    18    1
   124   153   151    1
   125     3     2    1
   126   111   112   ar
   127    22    23   ar
   128    20    19    2
   129    34    33   ar
   130    34    32   ar
   131   151   152    1
   132   104   106   ar
   133   104   105   ar
   134    19    18    1
   135   106   108   ar
   136    33    31   ar
   137    18    17    1
   138     5     2    1
   139    97    98    1
   140    32    30   ar
   141     2     1    1
   142   112   110   ar
   143   105   107   ar
   144    31    30   ar
   145   108   110   ar
   146   108   107   ar
   147    30    29    1
   148    29    26    1
   149    25    26    1
   150    26    27    1
   151    28    27    2
