@<TRIPOS>MOLECULE
tmp/4fulA00.pdb
 206 197 0 0 0
SMALL
GASTEIGER

@<TRIPOS>ATOM
      1  N         52.1480   13.6920   41.7790 N.3   557  LYS557     -0.1245
      2  CA        51.6110   15.0110   42.1300 C.3   557  LYS557      0.1561
      3  C         50.0610   15.1000   42.0740 C.2   557  LYS557      0.2260
      4  O         49.3790   14.1220   41.7270 O.2   557  LYS557     -0.2867
      5  CB        52.2950   16.1210   41.3080 C.3   557  LYS557      0.0271
      6  CG        52.0430   16.0360   39.8040 C.3   557  LYS557      0.0035
      7  CD        53.2470   16.5040   38.9990 C.3   557  LYS557      0.0206
      8  CE        53.0850   16.2900   37.5080 C.3   557  LYS557      0.1093
      9  NZ        51.9850   17.1120   36.9210 N.3   557  LYS557     -0.1314
     10  N         47.1460   17.3090   40.3740 N.3   559  MET559     -0.1230
     11  CA        46.9420   18.1850   39.2150 C.3   559  MET559      0.1702
     12  C         46.0040   19.3360   39.5280 C.2   559  MET559      0.2592
     13  O         45.0110   19.1550   40.2330 O.2   559  MET559     -0.2718
     14  CB        46.4300   17.3960   37.9920 C.3   559  MET559      0.0401
     15  CG        47.3870   16.3140   37.5200 C.3   559  MET559      0.0596
     16  SD        46.6260   15.1240   36.3840 S.3   559  MET559     -0.1393
     17  CE        46.9350   15.8890   34.8800 C.3   559  MET559      0.0692
     18  N         46.3200   20.5190   38.9870 N.am  560  ALA560     -0.1966
     19  CA        45.4890   21.7000   39.1670 C.3   560  ALA560      0.1728
     20  C         44.3480   21.6790   38.1490 C.2   560  ALA560      0.2616
     21  O         44.5410   21.9630   36.9640 O.2   560  ALA560     -0.2715
     22  CB        46.3240   22.9710   39.0610 C.3   560  ALA560      0.0334
     23  N         43.1740   21.2460   38.6300 N.am  561  SER561     -0.1950
     24  CA        41.8990   21.1000   37.9210 C.3   561  SER561      0.1924
     25  C         40.8000   21.1400   39.0090 C.2   561  SER561      0.2314
     26  O         41.1470   20.9580   40.1720 O.2   561  SER561     -0.2863
     27  CB        41.8810   19.7670   37.1710 C.3   561  SER561      0.2116
     28  OG        40.5710   19.3670   36.7960 O.3   561  SER561     -0.2180
     29  N         42.7630   15.2700   40.2080 N.3   565  PRO565     -0.2116
     30  CA        43.3400   13.9630   39.8940 C.3   565  PRO565      0.1372
     31  C         44.7700   13.7820   40.3320 C.2   565  PRO565      0.2244
     32  O         45.5680   14.7140   40.2910 O.2   565  PRO565     -0.2868
     33  CB        43.1870   13.8590   38.3720 C.3   565  PRO565      0.0268
     34  CG        43.1440   15.2570   37.9040 C.3   565  PRO565      0.0207
     35  CD        42.3880   15.9770   38.9630 C.3   565  PRO565      0.0892
     36  N         48.4180   12.4390   39.7400 N.3   567  TRP567     -0.1241
     37  CA        49.3430   12.1090   38.6510 C.3   567  TRP567      0.1605
     38  C         50.3080   11.1110   39.2960 C.2   567  TRP567      0.2264
     39  O         51.0800   11.4990   40.1680 O.2   567  TRP567     -0.2867
     40  CB        50.1050   13.3560   38.1830 C.3   567  TRP567      0.0550
     41  CG        51.1930   13.1120   37.1760 C.ar  567  TRP567      0.0003
     42  CD1       52.4310   12.5750   37.4040 C.ar  567  TRP567      0.0946
     43  CD2       51.1690   13.4920   35.7950 C.ar  567  TRP567      0.0152
     44  NE1       53.1870   12.6190   36.2530 N.ar  567  TRP567     -0.2442
     45  CE2       52.4270   13.1530   35.2430 C.ar  567  TRP567      0.0810
     46  CE3       50.1970   14.0710   34.9600 C.ar  567  TRP567      0.0012
     47  CZ2       52.7310   13.3670   33.8970 C.ar  567  TRP567      0.0191
     48  CZ3       50.5150   14.3150   33.6250 C.ar  567  TRP567      0.0001
     49  CH2       51.7710   13.9800   33.1140 C.ar  567  TRP567      0.0015
     50  N         46.8130    8.3400   35.8230 N.3   586  ILE586     -0.1245
     51  CA        45.9920    9.3300   36.4950 C.3   586  ILE586      0.1561
     52  C         44.8830    8.5920   37.2370 C.2   586  ILE586      0.2260
     53  O         44.2400    7.7110   36.6670 O.2   586  ILE586     -0.2867
     54  CB        45.4270   10.3730   35.4990 C.3   586  ILE586      0.0252
     55  CG1       46.4660   11.4780   35.2170 C.3   586  ILE586      0.0019
     56  CG2       44.0830   10.9770   35.9940 C.3   586  ILE586      0.0019
     57  CD1       46.2370   12.2610   33.9290 C.3   586  ILE586      0.0001
     58  N         41.4210    9.5110   39.2300 N.3   588  LYS588     -0.1245
     59  CA        40.4960   10.6290   39.3140 C.3   588  LYS588      0.1561
     60  C         39.1460   10.3030   39.9230 C.2   588  LYS588      0.2260
     61  O         38.6080    9.2410   39.6580 O.2   588  LYS588     -0.2867
     62  CB        40.3000   11.1840   37.8730 C.3   588  LYS588      0.0271
     63  CG        39.6110   12.5460   37.7750 C.3   588  LYS588      0.0035
     64  CD        39.4980   12.9980   36.3310 C.3   588  LYS588      0.0206
     65  CE        39.5250   14.5040   36.2390 C.3   588  LYS588      0.1093
     66  NZ        39.3540   14.9760   34.8390 N.3   588  LYS588     -0.1314
     67  N         33.1740    7.7840   29.1790 N.3   596  ASP596     -0.1239
     68  CA        34.4660    7.8610   28.4970 C.3   596  ASP596      0.1674
     69  C         34.8500    6.4920   27.9250 C.2   596  ASP596      0.2266
     70  O         35.2170    6.4180   26.7580 O.2   596  ASP596     -0.2867
     71  CB        35.5410    8.3650   29.4620 C.3   596  ASP596      0.1410
     72  CG        35.3220    9.7920   29.9070 C.2   596  ASP596      0.3668
     73  OD1       34.4720   10.0130   30.8240 O.co2 596  ASP596     -0.2456
     74  OD2       35.9960   10.6900   29.3540 O.co2 596  ASP596     -0.2456
     75  N         43.2270    6.7560   24.3800 N.3   622  TYR622     -0.1241
     76  CA        44.0200    6.4270   25.5710 C.3   622  TYR622      0.1605
     77  C         43.3320    5.4520   26.5360 C.2   622  TYR622      0.2264
     78  O         42.1090    5.4520   26.6410 O.2   622  TYR622     -0.2867
     79  CB        44.4640    7.7300   26.2930 C.3   622  TYR622      0.0534
     80  CG        43.3060    8.6440   26.6330 C.ar  622  TYR622     -0.0201
     81  CD1       42.5740    8.4680   27.8080 C.ar  622  TYR622     -0.0009
     82  CD2       42.9070    9.6580   25.7580 C.ar  622  TYR622     -0.0009
     83  CE1       41.4540    9.2450   28.0890 C.ar  622  TYR622      0.0417
     84  CE2       41.8000   10.4620   26.0410 C.ar  622  TYR622      0.0417
     85  CZ        41.0870   10.2580   27.2180 C.ar  622  TYR622      0.1957
     86  OH        40.0050   11.0310   27.5440 O.3   622  TYR622     -0.2866
     87  N         43.1920    6.6840   34.2830 N.3   634  ILE634     -0.1231
     88  CA        43.4540    7.2020   32.9320 C.3   634  ILE634      0.1692
     89  C         44.9240    7.0170   32.5680 C.2   634  ILE634      0.2592
     90  O         45.8110    7.2670   33.3930 O.2   634  ILE634     -0.2718
     91  CB        42.9560    8.6780   32.7440 C.3   634  ILE634      0.0266
     92  CG1       41.4380    8.8250   33.0440 C.3   634  ILE634      0.0019
     93  CG2       43.2850    9.2320   31.3400 C.3   634  ILE634      0.0020
     94  CD1       40.9990   10.2410   33.3730 C.3   634  ILE634      0.0001
     95  N         45.1810    6.5580   31.3300 N.am  635  GLU635     -0.1966
     96  CA        46.5460    6.3910   30.8350 C.3   635  GLU635      0.1733
     97  C         47.1420    7.7750   30.5600 C.2   635  GLU635      0.2616
     98  O         46.5140    8.5900   29.8660 O.2   635  GLU635     -0.2715
     99  CB        46.5500    5.5700   29.5570 C.3   635  GLU635      0.0429
    100  CG        47.9010    5.5070   28.8650 C.3   635  GLU635      0.1163
    101  CD        47.9460    4.8070   27.5200 C.2   635  GLU635      0.3649
    102  OE1       49.0680    4.6620   26.9850 O.co2 635  GLU635     -0.2457
    103  OE2       46.8790    4.4070   26.9950 O.co2 635  GLU635     -0.2457
    104  N         48.3420    8.0450   31.1210 N.am  636  ILE636     -0.1963
    105  CA        49.0050    9.3090   30.8340 C.3   636  ILE636      0.1727
    106  C         49.7420    9.1650   29.4920 C.2   636  ILE636      0.2616
    107  O         50.6420    8.3430   29.3450 O.2   636  ILE636     -0.2715
    108  CB        49.9820    9.7790   31.9590 C.3   636  ILE636      0.0290
    109  CG1       49.2280   10.1660   33.2490 C.3   636  ILE636      0.0022
    110  CG2       50.8750   10.9390   31.4540 C.3   636  ILE636      0.0023
    111  CD1       50.1120   10.3040   34.5160 C.3   636  ILE636      0.0001
    112  N         49.3570    9.9680   28.5290 N.am  637  VAL637     -0.1963
    113  CA        50.0790   10.0540   27.2700 C.3   637  VAL637      0.1727
    114  C         51.0750   11.1730   27.6410 C.2   637  VAL637      0.2616
    115  O         50.7010   12.3450   27.6860 O.2   637  VAL637     -0.2715
    116  CB        49.1670   10.4210   26.0590 C.3   637  VAL637      0.0290
    117  CG1       50.0010   10.7790   24.8170 C.3   637  VAL637      0.0023
    118  CG2       48.1630    9.3090   25.7670 C.3   637  VAL637      0.0023
    119  N         52.2750   10.7780   28.0820 N.am  638  LYS638     -0.1963
    120  CA        53.3380   11.6940   28.5300 C.3   638  LYS638      0.1728
    121  C         53.7520   12.6270   27.3760 C.2   638  LYS638      0.2616
    122  O         53.5980   12.2600   26.1960 O.2   638  LYS638     -0.2715
    123  CB        54.5560   10.8820   28.9930 C.3   638  LYS638      0.0311
    124  CG        55.0450   11.2000   30.3960 C.3   638  LYS638      0.0038
    125  CD        54.5750   10.1530   31.4230 C.3   638  LYS638      0.0206
    126  CE        55.3710    8.8670   31.4650 C.3   638  LYS638      0.1093
    127  NZ        56.3670    8.8700   32.5630 N.3   638  LYS638     -0.1314
    128  N         54.2710   13.8300   27.7110 N.am  639  ASP639     -0.1957
    129  CA        54.7270   14.7960   26.6940 C.3   639  ASP639      0.1840
    130  C         53.6050   15.2340   25.7450 C.2   639  ASP639      0.2622
    131  O         53.7010   15.1830   24.5200 O.2   639  ASP639     -0.2715
    132  CB        56.0300   14.3380   25.9850 C.3   639  ASP639      0.1450
    133  CG        57.2540   14.5110   26.8710 C.2   639  ASP639      0.3671
    134  OD1       57.6890   15.6850   27.0720 O.co2 639  ASP639     -0.2456
    135  OD2       57.7540   13.4830   27.4050 O.co2 639  ASP639     -0.2456
    136  N         52.5300   15.6500   26.3740 N.am  640  ALA640     -0.1963
    137  CA        51.3020   16.1550   25.7860 C.3   640  ALA640      0.1728
    138  C         50.8390   17.2880   26.6810 C.2   640  ALA640      0.2617
    139  O         51.1950   17.3520   27.8650 O.2   640  ALA640     -0.2715
    140  CB        50.2220   15.0630   25.7490 C.3   640  ALA640      0.0334
    141  N         50.0720   18.1920   26.1130 N.am  641  THR641     -0.1937
    142  CA        49.5200   19.2980   26.8610 C.3   641  THR641      0.2028
    143  C         48.2320   19.7270   26.2150 C.2   641  THR641      0.2642
    144  O         47.9660   19.4030   25.0550 O.2   641  THR641     -0.2714
    145  CB        50.5400   20.4320   27.1070 C.3   641  THR641      0.1808
    146  OG1       49.9870   21.3340   28.0680 O.3   641  THR641     -0.2208
    147  CG2       50.8710   21.1900   25.8560 C.3   641  THR641      0.0379
    148  N         47.4350   20.4320   26.9920 N.am  642  THR642     -0.1950
    149  CA        46.1580   21.0090   26.6280 C.3   642  THR642      0.1897
    150  C         46.3410   22.1650   25.6200 C.2   642  THR642      0.2313
    151  O         47.2780   22.9600   25.7600 O.2   642  THR642     -0.2863
    152  CB        45.5530   21.4820   27.9540 C.3   642  THR642      0.1794
    153  OG1       45.1000   20.3340   28.6820 O.3   642  THR642     -0.2208
    154  CG2       44.4380   22.4650   27.7790 C.3   642  THR642      0.0378
    155  N         46.3360   25.4320   27.5470 N.3   645  LYS645     -0.1245
    156  CA        47.6190   25.6560   28.2130 C.3   645  LYS645      0.1561
    157  C         48.6690   26.2980   27.3100 C.2   645  LYS645      0.2260
    158  O         49.4190   27.1690   27.7770 O.2   645  LYS645     -0.2867
    159  CB        48.1470   24.3940   28.8730 C.3   645  LYS645      0.0271
    160  CG        47.6770   24.2630   30.3100 C.3   645  LYS645      0.0035
    161  CD        48.0520   22.9140   30.9220 C.3   645  LYS645      0.0206
    162  CE        47.0660   22.5130   31.9900 C.3   645  LYS645      0.1093
    163  NZ        45.7180   22.2150   31.4220 N.3   645  LYS645     -0.1314
    164  N         40.1870   23.4260   26.5860 N.3   705  ASP705     -0.1239
    165  CA        40.8720   22.8760   27.7610 C.3   705  ASP705      0.1674
    166  C         40.7430   21.3230   27.7450 C.2   705  ASP705      0.2266
    167  O         41.5850   20.6330   28.3190 O.2   705  ASP705     -0.2867
    168  CB        40.3310   23.4840   29.0740 C.3   705  ASP705      0.1410
    169  CG        41.2410   23.4650   30.2930 C.2   705  ASP705      0.3668
    170  OD1       42.4670   23.6990   30.1300 O.co2 705  ASP705     -0.2456
    171  OD2       40.7120   23.3300   31.4300 O.co2 705  ASP705     -0.2456
    172  N         43.8120   17.9800   23.8020 N.3   708  MET708     -0.1245
    173  CA        45.2350   17.8520   24.0560 C.3   708  MET708      0.1570
    174  C         46.0530   17.6150   22.7840 C.2   708  MET708      0.2261
    175  O         45.5010   17.2920   21.7290 O.2   708  MET708     -0.2867
    176  CB        45.4880   16.7510   25.0910 C.3   708  MET708      0.0387
    177  CG        44.8260   17.0180   26.4260 C.3   708  MET708      0.0595
    178  SD        45.6050   16.0390   27.7060 S.3   708  MET708     -0.1393
    179  CE        47.0300   17.0090   28.0610 C.3   708  MET708      0.0692
    180  N         44.3510   15.1010   20.2540 N.3   716  PHE716     -0.1241
    181  CA        43.4550   14.1360   20.8840 C.3   716  PHE716      0.1605
    182  C         42.5320   14.7820   21.9210 C.2   716  PHE716      0.2264
    183  O         42.9960   15.5200   22.8150 O.2   716  PHE716     -0.2867
    184  CB        44.1920   12.8830   21.4160 C.3   716  PHE716      0.0534
    185  CG        45.0480   13.0730   22.6440 C.ar  716  PHE716     -0.0203
    186  CD1       46.3370   13.5840   22.5410 C.ar  716  PHE716     -0.0042
    187  CD2       44.5710   12.7260   23.9050 C.ar  716  PHE716     -0.0042
    188  CE1       47.1330   13.7670   23.6810 C.ar  716  PHE716     -0.0003
    189  CE2       45.3740   12.8860   25.0470 C.ar  716  PHE716     -0.0003
    190  CZ        46.6540   13.3980   24.9260 C.ar  716  PHE716     -0.0000
    191  N         39.7730   14.7610   25.0920 N.3   718  ILE718     -0.1231
    192  CA        39.7540   14.0720   26.4010 C.3   718  ILE718      0.1692
    193  C         38.4330   14.3790   27.0990 C.2   718  ILE718      0.2592
    194  O         37.6010   15.0740   26.5180 O.2   718  ILE718     -0.2718
    195  CB        40.9930   14.4610   27.2980 C.3   718  ILE718      0.0266
    196  CG1       41.0100   15.9620   27.6630 C.3   718  ILE718      0.0019
    197  CG2       42.3390   13.9850   26.7000 C.3   718  ILE718      0.0020
    198  CD1       41.8510   16.3250   28.9340 C.3   718  ILE718      0.0001
    199  N         38.2500   13.8730   28.3420 N.am  719  ASP719     -0.1974
    200  CA        37.0820   14.1060   29.2180 C.3   719  ASP719      0.1709
    201  C         35.7140   14.0540   28.5160 C.2   719  ASP719      0.2293
    202  O         35.0830   15.0850   28.3270 O.2   719  ASP719     -0.2864
    203  CB        37.2790   15.4160   30.0100 C.3   719  ASP719      0.1436
    204  CG        36.6700   15.4200   31.3900 C.2   719  ASP719      0.3671
    205  OD1       35.4310   15.2210   31.5010 O.co2 719  ASP719     -0.2456
    206  OD2       37.4110   15.6940   32.3580 O.co2 719  ASP719     -0.2456
@<TRIPOS>BOND
     1   180   181    1
     2   181   184    1
     3   181   182    1
     4   184   185    1
     5   175   174    2
     6   182   183    2
     7   186   185   ar
     8   186   188   ar
     9   185   187   ar
    10   174   173    1
    11   188   190   ar
    12   172   173    1
    13   187   189   ar
    14   173   176    1
    15    75    76    1
    16   131   130    2
    17   117   116    1
    18   190   189   ar
    19   144   143    2
    20   176   177    1
    21   191   192    1
    22    76    79    1
    23    76    77    1
    24   150   151    2
    25   150   149    1
    26   130   136   am
    27   130   129    1
    28   140   137    1
    29    82    84   ar
    30    82    80   ar
    31   118   116    1
    32   137   136    1
    33   137   138    1
    34   147   145    1
    35   132   129    1
    36   132   133    1
    37    84    85   ar
    38   116   113    1
    39   141   138   am
    40   141   142    1
    41   122   121    2
    42   143   142    1
    43   143   148   am
    44    79    80    1
    45   192   193    1
    46   192   195    1
    47   177   178    1
    48   194   193    2
    49    77    78    2
    50   164   165    1
    51   149   148    1
    52   149   152    1
    53    80    81   ar
    54   138   139    2
    55   129   128    1
    56   197   195    1
    57    70    69    2
    58   142   145    1
    59   133   134   ar
    60   133   135   ar
    61   102   101   ar
    62   103   101   ar
    63   193   199   am
    64   145   146    1
    65    85    86    1
    66    85    83   ar
    67   113   114    1
    68   113   112    1
    69   195   196    1
    70   157   158    2
    71   157   156    1
    72   121   128   am
    73   121   120    1
    74   101   100    1
    75   155   156    1
    76   114   115    2
    77   114   119   am
    78   196   198    1
    79   178   179    1
    80   166   165    1
    81   166   167    2
    82   165   168    1
    83   154   152    1
    84    81    83   ar
    85    69    68    1
    86   152   153    1
    87   119   120    1
    88   156   159    1
    89   202   201    2
    90   199   200    1
    91    68    67    1
    92    68    71    1
    93   201   200    1
    94   112   106   am
    95   120   123    1
    96   100    99    1
    97   159   160    1
    98   123   124    1
    99   168   169    1
   100   200   203    1
   101   107   106    2
   102    74    72   ar
   103    71    72    1
   104   106   105    1
   105    99    96    1
   106    98    97    2
   107    72    73   ar
   108   203   204    1
   109   170   169   ar
   110   169   171   ar
   111   160   161    1
   112   124   125    1
   113    97    96    1
   114    97   104   am
   115   105   104    1
   116   105   108    1
   117    96    95    1
   118   161   162    1
   119    95    89   am
   120    93    91    1
   121   204   205   ar
   122   204   206   ar
   123   163   162    1
   124   125   126    1
   125   110   108    1
   126   126   127    1
   127   108   109    1
   128    89    88    1
   129    89    90    2
   130    91    88    1
   131    91    92    1
   132    88    87    1
   133    92    94    1
   134    49    48   ar
   135    49    47   ar
   136   109   111    1
   137    48    46   ar
   138    47    45   ar
   139    57    55    1
   140    66    65    1
   141    17    16    1
   142    46    43   ar
   143    55    54    1
   144    45    43   ar
   145    45    44   ar
   146    54    56    1
   147    54    51    1
   148    43    41   ar
   149    50    51    1
   150    65    64    1
   151    44    42   ar
   152    64    63    1
   153    16    15    1
   154    51    52    1
   155    53    52    2
   156    28    27    1
   157     9     8    1
   158    21    20    2
   159    27    24    1
   160    41    42   ar
   161    41    40    1
   162     8     7    1
   163    15    14    1
   164    63    62    1
   165    62    59    1
   166    34    33    1
   167    34    35    1
   168    24    23    1
   169    24    25    1
   170    14    11    1
   171    20    23   am
   172    20    19    1
   173    40    37    1
   174    33    30    1
   175    37    38    1
   176    37    36    1
   177    35    29    1
   178    18    19    1
   179    18    12   am
   180     7     6    1
   181    25    26    2
   182    22    19    1
   183    11    12    1
   184    11    10    1
   185    58    59    1
   186    38    39    2
   187    59    60    1
   188    12    13    2
   189    61    60    2
   190     6     5    1
   191    30    29    1
   192    30    31    1
   193    32    31    2
   194     5     2    1
   195     4     3    2
   196     1     2    1
   197     3     2    1
