@<TRIPOS>MOLECULE
tmp/4fusA00.pdb
 175 174 0 0 0
SMALL
GASTEIGER

@<TRIPOS>ATOM
      1  N         34.5840   27.0460   40.8660 N.3    32  HIS32      -0.1241
      2  CA        35.7490   27.3460   41.6680 C.3    32  HIS32       0.1621
      3  C         36.8870   26.4410   41.3310 C.2    32  HIS32       0.2264
      4  O         38.0270   26.8680   41.3350 O.2    32  HIS32      -0.2867
      5  CB        35.4440   27.2270   43.1100 C.3    32  HIS32       0.0745
      6  CG        36.6680   27.4740   44.0510 C.ar   32  HIS32       0.0817
      7  ND1       37.2710   28.7250   44.2110 N.ar   32  HIS32      -0.2268
      8  CD2       37.2980   26.6100   44.9680 C.ar   32  HIS32       0.1154
      9  CE1       38.2600   28.6130   45.1120 C.ar   32  HIS32       0.1986
     10  NE2       38.2730   27.3040   45.5900 N.ar   32  HIS32      -0.2212
     11  N         37.2820   26.4290   51.5820 N.3    40  GLU40      -0.1231
     12  CA        38.2900   27.4810   51.8590 C.3    40  GLU40       0.1699
     13  C         37.7790   28.9150   51.8620 C.2    40  GLU40       0.2592
     14  O         38.1350   29.6990   52.7500 O.2    40  GLU40      -0.2718
     15  CB        39.5210   27.2820   50.9870 C.3    40  GLU40       0.0402
     16  CG        39.2010   27.2430   49.4440 C.3    40  GLU40       0.1161
     17  CD        40.3540   26.6940   48.6140 C.2    40  GLU40       0.3649
     18  OE1       40.3890   26.9420   47.3760 O.co2  40  GLU40      -0.2457
     19  OE2       41.1780   25.8730   49.1380 O.co2  40  GLU40      -0.2457
     20  N         36.9600   29.2580   50.8940 N.am   41  ALA41      -0.1966
     21  CA        36.2820   30.5290   50.8600 C.3    41  ALA41       0.1713
     22  C         34.9410   30.2000   50.3030 C.2    41  ALA41       0.2458
     23  O         33.9720   30.3160   51.0710 O.2    41  ALA41      -0.2730
     24  CB        37.0530   31.6420   50.0720 C.3    41  ALA41       0.0333
     25  N         34.8200   29.7280   49.0090 N.am   42  PRO42      -0.2727
     26  CA        33.5900   28.9280   48.9140 C.3    42  PRO42       0.1402
     27  C         33.6840   27.6300   49.7520 C.2    42  PRO42       0.2269
     28  O         34.7580   27.3000   50.2390 O.2    42  PRO42      -0.2865
     29  CB        33.5160   28.5010   47.4490 C.3    42  PRO42       0.0296
     30  CG        34.9420   28.5170   46.9700 C.3    42  PRO42       0.0237
     31  CD        35.7520   29.4410   47.9010 C.3    42  PRO42       0.0939
     32  N         32.6600   31.9980   42.0200 N.3    49  THR49      -0.1218
     33  CA        32.9120   33.2660   42.7330 C.3    49  THR49       0.1862
     34  C         33.1180   34.3330   41.6980 C.2    49  THR49       0.2287
     35  O         33.4930   34.0640   40.5250 O.2    49  THR49      -0.2866
     36  CB        34.1780   33.2390   43.6030 C.3    49  THR49       0.1770
     37  OG1       35.3310   33.0030   42.7320 O.3    49  THR49      -0.2211
     38  CG2       34.0740   32.1680   44.7180 C.3    49  THR49       0.0375
     39  N         35.5640   36.2640   41.8780 N.3    51  GLU51      -0.1245
     40  CA        36.9770   36.0430   41.6230 C.3    51  GLU51       0.1567
     41  C         37.2070   35.1300   40.3630 C.2    51  GLU51       0.2260
     42  O         37.9920   35.4530   39.4540 O.2    51  GLU51      -0.2867
     43  CB        37.5900   35.4020   42.8700 C.3    51  GLU51       0.0388
     44  CG        38.9910   34.8440   42.7180 C.3    51  GLU51       0.1160
     45  CD        39.3910   34.1070   43.9740 C.2    51  GLU51       0.3649
     46  OE1       39.1150   32.8880   44.0350 O.co2  51  GLU51      -0.2457
     47  OE2       39.8200   34.7450   45.0090 O.co2  51  GLU51      -0.2457
     48  N         36.3980   45.3870   52.2570 N.3   298  TRP298     -0.1241
     49  CA        36.0620   43.9530   52.1640 C.3   298  TRP298      0.1605
     50  C         34.8110   43.6130   51.3610 C.2   298  TRP298      0.2264
     51  O         34.7540   42.5820   50.6620 O.2   298  TRP298     -0.2867
     52  CB        36.0360   43.3200   53.5580 C.3   298  TRP298      0.0550
     53  CG        36.1410   41.8550   53.4970 C.ar  298  TRP298      0.0003
     54  CD1       35.1420   40.9010   53.6950 C.ar  298  TRP298      0.0946
     55  CD2       37.3410   41.1050   53.1250 C.ar  298  TRP298      0.0152
     56  NE1       35.6330   39.6140   53.4870 N.ar  298  TRP298     -0.2442
     57  CE2       36.9820   39.6820   53.1720 C.ar  298  TRP298      0.0810
     58  CE3       38.6570   41.4570   52.8680 C.ar  298  TRP298      0.0012
     59  CZ2       37.9350   38.6660   52.9030 C.ar  298  TRP298      0.0191
     60  CZ3       39.5920   40.4480   52.6270 C.ar  298  TRP298      0.0001
     61  CH2       39.2240   39.0850   52.6090 C.ar  298  TRP298      0.0015
     62  N         38.7060   38.8040   59.0910 N.3   406  TYR406     -0.1241
     63  CA        38.3560   37.4450   59.6500 C.3   406  TYR406      0.1605
     64  C         39.6730   37.2460   60.4420 C.2   406  TYR406      0.2264
     65  O         40.7920   37.2480   59.9830 O.2   406  TYR406     -0.2867
     66  CB        37.9170   36.4380   58.5400 C.3   406  TYR406      0.0534
     67  CG        38.9460   36.1970   57.4630 C.ar  406  TYR406     -0.0201
     68  CD1       39.8890   35.2010   57.6100 C.ar  406  TYR406     -0.0009
     69  CD2       38.9570   36.9430   56.2890 C.ar  406  TYR406     -0.0009
     70  CE1       40.8400   34.9490   56.6310 C.ar  406  TYR406      0.0417
     71  CE2       39.9040   36.7110   55.2940 C.ar  406  TYR406      0.0417
     72  CZ        40.8610   35.7210   55.4670 C.ar  406  TYR406      0.1957
     73  OH        41.8300   35.6380   54.4760 O.3   406  TYR406     -0.2866
     74  N         41.0480   31.2900   59.7250 N.3   409  PRO409     -0.2116
     75  CA        42.3260   31.7140   60.2890 C.3   409  PRO409      0.1372
     76  C         42.5340   33.2400   60.0970 C.2   409  PRO409      0.2244
     77  O         41.7410   33.9110   59.4250 O.2   409  PRO409     -0.2868
     78  CB        43.3630   30.9580   59.4230 C.3   409  PRO409      0.0268
     79  CG        42.6570   30.7260   58.0980 C.3   409  PRO409      0.0207
     80  CD        41.1790   30.9360   58.2840 C.3   409  PRO409      0.0892
     81  N         47.9120   34.5430   55.5300 N.3   414  TRP414     -0.1241
     82  CA        48.0460   33.9220   54.1960 C.3   414  TRP414      0.1605
     83  C         49.0050   34.7130   53.3000 C.2   414  TRP414      0.2264
     84  O         48.7850   35.8960   52.9810 O.2   414  TRP414     -0.2867
     85  CB        46.6990   33.8280   53.5280 C.3   414  TRP414      0.0550
     86  CG        46.6660   33.0530   52.2240 C.ar  414  TRP414      0.0003
     87  CD1       47.1510   31.7810   52.0140 C.ar  414  TRP414      0.0946
     88  CD2       46.0530   33.4420   50.9270 C.ar  414  TRP414      0.0152
     89  NE1       46.9290   31.4090   50.7120 N.ar  414  TRP414     -0.2442
     90  CE2       46.2170   32.3420   50.0510 C.ar  414  TRP414      0.0810
     91  CE3       45.3650   34.5310   50.4840 C.ar  414  TRP414      0.0012
     92  CZ2       45.7520   32.3570   48.7170 C.ar  414  TRP414      0.0191
     93  CZ3       44.9220   34.5590   49.1650 C.ar  414  TRP414      0.0001
     94  CH2       45.1160   33.5090   48.2960 C.ar  414  TRP414      0.0015
     95  N         47.8650   36.7930   49.6140 N.3   417  TRP417     -0.1241
     96  CA        47.5870   38.2570   49.4690 C.3   417  TRP417      0.1605
     97  C         48.7810   39.0580   49.0410 C.2   417  TRP417      0.2264
     98  O         48.6430   40.0310   48.2910 O.2   417  TRP417     -0.2867
     99  CB        47.1410   38.8430   50.7780 C.3   417  TRP417      0.0550
    100  CG        45.8670   38.2580   51.3750 C.ar  417  TRP417      0.0003
    101  CD1       45.7480   37.6460   52.6000 C.ar  417  TRP417      0.0946
    102  CD2       44.5670   38.1580   50.7410 C.ar  417  TRP417      0.0152
    103  NE1       44.4640   37.2110   52.8100 N.ar  417  TRP417     -0.2442
    104  CE2       43.6940   37.5070   51.6960 C.ar  417  TRP417      0.0810
    105  CE3       44.0250   38.6240   49.5180 C.ar  417  TRP417      0.0012
    106  CZ2       42.3590   37.2520   51.4100 C.ar  417  TRP417      0.0191
    107  CZ3       42.6700   38.3780   49.2330 C.ar  417  TRP417      0.0001
    108  CH2       41.8500   37.7290   50.1780 C.ar  417  TRP417      0.0015
    109  N         49.0900   38.5000   45.1810 N.3   420  TRP420     -0.1241
    110  CA        48.0160   39.1050   44.4150 C.3   420  TRP420      0.1605
    111  C         48.0910   40.6380   44.3400 C.2   420  TRP420      0.2264
    112  O         47.9240   41.2670   43.2540 O.2   420  TRP420     -0.2867
    113  CB        46.6930   38.6760   44.9900 C.3   420  TRP420      0.0550
    114  CG        46.3080   37.2780   44.6770 C.ar  420  TRP420      0.0003
    115  CD1       46.9360   36.3710   43.8330 C.ar  420  TRP420      0.0946
    116  CD2       45.0790   36.6700   45.0730 C.ar  420  TRP420      0.0152
    117  NE1       46.2050   35.2140   43.7760 N.ar  420  TRP420     -0.2442
    118  CE2       45.0260   35.3900   44.4330 C.ar  420  TRP420      0.0810
    119  CE3       44.0030   37.0910   45.8440 C.ar  420  TRP420      0.0012
    120  CZ2       43.9530   34.5100   44.6490 C.ar  420  TRP420      0.0191
    121  CZ3       42.9540   36.2010   46.0790 C.ar  420  TRP420      0.0001
    122  CH2       42.9310   34.9590   45.4710 C.ar  420  TRP420      0.0015
    123  N         51.8290   25.9270   46.6060 N.3   496  ASP496     -0.1239
    124  CA        50.5850   26.5100   46.0760 C.3   496  ASP496      0.1674
    125  C         50.9220   27.1250   44.7030 C.2   496  ASP496      0.2266
    126  O         51.5030   28.1920   44.6340 O.2   496  ASP496     -0.2867
    127  CB        50.0330   27.5890   47.0060 C.3   496  ASP496      0.1410
    128  CG        48.6790   28.0960   46.5410 C.2   496  ASP496      0.3668
    129  OD1       48.5210   28.2050   45.3130 O.co2 496  ASP496     -0.2456
    130  OD2       47.8240   28.4280   47.4050 O.co2 496  ASP496     -0.2456
    131  N         48.3040   18.6530   48.3030 N.3   549  GLU549     -0.1245
    132  CA        48.2190   19.4930   49.4720 C.3   549  GLU549      0.1567
    133  C         47.5160   18.7680   50.5690 C.2   549  GLU549      0.2260
    134  O         46.6030   18.0290   50.3340 O.2   549  GLU549     -0.2867
    135  CB        47.5280   20.8160   49.1830 C.3   549  GLU549      0.0388
    136  CG        46.0740   20.7580   48.8220 C.3   549  GLU549      0.1160
    137  CD        45.5150   22.1460   48.3810 C.2   549  GLU549      0.3649
    138  OE1       45.8860   22.5930   47.2840 O.co2 549  GLU549     -0.2457
    139  OE2       44.7260   22.7500   49.1690 O.co2 549  GLU549     -0.2457
    140  N         45.2840   18.6100   53.7920 N.3   551  ARG551     -0.1245
    141  CA        44.1350   19.3290   54.3540 C.3   551  ARG551      0.1563
    142  C         43.6450   18.7210   55.6670 C.2   551  ARG551      0.2260
    143  O         42.4820   18.2260   55.8080 O.2   551  ARG551     -0.2867
    144  CB        43.0040   19.4180   53.3340 C.3   551  ARG551      0.0307
    145  CG        43.4190   20.0740   51.9920 C.3   551  ARG551      0.0489
    146  CD        43.8420   21.5360   52.1480 C.3   551  ARG551      0.2205
    147  NE        42.8350   22.4240   52.8020 N.pl3 551  ARG551     -0.0865
    148  CZ        42.0830   23.3470   52.1760 C.cat 551  ARG551      0.5346
    149  NH1       42.1720   23.5800   50.8700 N.pl3 551  ARG551      0.1354
    150  NH2       41.2100   24.0290   52.8550 N.pl3 551  ARG551      0.1354
    151  N         42.0850   24.4950   40.8120 N.3   615  ARG615     -0.1245
    152  CA        41.3100   25.6860   41.0320 C.3   615  ARG615      0.1563
    153  C         41.3430   26.5600   39.8030 C.2   615  ARG615      0.2260
    154  O         42.4320   26.7850   39.2410 O.2   615  ARG615     -0.2867
    155  CB        41.9360   26.4520   42.1520 C.3   615  ARG615      0.0307
    156  CG        41.9320   25.7430   43.4690 C.3   615  ARG615      0.0489
    157  CD        42.6900   26.5480   44.4990 C.3   615  ARG615      0.2205
    158  NE        42.5760   25.9950   45.8350 N.pl3 615  ARG615     -0.0865
    159  CZ        43.3610   25.0530   46.3570 C.cat 615  ARG615      0.5346
    160  NH1       44.4360   24.5780   45.7320 N.pl3 615  ARG615      0.1354
    161  NH2       43.1460   24.6610   47.6040 N.pl3 615  ARG615      0.1354
    162  N         41.0940   29.7480   39.2290 N.3   617  TRP617     -0.1241
    163  CA        41.9450   30.9370   39.3010 C.3   617  TRP617      0.1605
    164  C         43.4700   30.5780   39.1910 C.2   617  TRP617      0.2264
    165  O         44.2800   31.2740   38.5380 O.2   617  TRP617     -0.2867
    166  CB        41.5920   31.7430   40.5290 C.3   617  TRP617      0.0550
    167  CG        41.9830   31.1920   41.8830 C.ar  617  TRP617      0.0003
    168  CD1       41.1830   30.6040   42.8700 C.ar  617  TRP617      0.0946
    169  CD2       43.2910   31.3500   42.4910 C.ar  617  TRP617      0.0152
    170  NE1       41.9070   30.3470   43.9690 N.ar  617  TRP617     -0.2442
    171  CE2       43.2130   30.7390   43.7840 C.ar  617  TRP617      0.0810
    172  CE3       44.5440   31.8360   42.0270 C.ar  617  TRP617      0.0012
    173  CZ2       44.3130   30.7050   44.6560 C.ar  617  TRP617      0.0191
    174  CZ3       45.6320   31.8330   42.8920 C.ar  617  TRP617      0.0001
    175  CH2       45.5280   31.2610   44.1770 C.ar  617  TRP617      0.0015
@<TRIPOS>BOND
     1   165   164    2
     2   164   163    1
     3   162   163    1
     4   154   153    2
     5   163   166    1
     6    42    41    2
     7   153   152    1
     8    41    40    1
     9    35    34    2
    10   166   167    1
    11   151   152    1
    12     1     2    1
    13   152   155    1
    14     3     4    2
    15     3     2    1
    16    40    39    1
    17    40    43    1
    18     2     5    1
    19    34    33    1
    20   167   169   ar
    21   167   168   ar
    22    32    33    1
    23   172   169   ar
    24   172   174   ar
    25   155   156    1
    26   169   171   ar
    27    44    43    1
    28    44    45    1
    29    37    36    1
    30    33    36    1
    31   168   170   ar
    32   174   175   ar
    33     5     6    1
    34   112   111    2
    35   156   157    1
    36    36    38    1
    37   117   115   ar
    38   117   118   ar
    39   171   170   ar
    40   171   173   ar
    41   115   114   ar
    42    45    46   ar
    43    45    47   ar
    44     6     7   ar
    45     6     8   ar
    46   175   173   ar
    47     7     9   ar
    48   111   110    1
    49   110   113    1
    50   110   109    1
    51   118   120   ar
    52   118   116   ar
    53   157   158    1
    54   126   125    2
    55   120   122   ar
    56   114   113    1
    57   114   116   ar
    58   125   124    1
    59     8    10   ar
    60   116   119   ar
    61     9    10   ar
    62   129   128   ar
    63   122   121   ar
    64   160   159    1
    65   158   159    2
    66   119   121   ar
    67   124   123    1
    68   124   127    1
    69   159   161    1
    70   128   127    1
    71   128   130   ar
    72    30    29    1
    73    30    31    1
    74   138   137   ar
    75    18    17   ar
    76    29    26    1
    77    31    25    1
    78    98    97    2
    79    94    92   ar
    80    94    93   ar
    81   131   132    1
    82   137   136    1
    83   137   139   ar
    84    17    19   ar
    85    17    16    1
    86    92    90   ar
    87   136   135    1
    88    26    25    1
    89    26    27    1
    90    25    22   am
    91    97    96    1
    92    93    91   ar
    93   135   132    1
    94   107   105   ar
    95   107   108   ar
    96    16    15    1
    97    96    95    1
    98    96    99    1
    99   132   133    1
   100   105   102   ar
   101    27    28    2
   102    90    89   ar
   103    90    88   ar
   104    24    21    1
   105   108   106   ar
   106    22    21    1
   107    22    23    2
   108   134   133    2
   109    91    88   ar
   110    51    50    2
   111    89    87   ar
   112   102   100   ar
   113   102   104   ar
   114    99   100    1
   115    21    20    1
   116   149   148    1
   117    20    13   am
   118    88    86   ar
   119    15    12    1
   120    50    49    1
   121   100   101   ar
   122   106   104   ar
   123    11    12    1
   124   104   103   ar
   125    12    13    1
   126    13    14    2
   127   145   146    1
   128   145   144    1
   129    87    86   ar
   130   146   147    1
   131    49    48    1
   132    49    52    1
   133   148   147    2
   134   148   150    1
   135    86    85    1
   136   101   103   ar
   137    61    60   ar
   138    61    59   ar
   139    60    58   ar
   140    58    55   ar
   141    59    57   ar
   142    84    83    2
   143    55    57   ar
   144    55    53   ar
   145    57    56   ar
   146    83    82    1
   147   144   141    1
   148    56    54   ar
   149    53    52    1
   150    53    54   ar
   151    85    82    1
   152   140   141    1
   153    82    81    1
   154   141   142    1
   155    73    72    1
   156    71    72   ar
   157    71    69   ar
   158    72    70   ar
   159   142   143    2
   160    69    67   ar
   161    70    68   ar
   162    67    68   ar
   163    67    66    1
   164    79    80    1
   165    79    78    1
   166    80    74    1
   167    66    63    1
   168    62    63    1
   169    78    75    1
   170    77    76    2
   171    63    64    1
   172    74    75    1
   173    65    64    2
   174    76    75    1
