@<TRIPOS>MOLECULE
tmp/4fuvA01.pdb
 107 106 0 0 0
SMALL
GASTEIGER

@<TRIPOS>ATOM
      1  N         13.2990   70.7240   43.2710 N.3    15  THR15      -0.1218
      2  CA        13.3390   72.1570   43.0030 C.3    15  THR15       0.1862
      3  C         12.1980   72.9500   43.6590 C.2    15  THR15       0.2287
      4  O         12.2510   74.1890   43.7320 O.2    15  THR15      -0.2866
      5  CB        13.3880   72.4420   41.4850 C.3    15  THR15       0.1770
      6  OG1       12.2300   71.8970   40.8460 O.3    15  THR15      -0.2211
      7  CG2       14.6400   71.8240   40.8590 C.3    15  THR15       0.0375
      8  N         11.2810   82.8750   45.3420 N.3    96  TYR96      -0.1241
      9  CA        12.6710   82.8920   44.9200 C.3    96  TYR96       0.1605
     10  C         13.2380   84.3120   45.0800 C.2    96  TYR96       0.2264
     11  O         12.5780   85.3000   44.7550 O.2    96  TYR96      -0.2867
     12  CB        12.7770   82.4050   43.4760 C.3    96  TYR96       0.0534
     13  CG        12.1560   81.0390   43.2640 C.ar   96  TYR96      -0.0201
     14  CD1       10.7970   80.8940   42.9890 C.ar   96  TYR96      -0.0009
     15  CD2       12.9230   79.8880   43.3620 C.ar   96  TYR96      -0.0009
     16  CE1       10.2270   79.6200   42.8000 C.ar   96  TYR96       0.0417
     17  CE2       12.3660   78.6330   43.1840 C.ar   96  TYR96       0.0417
     18  CZ        11.0190   78.5000   42.9050 C.ar   96  TYR96       0.1957
     19  OH        10.4840   77.2310   42.7340 O.3    96  TYR96      -0.2866
     20  N         10.6570   86.7200   43.0680 N.3   128  MET128     -0.1245
     21  CA         9.7040   86.0720   42.1960 C.3   128  MET128      0.1570
     22  C          8.9090   85.0580   43.0090 C.2   128  MET128      0.2261
     23  O          9.4890   84.1670   43.6340 O.2   128  MET128     -0.2867
     24  CB        10.4660   85.3750   41.0860 C.3   128  MET128      0.0387
     25  CG         9.6070   84.7930   40.0070 C.3   128  MET128      0.0595
     26  SD        10.6120   83.8670   38.8540 S.3   128  MET128     -0.1393
     27  CE        11.8510   85.0830   38.4330 C.3   128  MET128      0.0692
     28  N          5.5760   82.3260   43.2600 N.3   130  TYR130     -0.1241
     29  CA         4.4840   81.5420   42.7120 C.3   130  TYR130      0.1605
     30  C          3.5260   81.2100   43.8410 C.2   130  TYR130      0.2264
     31  O          3.8870   80.5040   44.7840 O.2   130  TYR130     -0.2867
     32  CB         5.0210   80.2490   42.1010 C.3   130  TYR130      0.0534
     33  CG         5.8480   80.4660   40.8520 C.ar  130  TYR130     -0.0201
     34  CD1        7.1900   80.8040   40.9370 C.ar  130  TYR130     -0.0009
     35  CD2        5.2840   80.3340   39.5960 C.ar  130  TYR130     -0.0009
     36  CE1        7.9490   81.0060   39.8070 C.ar  130  TYR130      0.0417
     37  CE2        6.0340   80.5240   38.4560 C.ar  130  TYR130      0.0417
     38  CZ         7.3680   80.8680   38.5710 C.ar  130  TYR130      0.1957
     39  OH         8.1260   81.0760   37.4480 O.3   130  TYR130     -0.2866
     40  N          9.9620   64.4820   36.8590 N.3   156  VAL156     -0.1245
     41  CA        10.0110   65.8030   36.2390 C.3   156  VAL156      0.1561
     42  C          8.6250   66.1560   35.7190 C.2   156  VAL156      0.2260
     43  O          7.9380   65.3190   35.1230 O.2   156  VAL156     -0.2867
     44  CB        11.0790   65.8980   35.1070 C.3   156  VAL156      0.0252
     45  CG1       12.4520   65.4730   35.6260 C.3   156  VAL156      0.0019
     46  CG2       10.6870   65.0550   33.9110 C.3   156  VAL156      0.0019
     47  N          6.3520   81.2930   28.3980 N.3   198  LYS198     -0.1231
     48  CA         7.3810   80.4610   29.0010 C.3   198  LYS198      0.1693
     49  C          7.2920   80.4520   30.5340 C.2   198  LYS198      0.2592
     50  O          7.5630   79.4380   31.1800 O.2   198  LYS198     -0.2718
     51  CB         8.7400   81.0030   28.5440 C.3   198  LYS198      0.0285
     52  CG         9.9360   80.2440   29.1030 C.3   198  LYS198      0.0035
     53  CD        11.2740   80.9180   28.7780 C.3   198  LYS198      0.0206
     54  CE        11.3660   81.2050   27.2910 C.3   198  LYS198      0.1093
     55  NZ        12.7180   81.8440   26.9390 N.3   198  LYS198     -0.1314
     56  N          6.8770   81.5720   31.1170 N.am  199  TYR199     -0.1976
     57  CA         6.8600   81.6800   32.5690 C.3   199  TYR199      0.1639
     58  C          5.5040   81.3640   33.2030 C.2   199  TYR199      0.2290
     59  O          5.3060   81.5800   34.3960 O.2   199  TYR199     -0.2864
     60  CB         7.3680   83.0480   33.0020 C.3   199  TYR199      0.0560
     61  CG         8.8300   83.2200   32.7130 C.ar  199  TYR199     -0.0198
     62  CD1        9.7810   82.7170   33.5810 C.ar  199  TYR199     -0.0009
     63  CD2        9.2640   83.8630   31.5650 C.ar  199  TYR199     -0.0009
     64  CE1       11.1240   82.8540   33.3250 C.ar  199  TYR199      0.0417
     65  CE2       10.6110   84.0050   31.2970 C.ar  199  TYR199      0.0417
     66  CZ        11.5360   83.4960   32.1820 C.ar  199  TYR199      0.1957
     67  OH        12.8840   83.6230   31.9380 O.3   199  TYR199     -0.2866
     68  N          4.4080   78.3880   33.4590 N.3   201  TRP201     -0.1227
     69  CA         4.6030   77.0530   34.0150 C.3   201  TRP201      0.1737
     70  C          5.7310   77.0820   35.0260 C.2   201  TRP201      0.2595
     71  O          6.7550   77.7250   34.8010 O.2   201  TRP201     -0.2718
     72  CB         4.9610   76.0660   32.8980 C.3   201  TRP201      0.0564
     73  CG         3.9220   76.0130   31.8500 C.ar  201  TRP201      0.0003
     74  CD1        3.7890   76.8570   30.7750 C.ar  201  TRP201      0.0946
     75  CD2        2.8340   75.0870   31.7660 C.ar  201  TRP201      0.0152
     76  NE1        2.6890   76.5030   30.0310 N.ar  201  TRP201     -0.2442
     77  CE2        2.0910   75.4170   30.6170 C.ar  201  TRP201      0.0810
     78  CE3        2.4270   74.0040   32.5510 C.ar  201  TRP201      0.0012
     79  CZ2        0.9590   74.7100   30.2380 C.ar  201  TRP201      0.0191
     80  CZ3        1.3050   73.3060   32.1720 C.ar  201  TRP201      0.0001
     81  CH2        0.5850   73.6550   31.0230 C.ar  201  TRP201      0.0015
     82  N          5.5410   76.3900   36.1430 N.am  202  LEU202     -0.1966
     83  CA         6.6130   76.1770   37.1020 C.3   202  LEU202      0.1713
     84  C          7.1330   74.7550   36.9120 C.2   202  LEU202      0.2458
     85  O          6.4360   73.7880   37.2540 O.2   202  LEU202     -0.2730
     86  CB         6.1000   76.3630   38.5360 C.3   202  LEU202      0.0310
     87  CG         7.0790   76.0380   39.6690 C.3   202  LEU202      0.0022
     88  CD1        8.2970   76.9750   39.6150 C.3   202  LEU202      0.0001
     89  CD2        6.4060   76.0930   41.0670 C.3   202  LEU202      0.0001
     90  N          8.3490   74.6180   36.3590 N.am  203  PRO203     -0.2716
     91  CA         8.9470   73.3000   36.1150 C.3   203  PRO203      0.1536
     92  C          9.4140   72.6820   37.4260 C.2   203  PRO203      0.2598
     93  O          9.7870   73.4130   38.3450 O.2   203  PRO203     -0.2715
     94  CB        10.1530   73.6100   35.2140 C.3   203  PRO203      0.0310
     95  CG        10.0000   75.0610   34.8070 C.3   203  PRO203      0.0237
     96  CD         9.2240   75.7090   35.9040 C.3   203  PRO203      0.0939
     97  N          9.3850   71.3560   37.5200 N.am  204  VAL204     -0.1964
     98  CA         9.7320   70.6660   38.7610 C.3   204  VAL204      0.1727
     99  C         10.6440   69.4850   38.4810 C.2   204  VAL204      0.2616
    100  O         10.4040   68.7100   37.5600 O.2   204  VAL204     -0.2715
    101  CB         8.4760   70.1010   39.4540 C.3   204  VAL204      0.0290
    102  CG1        8.8330   69.5350   40.8190 C.3   204  VAL204      0.0023
    103  CG2        7.4300   71.1810   39.5960 C.3   204  VAL204      0.0023
    104  N         11.6980   69.3590   39.2670 N.am  205  GLY205     -0.1955
    105  CA        12.5220   68.1690   39.2500 C.3   205  GLY205      0.1869
    106  C         12.7140   67.6980   40.6790 C.2   205  GLY205      0.2309
    107  O         13.0560   68.5030   41.5510 O.2   205  GLY205     -0.2863
@<TRIPOS>BOND
     1    55    54    1
     2    54    53    1
     3    47    48    1
     4    51    48    1
     5    51    52    1
     6    53    52    1
     7    48    49    1
     8    76    77   ar
     9    76    74   ar
    10    79    77   ar
    11    79    81   ar
    12    49    56   am
    13    49    50    2
    14    77    75   ar
    15    74    73   ar
    16    81    80   ar
    17    56    57    1
    18    65    63   ar
    19    65    66   ar
    20    63    61   ar
    21    75    73   ar
    22    75    78   ar
    23    73    72    1
    24    67    66    1
    25    80    78   ar
    26    66    64   ar
    27    57    60    1
    28    57    58    1
    29    61    60    1
    30    61    62   ar
    31    72    69    1
    32    58    59    2
    33    64    62   ar
    34    68    69    1
    35    46    44    1
    36    69    70    1
    37    71    70    2
    38    95    94    1
    39    95    96    1
    40    70    82   am
    41    44    45    1
    42    44    41    1
    43    43    42    2
    44    94    91    1
    45    42    41    1
    46    96    90    1
    47    91    90    1
    48    91    92    1
    49    82    83    1
    50    41    40    1
    51    90    84   am
    52    84    83    1
    53    84    85    2
    54    83    86    1
    55    92    97   am
    56    92    93    2
    57    39    38    1
    58    97    98    1
    59   100    99    2
    60    27    26    1
    61    37    38   ar
    62    37    35   ar
    63    99    98    1
    64    99   104   am
    65    86    87    1
    66    38    36   ar
    67    98   101    1
    68    26    25    1
    69   105   104    1
    70   105   106    1
    71   101   103    1
    72   101   102    1
    73    35    33   ar
    74    88    87    1
    75    87    89    1
    76    36    34   ar
    77    25    24    1
    78   106   107    2
    79     6     5    1
    80    33    34   ar
    81    33    32    1
    82     7     5    1
    83    24    21    1
    84     5     2    1
    85    32    29    1
    86    21    22    1
    87    21    20    1
    88    29    28    1
    89    29    30    1
    90    19    18    1
    91    16    18   ar
    92    16    14   ar
    93    18    17   ar
    94    14    13   ar
    95     2     1    1
    96     2     3    1
    97    22    23    2
    98    17    15   ar
    99    13    15   ar
   100    13    12    1
   101    12     9    1
   102     3     4    2
   103    30    31    2
   104    11    10    2
   105     9    10    1
   106     9     8    1
