@<TRIPOS>MOLECULE
tmp/4fuxA00.pdb
 135 123 0 0 0
SMALL
GASTEIGER

@<TRIPOS>ATOM
      1  N         23.3510   13.7370   18.5860 N.3    21  ILE21      -0.1245
      2  CA        22.9970   13.2050   17.2710 C.3    21  ILE21       0.1561
      3  C         21.7590   13.9410   16.7590 C.2    21  ILE21       0.2260
      4  O         21.7870   14.4730   15.6520 O.2    21  ILE21      -0.2867
      5  CB        22.8110   11.6640   17.3120 C.3    21  ILE21       0.0252
      6  CG1       24.1840   10.9440   17.3230 C.3    21  ILE21       0.0019
      7  CG2       21.8820   11.1650   16.1880 C.3    21  ILE21       0.0019
      8  CD1       24.1450    9.4010   17.5780 C.3    21  ILE21       0.0001
      9  N         14.7170   12.4590   19.0580 N.3    24  GLY24      -0.1225
     10  CA        13.7500   11.3940   18.8150 C.3    24  GLY24       0.1811
     11  C         12.3590   11.8560   19.2150 C.2    24  GLY24       0.2280
     12  O         12.1740   13.0190   19.6010 O.2    24  GLY24      -0.2866
     13  N         18.9640   11.8600   21.2340 N.3    29  VAL29      -0.1245
     14  CA        19.7570   10.7420   20.7370 C.3    29  VAL29       0.1561
     15  C         21.2160   11.1810   20.7560 C.2    29  VAL29       0.2260
     16  O         21.5410   12.2600   20.2610 O.2    29  VAL29      -0.2867
     17  CB        19.3200   10.2160   19.3340 C.3    29  VAL29       0.0252
     18  CG1       20.1840    9.0330   18.8870 C.3    29  VAL29       0.0019
     19  CG2       17.8450    9.8310   19.3190 C.3    29  VAL29       0.0019
     20  N         24.8700    3.7320   20.0180 N.3    42  ALA42      -0.1245
     21  CA        23.8490    4.7670   19.9220 C.3    42  ALA42       0.1562
     22  C         22.9020    4.6240   21.1170 C.2    42  ALA42       0.2260
     23  O         22.5570    3.4980   21.4810 O.2    42  ALA42      -0.2867
     24  CB        23.0930    4.6570   18.6070 C.3    42  ALA42       0.0290
     25  N         19.3150    6.4210   23.0030 N.3    44  LYS44      -0.1245
     26  CA        18.1230    7.2550   22.9170 C.3    44  LYS44       0.1561
     27  C         17.4970    7.4170   24.3070 C.2    44  LYS44       0.2260
     28  O         17.2450    6.4150   24.9860 O.2    44  LYS44      -0.2867
     29  CB        17.1200    6.6170   21.9350 C.3    44  LYS44       0.0271
     30  CG        15.8620    7.4490   21.6620 C.3    44  LYS44       0.0035
     31  CD        14.9850    6.8480   20.5610 C.3    44  LYS44       0.0206
     32  CE        14.2760    5.5810   20.9860 C.3    44  LYS44       0.1093
     33  NZ        13.5190    4.9480   19.8790 N.3    44  LYS44      -0.1314
     34  N         17.1890   -4.1680   14.2250 N.3    74  ILE74      -0.1245
     35  CA        18.0380   -3.5950   15.2690 C.3    74  ILE74       0.1561
     36  C         17.7050   -4.2260   16.6220 C.2    74  ILE74       0.2260
     37  O         16.5330   -4.3440   16.9980 O.2    74  ILE74      -0.2867
     38  CB        17.9500   -2.0280   15.3190 C.3    74  ILE74       0.0252
     39  CG1       19.1470   -1.4060   16.0820 C.3    74  ILE74       0.0019
     40  CG2       16.5940   -1.5130   15.8950 C.3    74  ILE74       0.0019
     41  CD1       20.4930   -1.2990   15.3250 C.3    74  ILE74       0.0001
     42  N         17.6220    3.6590   25.8840 N.3    93  ILE93      -0.1245
     43  CA        17.7440    2.4420   25.0880 C.3    93  ILE93       0.1561
     44  C         19.0610    2.5190   24.3320 C.2    93  ILE93       0.2260
     45  O         19.3280    3.5220   23.6720 O.2    93  ILE93      -0.2867
     46  CB        16.5110    2.2390   24.1720 C.3    93  ILE93       0.0252
     47  CG1       15.2240    2.0820   25.0380 C.3    93  ILE93       0.0019
     48  CG2       16.7150    1.0200   23.2150 C.3    93  ILE93       0.0019
     49  CD1       13.8980    1.8940   24.2430 C.3    93  ILE93       0.0001
     50  N         21.6590    0.7880   21.5030 N.3    95  GLN95      -0.1231
     51  CA        21.7150   -0.0070   20.2800 C.3    95  GLN95       0.1698
     52  C         23.0670    0.1660   19.6250 C.2    95  GLN95       0.2592
     53  O         23.7780    1.1270   19.9350 O.2    95  GLN95      -0.2718
     54  CB        20.5950    0.4090   19.3110 C.3    95  GLN95       0.0381
     55  CG        19.1890    0.0870   19.8140 C.3    95  GLN95       0.0905
     56  CD        18.1000    0.6760   18.9330 C.2    95  GLN95       0.2608
     57  OE1       18.3400    1.5500   18.0940 O.2    95  GLN95      -0.2717
     58  NE2       16.8620    0.2410   19.1340 N.am   95  GLN95      -0.0878
     59  N         23.4350   -0.7570   18.7250 N.am   96  ASP96      -0.1960
     60  CA        24.6940   -0.6580   17.9760 C.3    96  ASP96       0.1840
     61  C         24.7180    0.6520   17.1920 C.2    96  ASP96       0.2622
     62  O         23.6990    1.0320   16.6150 O.2    96  ASP96      -0.2715
     63  CB        24.8330   -1.8300   16.9890 C.3    96  ASP96       0.1450
     64  CG        24.9110   -3.2190   17.5720 C.2    96  ASP96       0.3671
     65  OD1       25.4060   -3.3600   18.7120 O.co2  96  ASP96      -0.2456
     66  OD2       24.5600   -4.1750   16.8550 O.co2  96  ASP96      -0.2456
     67  N         25.8540    1.3510   17.1940 N.am   97  LEU97      -0.1963
     68  CA        25.9680    2.5990   16.4500 C.3    97  LEU97       0.1728
     69  C         26.0570    2.2760   14.9730 C.2    97  LEU97       0.2616
     70  O         27.0030    1.6150   14.5240 O.2    97  LEU97      -0.2715
     71  CB        27.1670    3.4560   16.9100 C.3    97  LEU97       0.0311
     72  CG        27.4180    4.7640   16.1230 C.3    97  LEU97       0.0022
     73  CD1       26.2400    5.7250   16.2400 C.3    97  LEU97       0.0001
     74  CD2       28.6960    5.4300   16.5850 C.3    97  LEU97       0.0001
     75  N         25.0510    2.7300   14.2240 N.am   98  MET98      -0.1963
     76  CA        25.0230    2.5050   12.7900 C.3    98  MET98       0.1736
     77  C         25.5550    3.7590   12.1080 C.2    98  MET98       0.2616
     78  O         25.3650    4.8590   12.6170 O.2    98  MET98      -0.2715
     79  CB        23.6130    2.1170   12.3390 C.3    98  MET98       0.0427
     80  CG        23.0650    0.8870   13.0850 C.3    98  MET98       0.0599
     81  SD        23.8360   -0.6840   12.5740 S.3    98  MET98      -0.1393
     82  CE        22.9600   -0.9850   11.0600 C.3    98  MET98       0.0692
     83  N         26.2760    3.5830   11.0070 N.am   99  GLU99      -0.1963
     84  CA        26.9360    4.6520   10.2530 C.3    99  GLU99       0.1733
     85  C         25.9370    5.6950    9.7610 C.2    99  GLU99       0.2617
     86  O         26.1710    6.8820    9.9520 O.2    99  GLU99      -0.2715
     87  CB        27.7210    4.0560    9.0610 C.3    99  GLU99       0.0429
     88  CG        28.4950    5.0930    8.2630 C.3    99  GLU99       0.1163
     89  CD        28.8570    4.6790    6.8530 C.2    99  GLU99       0.3649
     90  OE1       27.9370    4.4910    6.0250 O.co2  99  GLU99      -0.2457
     91  OE2       30.0700    4.5920    6.5620 O.co2  99  GLU99      -0.2457
     92  N         24.8440    5.2530    9.1120 N.am  100  THR100     -0.1937
     93  CA        23.8300    6.1570    8.5640 C.3   100  THR100      0.2028
     94  C         22.4600    5.4580    8.5030 C.2   100  THR100      0.2642
     95  O         22.3170    4.3230    8.9510 O.2   100  THR100     -0.2714
     96  CB        24.2920    6.6530    7.1530 C.3   100  THR100      0.1808
     97  OG1       23.4360    7.7070    6.7050 O.3   100  THR100     -0.2208
     98  CG2       24.3380    5.5290    6.1070 C.3   100  THR100      0.0379
     99  N         21.4520    6.1740    7.9840 N.am  101  ASP101     -0.1971
    100  CA        20.1300    5.6470    7.6540 C.3   101  ASP101      0.1709
    101  C         19.9860    5.7570    6.1290 C.2   101  ASP101      0.2293
    102  O         20.7480    6.5120    5.4980 O.2   101  ASP101     -0.2864
    103  CB        18.9830    6.3390    8.4250 C.3   101  ASP101      0.1436
    104  CG        18.7180    7.8120    8.1520 C.2   101  ASP101      0.3671
    105  OD1       19.2360    8.3350    7.1590 O.co2 101  ASP101     -0.2456
    106  OD2       17.9520    8.4220    8.9090 O.co2 101  ASP101     -0.2456
    107  N         19.5020    9.6250    4.7680 N.3   104  LYS104     -0.1245
    108  CA        20.7000   10.4420    4.5890 C.3   104  LYS104      0.1561
    109  C         21.5280    9.9570    3.4040 C.2   104  LYS104      0.2260
    110  O         22.0230   10.7730    2.6410 O.2   104  LYS104     -0.2867
    111  CB        21.5490   10.4740    5.8760 C.3   104  LYS104      0.0271
    112  CG        20.9150   11.2360    7.0590 C.3   104  LYS104      0.0035
    113  CD        20.7000   12.7380    6.7820 C.3   104  LYS104      0.0206
    114  CE        20.9420   13.6210    7.9840 C.3   104  LYS104      0.1093
    115  NZ        22.3950   13.8720    8.1980 N.3   104  LYS104     -0.1314
    116  N         14.3640    6.5140    6.6630 N.3   143  SER143     -0.1217
    117  CA        14.9790    6.9010    7.9490 C.3   143  SER143      0.1889
    118  C         14.8510    5.7940    9.0120 C.2   143  SER143      0.2288
    119  O         15.5500    5.8590   10.0270 O.2   143  SER143     -0.2866
    120  CB        14.3820    8.2110    8.4700 C.3   143  SER143      0.2089
    121  OG        12.9860    8.0830    8.6900 O.3   143  SER143     -0.2183
    122  N         18.5740    1.4530    8.9310 N.3   146  LEU146     -0.1245
    123  CA        19.9360    1.8510    9.3230 C.3   146  LEU146      0.1561
    124  C         20.9370    0.9990    8.6110 C.2   146  LEU146      0.2260
    125  O         20.6580   -0.1470    8.3110 O.2   146  LEU146     -0.2867
    126  CB        20.1770    1.7700   10.8570 C.3   146  LEU146      0.0270
    127  CG        19.1510    2.4240   11.7960 C.3   146  LEU146      0.0019
    128  CD1       19.4080    2.0300   13.2350 C.3   146  LEU146      0.0001
    129  CD2       19.1240    3.9360   11.6640 C.3   146  LEU146      0.0001
    130  N         14.4750   -0.5050   11.9530 N.3   155  CYS155     -0.1235
    131  CA        14.3490    0.0620   13.2800 C.3   155  CYS155      0.1677
    132  C         13.0070    0.7910   13.4280 C.2   155  CYS155      0.2270
    133  O         12.2380    0.8970   12.4650 O.2   155  CYS155     -0.2867
    134  CB        15.5460    0.9690   13.5940 C.3   155  CYS155      0.0956
    135  SG        15.4060    2.6640   12.9540 S.3   155  CYS155     -0.0801
@<TRIPOS>BOND
     1   110   109    2
     2   109   108    1
     3   108   107    1
     4   108   111    1
     5   102   101    2
     6   111   112    1
     7    90    89   ar
     8    98    96    1
     9   101   100    1
    10    91    89   ar
    11   116   117    1
    12    97    96    1
    13   113   112    1
    14   113   114    1
    15    89    88    1
    16    96    93    1
    17   105   104   ar
    18   100    99    1
    19   100   103    1
    20   117   120    1
    21   117   118    1
    22    99    94   am
    23   114   115    1
    24   104   103    1
    25   104   106   ar
    26    88    87    1
    27   125   124    2
    28   120   121    1
    29    94    93    1
    30    94    95    2
    31    93    92    1
    32   124   123    1
    33   122   123    1
    34   118   119    2
    35    87    84    1
    36    92    85   am
    37   123   126    1
    38    85    86    2
    39    85    84    1
    40    84    83    1
    41   126   127    1
    42    83    77   am
    43    82    81    1
    44   129   127    1
    45   127   128    1
    46   130   131    1
    47    77    78    2
    48    77    76    1
    49    79    76    1
    50    79    80    1
    51   133   132    2
    52    81    80    1
    53    76    75    1
    54   135   134    1
    55   131   132    1
    56   131   134    1
    57    75    69   am
    58    34    35    1
    59    70    69    2
    60    69    68    1
    61    35    38    1
    62    35    36    1
    63    38    40    1
    64    38    39    1
    65    41    39    1
    66     4     3    2
    67    72    73    1
    68    72    74    1
    69    72    71    1
    70     7     5    1
    71    68    71    1
    72    68    67    1
    73    62    61    2
    74    36    37    2
    75     3     2    1
    76    66    64   ar
    77    63    64    1
    78    63    60    1
    79    61    67   am
    80    61    60    1
    81     2     5    1
    82     2     1    1
    83     5     6    1
    84     6     8    1
    85    64    65   ar
    86    60    59    1
    87    57    56    2
    88    24    21    1
    89    59    52   am
    90    10     9    1
    91    10    11    1
    92    18    17    1
    93    56    58   am
    94    56    55    1
    95    11    12    2
    96    54    55    1
    97    54    51    1
    98    19    17    1
    99    17    14    1
   100    52    53    2
   101    52    51    1
   102    33    32    1
   103    21    20    1
   104    21    22    1
   105    16    15    2
   106    51    50    1
   107    31    32    1
   108    31    30    1
   109    14    15    1
   110    14    13    1
   111    22    23    2
   112    30    29    1
   113    29    26    1
   114    26    25    1
   115    26    27    1
   116    48    46    1
   117    45    44    2
   118    46    47    1
   119    46    43    1
   120    49    47    1
   121    27    28    2
   122    44    43    1
   123    43    42    1
