@<TRIPOS>MOLECULE
tmp/4fuyA00.pdb
 182 169 0 0 0
SMALL
GASTEIGER

@<TRIPOS>ATOM
      1  N         23.2940   13.2810   17.9090 N.3    18  ILE18      -0.1245
      2  CA        23.0190   12.6970   16.5850 C.3    18  ILE18       0.1561
      3  C         21.7930   13.3890   15.9670 C.2    18  ILE18       0.2260
      4  O         21.8310   13.8040   14.8040 O.2    18  ILE18      -0.2867
      5  CB        22.8450   11.1470   16.6550 C.3    18  ILE18       0.0252
      6  CG1       24.2040   10.4430   16.8570 C.3    18  ILE18       0.0019
      7  CG2       22.1060   10.5780   15.4100 C.3    18  ILE18       0.0019
      8  CD1       24.1070    8.9540   17.1500 C.3    18  ILE18       0.0001
      9  N         17.1420   14.1010   17.0130 N.3    20  GLU20      -0.1231
     10  CA        16.0570   13.9690   17.9740 C.3    20  GLU20       0.1699
     11  C         15.0110   12.9480   17.5280 C.2    20  GLU20       0.2593
     12  O         14.3710   13.1070   16.4850 O.2    20  GLU20      -0.2718
     13  CB        15.4040   15.3260   18.2670 C.3    20  GLU20       0.0402
     14  CG        16.1030   16.0880   19.3830 C.3    20  GLU20       0.1161
     15  CD        15.5970   17.4850   19.6980 C.2    20  GLU20       0.3649
     16  OE1       14.6260   17.9420   19.0520 O.co2  20  GLU20      -0.2457
     17  OE2       16.1840   18.1290   20.5960 O.co2  20  GLU20      -0.2457
     18  N         14.8510   11.9120   18.3520 N.am   21  GLY21      -0.1942
     19  CA        13.8490   10.8690   18.1720 C.3    21  GLY21       0.2014
     20  C         12.4750   11.3760   18.5690 C.2    21  GLY21       0.2639
     21  O         12.3100   12.5650   18.8740 O.2    21  GLY21      -0.2714
     22  N         11.4770   10.4810   18.5800 N.am   22  ALA22      -0.1963
     23  CA        10.0960   10.8350   18.9150 C.3    22  ALA22       0.1728
     24  C          9.9250   11.2370   20.3940 C.2    22  ALA22       0.2616
     25  O          9.3890   12.3160   20.6710 O.2    22  ALA22      -0.2715
     26  CB         9.1670    9.6770   18.5790 C.3    22  ALA22       0.0334
     27  N         10.3860   10.3790   21.3310 N.am   23  TYR23      -0.1974
     28  CA        10.2360   10.6040   22.7700 C.3    23  TYR23       0.1639
     29  C         11.4560   11.2960   23.4080 C.2    23  TYR23       0.2290
     30  O         11.4600   11.5320   24.6260 O.2    23  TYR23      -0.2864
     31  CB         9.9330    9.2800   23.4880 C.3    23  TYR23       0.0560
     32  CG         9.5820    8.1590   22.5250 C.ar   23  TYR23      -0.0198
     33  CD1        8.6350    8.3720   21.5120 C.ar   23  TYR23      -0.0009
     34  CD2       10.2070    6.9180   22.5880 C.ar   23  TYR23      -0.0009
     35  CE1        8.3170    7.3820   20.5880 C.ar   23  TYR23       0.0417
     36  CE2        9.9100    5.9170   21.6760 C.ar   23  TYR23       0.0417
     37  CZ         8.9620    6.1590   20.6680 C.ar   23  TYR23       0.1957
     38  OH         8.6790    5.1350   19.7990 O.3    23  TYR23      -0.2866
     39  N         18.7210   11.5760   20.8130 N.3    26  VAL26      -0.1245
     40  CA        19.5860   10.4860   20.4040 C.3    26  VAL26       0.1561
     41  C         21.0180   11.0190   20.3580 C.2    26  VAL26       0.2260
     42  O         21.2780   12.0680   19.7550 O.2    26  VAL26      -0.2867
     43  CB        19.1510    9.8420   19.0580 C.3    26  VAL26       0.0252
     44  CG1       20.0260    8.6370   18.7200 C.3    26  VAL26       0.0019
     45  CG2       17.6810    9.4390   19.0950 C.3    26  VAL26       0.0019
     46  N         24.7400    3.9380   19.8950 N.3    39  ALA39      -0.1245
     47  CA        23.6590    4.9230   19.8350 C.3    39  ALA39       0.1562
     48  C         22.8130    4.7780   21.1070 C.2    39  ALA39       0.2260
     49  O         22.5800    3.6430   21.5540 O.2    39  ALA39      -0.2867
     50  CB        22.7970    4.7130   18.5930 C.3    39  ALA39       0.0290
     51  N         19.1340    6.3810   22.9290 N.3    41  LYS41      -0.1245
     52  CA        17.9580    7.2470   22.8700 C.3    41  LYS41       0.1561
     53  C         17.4770    7.5050   24.2810 C.2    41  LYS41       0.2260
     54  O         17.2360    6.5530   25.0260 O.2    41  LYS41      -0.2867
     55  CB        16.8140    6.6700   22.0100 C.3    41  LYS41       0.0271
     56  CG        15.6330    7.6540   21.8710 C.3    41  LYS41       0.0035
     57  CD        14.5740    7.2430   20.8590 C.3    41  LYS41       0.0206
     58  CE        13.5780    6.2260   21.3660 C.3    41  LYS41       0.1093
     59  NZ        12.5030    5.9480   20.3770 N.3    41  LYS41      -0.1314
     60  N          7.3290   -0.6560   21.4760 N.3    52  GLU52      -0.1245
     61  CA         8.5660   -0.8220   20.7250 C.3    52  GLU52       0.1567
     62  C          9.6050   -1.5840   21.5560 C.2    52  GLU52       0.2260
     63  O         10.2560   -2.4970   21.0280 O.2    52  GLU52      -0.2867
     64  CB         9.0760    0.5450   20.2570 C.3    52  GLU52       0.0388
     65  CG        10.5710    0.6200   19.9960 C.3    52  GLU52       0.1160
     66  CD        10.9660    1.6160   18.9290 C.2    52  GLU52       0.3649
     67  OE1       10.7550    2.8340   19.1310 O.co2  52  GLU52      -0.2457
     68  OE2       11.4950    1.1710   17.8870 O.co2  52  GLU52      -0.2457
     69  N         11.1200   -5.0820   20.2080 N.3    56  LEU56      -0.1245
     70  CA        12.5660   -5.1870   19.9570 C.3    56  LEU56       0.1561
     71  C         13.2410   -6.2060   20.8840 C.2    56  LEU56       0.2260
     72  O         14.2100   -6.8350   20.4680 O.2    56  LEU56      -0.2867
     73  CB        13.2640   -3.8180   20.0550 C.3    56  LEU56       0.0270
     74  CG        12.9440   -2.7850   18.9520 C.3    56  LEU56       0.0019
     75  CD1       13.6550   -1.4920   19.2180 C.3    56  LEU56       0.0001
     76  CD2       13.3090   -3.2980   17.5630 C.3    56  LEU56       0.0001
     77  N         16.9850   -4.1020   14.1210 N.3    65  ILE65      -0.1245
     78  CA        17.7950   -3.5110   15.1900 C.3    65  ILE65       0.1561
     79  C         17.4420   -4.1500   16.5500 C.2    65  ILE65       0.2260
     80  O         16.2710   -4.4050   16.8430 O.2    65  ILE65      -0.2867
     81  CB        17.6270   -1.9590   15.2340 C.3    65  ILE65       0.0252
     82  CG1       18.7950   -1.2830   15.9830 C.3    65  ILE65       0.0019
     83  CG2       16.2400   -1.5080   15.7940 C.3    65  ILE65       0.0019
     84  CD1       20.2080   -1.4110   15.3150 C.3    65  ILE65       0.0001
     85  N         18.1350   -4.2430   20.9830 N.3    67  ILE67      -0.1245
     86  CA        18.4480   -3.4120   22.1510 C.3    67  ILE67       0.1561
     87  C         19.6470   -4.0670   22.8800 C.2    67  ILE67       0.2260
     88  O         19.5650   -5.2350   23.2540 O.2    67  ILE67      -0.2867
     89  CB        17.2020   -3.2430   23.0710 C.3    67  ILE67       0.0252
     90  CG1       16.1130   -2.3740   22.3820 C.3    67  ILE67       0.0019
     91  CG2       17.5940   -2.6670   24.4530 C.3    67  ILE67       0.0019
     92  CD1       14.7170   -2.3700   23.1120 C.3    67  ILE67       0.0001
     93  N         17.7490    3.8190   26.0430 N.3    84  ILE84      -0.1245
     94  CA        17.8110    2.5850   25.2460 C.3    84  ILE84       0.1561
     95  C         19.1080    2.6250   24.4640 C.2    84  ILE84       0.2260
     96  O         19.3810    3.6190   23.7850 O.2    84  ILE84      -0.2867
     97  CB        16.5520    2.4320   24.3530 C.3    84  ILE84       0.0252
     98  CG1       15.2700    2.4620   25.2270 C.3    84  ILE84       0.0019
     99  CG2       16.6130    1.1240   23.5230 C.3    84  ILE84       0.0019
    100  CD1       13.9980    2.5270   24.4200 C.3    84  ILE84       0.0001
    101  N         21.7500    0.9780   21.5670 N.3    86  GLN86      -0.1231
    102  CA        21.8490    0.1620   20.3460 C.3    86  GLN86       0.1698
    103  C         23.2250    0.3020   19.7080 C.2    86  GLN86       0.2592
    104  O         23.9460    1.2360   20.0370 O.2    86  GLN86      -0.2718
    105  CB        20.7710    0.5890   19.3280 C.3    86  GLN86       0.0381
    106  CG        19.3340    0.3200   19.7690 C.3    86  GLN86       0.0905
    107  CD        18.3060    0.8230   18.7930 C.2    86  GLN86       0.2608
    108  OE1       18.6110    1.5530   17.8360 O.2    86  GLN86      -0.2717
    109  NE2       17.0490    0.4400   19.0160 N.am   86  GLN86      -0.0878
    110  N         23.5700   -0.5640   18.7270 N.am   87  ASP87      -0.1960
    111  CA        24.8230   -0.4020   17.9650 C.3    87  ASP87       0.1840
    112  C         24.7710    0.9120   17.2070 C.2    87  ASP87       0.2622
    113  O         23.6950    1.3030   16.7670 O.2    87  ASP87      -0.2715
    114  CB        25.0290   -1.5490   16.9660 C.3    87  ASP87       0.1450
    115  CG        25.0990   -2.9330   17.5730 C.2    87  ASP87       0.3671
    116  OD1       25.4590   -3.0400   18.7720 O.co2  87  ASP87      -0.2456
    117  OD2       24.7650   -3.9090   16.8600 O.co2  87  ASP87      -0.2456
    118  N         25.8900    1.6260   17.1180 N.am   88  LEU88      -0.1963
    119  CA        25.9230    2.8650   16.3650 C.3    88  LEU88       0.1728
    120  C         26.0080    2.5010   14.8900 C.2    88  LEU88       0.2616
    121  O         26.9000    1.7500   14.4810 O.2    88  LEU88      -0.2715
    122  CB        27.0840    3.7760   16.7940 C.3    88  LEU88       0.0311
    123  CG        27.2430    5.1170   16.0600 C.3    88  LEU88       0.0022
    124  CD1       26.0540    6.0410   16.3060 C.3    88  LEU88       0.0001
    125  CD2       28.5180    5.8210   16.5020 C.3    88  LEU88       0.0001
    126  N         25.0600    2.9860   14.1050 N.am   89  MET89      -0.1963
    127  CA        25.0820    2.6810   12.6860 C.3    89  MET89       0.1736
    128  C         25.8380    3.7890   11.9470 C.2    89  MET89       0.2616
    129  O         26.1020    4.8430   12.5210 O.2    89  MET89      -0.2715
    130  CB        23.6580    2.4460   12.1460 C.3    89  MET89       0.0427
    131  CG        22.9820    1.2160   12.7580 C.3    89  MET89       0.0599
    132  SD        23.8140   -0.3770   12.5020 S.3    89  MET89      -0.1393
    133  CE        22.9180   -1.0320   11.0490 C.3    89  MET89       0.0692
    134  N         26.2500    3.5330   10.7140 N.am   90  GLU90      -0.1963
    135  CA        27.0200    4.5130    9.9410 C.3    90  GLU90       0.1733
    136  C         26.0840    5.5690    9.3540 C.2    90  GLU90       0.2617
    137  O         26.4270    6.7500    9.3330 O.2    90  GLU90      -0.2715
    138  CB        27.8170    3.7960    8.8330 C.3    90  GLU90       0.0429
    139  CG        28.7010    4.7050    7.9940 C.3    90  GLU90       0.1163
    140  CD        28.8670    4.2220    6.5680 C.2    90  GLU90       0.3649
    141  OE1       27.8600    3.7770    5.9700 O.co2  90  GLU90      -0.2457
    142  OE2       29.9980    4.2980    6.0420 O.co2  90  GLU90      -0.2457
    143  N         24.8990    5.1360    8.8740 N.am   91  THR91      -0.1937
    144  CA        23.9240    6.0400    8.2680 C.3    91  THR91       0.2028
    145  C         22.5560    5.3490    8.2210 C.2    91  THR91       0.2642
    146  O         22.3350    4.3150    8.8580 O.2    91  THR91      -0.2714
    147  CB        24.4250    6.4950    6.8540 C.3    91  THR91       0.1808
    148  OG1       23.6230    7.5660    6.3630 O.3    91  THR91      -0.2208
    149  CG2       24.5270    5.3360    5.8280 C.3    91  THR91       0.0379
    150  N         21.6470    5.9300    7.4650 N.am   92  ASP92      -0.1971
    151  CA        20.3330    5.3520    7.1940 C.3    92  ASP92       0.1709
    152  C         20.0800    5.5440    5.6950 C.2    92  ASP92       0.2293
    153  O         20.8110    6.3050    5.0340 O.2    92  ASP92      -0.2864
    154  CB        19.2270    5.9210    8.1010 C.3    92  ASP92       0.1436
    155  CG        18.9430    7.4060    7.9470 C.2    92  ASP92       0.3671
    156  OD1       18.8100    7.8710    6.8020 O.co2  92  ASP92      -0.2456
    157  OD2       18.7900    8.0800    8.9650 O.co2  92  ASP92      -0.2456
    158  N         19.4340    9.3540    4.4900 N.3    95  LYS95      -0.1245
    159  CA        20.6570   10.1670    4.3340 C.3    95  LYS95       0.1561
    160  C         21.4560    9.7120    3.1230 C.2    95  LYS95       0.2260
    161  O         21.9300   10.5530    2.3700 O.2    95  LYS95      -0.2867
    162  CB        21.5270   10.1390    5.5910 C.3    95  LYS95       0.0271
    163  CG        20.8550   10.7850    6.7910 C.3    95  LYS95       0.0035
    164  CD        21.3510   10.1570    8.0880 C.3    95  LYS95       0.0206
    165  CE        22.3390   11.0340    8.8000 C.3    95  LYS95       0.1093
    166  NZ        22.7570   10.4480   10.0940 N.3    95  LYS95      -0.1314
    167  N         18.4440    1.3620    8.8890 N.3   137  LEU137     -0.1245
    168  CA        19.8020    1.6980    9.2830 C.3   137  LEU137      0.1561
    169  C         20.8000    0.8940    8.5070 C.2   137  LEU137      0.2260
    170  O         20.5180   -0.2420    8.1280 O.2   137  LEU137     -0.2867
    171  CB        19.9990    1.4610   10.7860 C.3   137  LEU137      0.0270
    172  CG        19.0800    2.2550   11.7440 C.3   137  LEU137      0.0019
    173  CD1       18.9820    1.5750   13.0990 C.3   137  LEU137      0.0001
    174  CD2       19.5290    3.7030   11.8840 C.3   137  LEU137      0.0001
    175  N         12.4460    1.3620   14.3990 N.3   146  ASP146     -0.1239
    176  CA        11.2520    2.1350   14.7200 C.3   146  ASP146      0.1674
    177  C          9.9450    1.3260   14.6160 C.2   146  ASP146      0.2266
    178  O          9.2110    1.4010   13.6310 O.2   146  ASP146     -0.2867
    179  CB        11.1600    3.4380   13.8990 C.3   146  ASP146      0.1410
    180  CG        10.1990    4.4710   14.4860 C.2   146  ASP146      0.3668
    181  OD1       10.2060    5.6080   14.0100 O.co2 146  ASP146     -0.2456
    182  OD2        9.4280    4.1210   15.4160 O.co2 146  ASP146     -0.2456
@<TRIPOS>BOND
     1   161   160    2
     2   160   159    1
     3   159   158    1
     4   159   162    1
     5   153   152    2
     6   162   163    1
     7   152   151    1
     8   149   147    1
     9   141   140   ar
    10   142   140   ar
    11   148   147    1
    12   140   139    1
    13   163   164    1
    14   156   155   ar
    15   147   144    1
    16   151   150    1
    17   151   154    1
    18   150   145   am
    19   155   154    1
    20   155   157   ar
    21   139   138    1
    22   164   165    1
    23   170   169    2
    24   145   144    1
    25   145   146    2
    26   144   143    1
    27   169   168    1
    28   165   166    1
    29   138   135    1
    30   143   136   am
    31   167   168    1
    32   168   171    1
    33   137   136    2
    34   136   135    1
    35   135   134    1
    36   134   128   am
    37   171   172    1
    38   133   132    1
    39   172   174    1
    40   172   173    1
    41   128   129    2
    42   128   127    1
    43   130   127    1
    44   130   131    1
    45   132   131    1
    46   127   126    1
    47   178   177    2
    48   179   180    1
    49   179   176    1
    50   181   180   ar
    51   126   120   am
    52    77    78    1
    53   175   176    1
    54   121   120    2
    55   180   182   ar
    56   177   176    1
    57     4     3    2
    58   120   119    1
    59    78    81    1
    60    78    79    1
    61    81    83    1
    62    81    82    1
    63    84    82    1
    64     7     5    1
    65     3     2    1
    66   123   124    1
    67   123   125    1
    68   123   122    1
    69   119   122    1
    70   119   118    1
    71    12    11    2
    72    79    80    2
    73     2     5    1
    74     2     1    1
    75     5     6    1
    76   113   112    2
    77     6     8    1
    78   117   115   ar
    79   114   115    1
    80   114   111    1
    81     9    10    1
    82   118   112   am
    83   112   111    1
    84    11    10    1
    85    11    18   am
    86    76    74    1
    87   115   116   ar
    88   108   107    2
    89    68    66   ar
    90   111   110    1
    91    10    13    1
    92    19    18    1
    93    19    20    1
    94    13    14    1
    95    20    22   am
    96    20    21    2
    97    26    23    1
    98    22    23    1
    99    50    47    1
   100    44    43    1
   101   110   103   am
   102   107   109   am
   103   107   106    1
   104    23    24    1
   105    66    67   ar
   106    66    65    1
   107    74    75    1
   108    74    73    1
   109    16    15   ar
   110    43    45    1
   111    43    40    1
   112   105   106    1
   113   105   102    1
   114    14    15    1
   115    15    17   ar
   116   103   104    2
   117   103   102    1
   118    42    41    2
   119    38    37    1
   120    47    46    1
   121    47    48    1
   122    70    73    1
   123    70    69    1
   124    70    71    1
   125    65    64    1
   126    64    61    1
   127   102   101    1
   128    41    40    1
   129    59    58    1
   130    24    25    2
   131    24    27   am
   132    40    39    1
   133    72    71    2
   134    35    37   ar
   135    35    33   ar
   136    37    36   ar
   137    61    60    1
   138    61    62    1
   139    57    58    1
   140    57    56    1
   141    85    86    1
   142    63    62    2
   143    48    49    2
   144    27    28    1
   145    33    32   ar
   146    36    34   ar
   147    56    55    1
   148    55    52    1
   149    86    87    1
   150    86    89    1
   151    90    89    1
   152    90    92    1
   153    32    34   ar
   154    32    31    1
   155    28    29    1
   156    28    31    1
   157    52    51    1
   158    52    53    1
   159    87    88    2
   160    89    91    1
   161    29    30    2
   162    99    97    1
   163    96    95    2
   164    53    54    2
   165    97    98    1
   166    97    94    1
   167   100    98    1
   168    95    94    1
   169    94    93    1
