@<TRIPOS>MOLECULE
tmp/4fv0A00.pdb
 131 123 0 0 0
SMALL
GASTEIGER

@<TRIPOS>ATOM
      1  N         24.6250   13.1610   18.1970 N.3    21  ILE21      -0.1231
      2  CA        24.2720   12.6210   16.8810 C.3    21  ILE21       0.1692
      3  C         23.1020   13.4310   16.3200 C.2    21  ILE21       0.2593
      4  O         23.1160   13.8100   15.1480 O.2    21  ILE21      -0.2718
      5  CB        23.9600   11.1020   16.9700 C.3    21  ILE21       0.0266
      6  CG1       25.2590   10.2640   16.9060 C.3    21  ILE21       0.0019
      7  CG2       22.9100   10.6530   15.9200 C.3    21  ILE21       0.0020
      8  CD1       25.0650    8.7460   17.1620 C.3    21  ILE21       0.0001
      9  N         22.1030   13.6700   17.1630 N.am   22  GLY22      -0.1942
     10  CA        20.9150   14.4200   16.7990 C.3    22  GLY22       0.2014
     11  C         19.7450   14.1490   17.7100 C.2    22  GLY22       0.2639
     12  O         19.9180   13.8270   18.8910 O.2    22  GLY22      -0.2714
     13  N         18.5460   14.2850   17.1510 N.am   23  GLU23      -0.1963
     14  CA        17.2960   14.0410   17.8510 C.3    23  GLU23       0.1733
     15  C         16.6060   12.8210   17.2510 C.2    23  GLU23       0.2617
     16  O         16.5800   12.6560   16.0280 O.2    23  GLU23      -0.2715
     17  CB        16.3780   15.2800   17.8050 C.3    23  GLU23       0.0429
     18  CG        16.9070   16.4930   18.5610 C.3    23  GLU23       0.1163
     19  CD        17.1920   16.2970   20.0400 C.2    23  GLU23       0.3649
     20  OE1       16.3790   15.6380   20.7290 O.co2  23  GLU23      -0.2457
     21  OE2       18.2310   16.8120   20.5120 O.co2  23  GLU23      -0.2457
     22  N         16.1010   11.9630   18.1290 N.am   24  GLY24      -0.1940
     23  CA        15.3730   10.7550   17.7660 C.3    24  GLY24       0.2014
     24  C         13.8830   11.0170   17.7230 C.2    24  GLY24       0.2638
     25  O         13.4600   12.1690   17.5750 O.2    24  GLY24      -0.2714
     26  N         13.0750    9.9520   17.8670 N.am   25  ALA25      -0.1977
     27  CA        11.6130   10.0480   17.8460 C.3    25  ALA25       0.1597
     28  C         11.0820   10.8320   19.0520 C.2    25  ALA25       0.2287
     29  O         10.1810   11.6530   18.8820 O.2    25  ALA25      -0.2864
     30  CB        10.9910    8.6590   17.8080 C.3    25  ALA25       0.0319
     31  N         19.9980   11.5830   20.8670 N.3    29  VAL29      -0.1245
     32  CA        20.8360   10.4440   20.4960 C.3    29  VAL29       0.1561
     33  C         22.3000   10.9030   20.4750 C.2    29  VAL29       0.2260
     34  O         22.6240   11.9650   19.9300 O.2    29  VAL29      -0.2867
     35  CB        20.3930    9.7680   19.1620 C.3    29  VAL29       0.0252
     36  CG1       21.3030    8.5950   18.7880 C.3    29  VAL29       0.0019
     37  CG2       18.9390    9.2980   19.2400 C.3    29  VAL29       0.0019
     38  N         25.4310    3.3880   19.8380 N.3    42  ALA42      -0.1245
     39  CA        24.4300    4.4660   19.7510 C.3    42  ALA42       0.1562
     40  C         23.6290    4.4510   21.0430 C.2    42  ALA42       0.2260
     41  O         23.2830    3.3670   21.5040 O.2    42  ALA42      -0.2867
     42  CB        23.4990    4.2460   18.5510 C.3    42  ALA42       0.0290
     43  N         20.2220    6.3000   22.8280 N.3    44  LYS44      -0.1245
     44  CA        19.0880    7.1970   22.7100 C.3    44  LYS44       0.1561
     45  C         18.5420    7.4880   24.1230 C.2    44  LYS44       0.2260
     46  O         18.3270    6.5550   24.9020 O.2    44  LYS44      -0.2867
     47  CB        18.0210    6.5640   21.7880 C.3    44  LYS44       0.0271
     48  CG        16.7350    7.3800   21.6110 C.3    44  LYS44       0.0035
     49  CD        15.6480    6.5460   20.9300 C.3    44  LYS44       0.0206
     50  CE        14.4010    7.3470   20.6180 C.3    44  LYS44       0.1093
     51  NZ        13.1690    6.5060   20.6840 N.3    44  LYS44      -0.1314
     52  N         22.1310    0.6910   21.4210 N.3    95  GLN95      -0.1231
     53  CA        22.1040   -0.1130   20.1910 C.3    95  GLN95       0.1698
     54  C         23.4550   -0.0670   19.4600 C.2    95  GLN95       0.2592
     55  O         24.2680    0.8380   19.6880 O.2    95  GLN95      -0.2718
     56  CB        20.9970    0.4150   19.2500 C.3    95  GLN95       0.0381
     57  CG        19.5930    0.3680   19.8700 C.3    95  GLN95       0.0905
     58  CD        18.5220    0.9790   19.0080 C.2    95  GLN95       0.2608
     59  OE1       18.7630    1.8420   18.1650 O.2    95  GLN95      -0.2717
     60  NE2       17.3190    0.5070   19.1840 N.am   95  GLN95      -0.0878
     61  N         23.6750   -1.0140   18.5350 N.am   96  ASP96      -0.1960
     62  CA        24.8580   -0.9880   17.6630 C.3    96  ASP96       0.1840
     63  C         24.8870    0.3400   16.9020 C.2    96  ASP96       0.2622
     64  O         23.8330    0.8150   16.4590 O.2    96  ASP96      -0.2715
     65  CB        24.8040   -2.1530   16.6550 C.3    96  ASP96       0.1450
     66  CG        24.9650   -3.5270   17.2710 C.2    96  ASP96       0.3671
     67  OD1       25.3740   -3.6060   18.4570 O.co2  96  ASP96      -0.2456
     68  OD2       24.6070   -4.5190   16.6010 O.co2  96  ASP96      -0.2456
     69  N         26.0600    0.9670   16.8150 N.am   97  LEU97      -0.1963
     70  CA        26.1920    2.2260   16.1110 C.3    97  LEU97       0.1728
     71  C         26.2190    1.9540   14.6000 C.2    97  LEU97       0.2616
     72  O         27.0000    1.1320   14.1090 O.2    97  LEU97      -0.2715
     73  CB        27.4400    2.9980   16.5720 C.3    97  LEU97       0.0311
     74  CG        27.7020    4.3580   15.9070 C.3    97  LEU97       0.0022
     75  CD1       26.7010    5.4040   16.3800 C.3    97  LEU97       0.0001
     76  CD2       29.1190    4.8400   16.2050 C.3    97  LEU97       0.0001
     77  N         25.3120    2.6120   13.8830 N.am   98  MET98      -0.1963
     78  CA        25.2330    2.4530   12.4410 C.3    98  MET98       0.1736
     79  C         25.8790    3.6840   11.8220 C.2    98  MET98       0.2616
     80  O         25.9880    4.7010   12.4990 O.2    98  MET98      -0.2715
     81  CB        23.7610    2.2460   12.0160 C.3    98  MET98       0.0427
     82  CG        23.1060    1.0180   12.6880 C.3    98  MET98       0.0599
     83  SD        23.8610   -0.5830   12.2400 S.3    98  MET98      -0.1393
     84  CE        22.9420   -0.9440   10.7730 C.3    98  MET98       0.0692
     85  N         26.3710    3.5810   10.5800 N.am   99  GLU99      -0.1963
     86  CA        27.0590    4.6900    9.9050 C.3    99  GLU99       0.1733
     87  C         26.0670    5.7440    9.4170 C.2    99  GLU99       0.2617
     88  O         26.3710    6.9230    9.4780 O.2    99  GLU99      -0.2715
     89  CB        27.9170    4.1600    8.7220 C.3    99  GLU99       0.0429
     90  CG        28.5910    5.2300    7.8670 C.3    99  GLU99       0.1163
     91  CD        29.6620    4.7020    6.9330 C.2    99  GLU99       0.3649
     92  OE1       30.7220    4.2690    7.4390 O.co2  99  GLU99      -0.2457
     93  OE2       29.4550    4.7390    5.6980 O.co2  99  GLU99      -0.2457
     94  N         24.9060    5.3280    8.8950 N.am  100  THR100     -0.1937
     95  CA        23.9250    6.2460    8.3190 C.3   100  THR100      0.2028
     96  C         22.5430    5.5600    8.2680 C.2   100  THR100      0.2642
     97  O         22.3740    4.4600    8.7980 O.2   100  THR100     -0.2714
     98  CB        24.4240    6.6610    6.8930 C.3   100  THR100      0.1808
     99  OG1       23.6210    7.7070    6.3830 O.3   100  THR100     -0.2208
    100  CG2       24.4920    5.4840    5.9000 C.3   100  THR100      0.0379
    101  N         21.5720    6.2220    7.6340 N.am  101  ASP101     -0.1971
    102  CA        20.2500    5.6620    7.3430 C.3   101  ASP101      0.1709
    103  C         19.9950    5.8670    5.8460 C.2   101  ASP101      0.2293
    104  O         20.6570    6.7060    5.2240 O.2   101  ASP101     -0.2864
    105  CB        19.1380    6.2440    8.2230 C.3   101  ASP101      0.1436
    106  CG        18.9630    7.7370    8.1310 C.2   101  ASP101      0.3671
    107  OD1       18.6280    8.2210    7.0470 O.co2 101  ASP101     -0.2456
    108  OD2       19.1120    8.4120    9.1600 O.co2 101  ASP101     -0.2456
    109  N         19.3700    9.6550    4.5710 N.3   104  LYS104     -0.1245
    110  CA        20.5770   10.4840    4.4180 C.3   104  LYS104      0.1561
    111  C         21.3550   10.0370    3.2080 C.2   104  LYS104      0.2260
    112  O         21.7800   10.8720    2.4270 O.2   104  LYS104     -0.2867
    113  CB        21.4610   10.4270    5.6730 C.3   104  LYS104      0.0271
    114  CG        20.7780   10.9370    6.9250 C.3   104  LYS104      0.0035
    115  CD        21.6360   10.6710    8.1650 C.3   104  LYS104      0.0206
    116  CE        21.5490   11.7670    9.2060 C.3   104  LYS104      0.1093
    117  NZ        20.1520   12.0160    9.6550 N.3   104  LYS104     -0.1314
    118  N         14.1950    6.6650    6.4750 N.3   143  SER143     -0.1217
    119  CA        14.7940    7.0870    7.7620 C.3   143  SER143      0.1889
    120  C         14.6910    5.9900    8.8360 C.2   143  SER143      0.2288
    121  O         15.4150    6.0580    9.8340 O.2   143  SER143     -0.2866
    122  CB        14.1930    8.4000    8.2660 C.3   143  SER143      0.2089
    123  OG        12.7830    8.3230    8.3900 O.3   143  SER143     -0.2183
    124  N         18.4990    1.6140    8.8560 N.3   146  LEU146     -0.1245
    125  CA        19.8550    1.9690    9.2350 C.3   146  LEU146      0.1561
    126  C         20.8410    1.1300    8.5050 C.2   146  LEU146      0.2260
    127  O         20.5610   -0.0360    8.2060 O.2   146  LEU146     -0.2867
    128  CB        20.0690    1.8120   10.7420 C.3   146  LEU146      0.0270
    129  CG        19.0450    2.5020   11.6380 C.3   146  LEU146      0.0019
    130  CD1       19.1640    1.9920   13.0820 C.3   146  LEU146      0.0001
    131  CD2       19.1870    4.0280   11.5600 C.3   146  LEU146      0.0001
@<TRIPOS>BOND
     1   112   111    2
     2   111   110    1
     3   110   109    1
     4   110   113    1
     5   104   103    2
     6   113   114    1
     7    93    91   ar
     8   103   102    1
     9   100    98    1
    10    99    98    1
    11   118   119    1
    12    98    95    1
    13   114   115    1
    14    91    92   ar
    15    91    90    1
    16   107   106   ar
    17   102   101    1
    18   102   105    1
    19   101    96   am
    20   119   122    1
    21   119   120    1
    22    90    89    1
    23   106   105    1
    24   106   108   ar
    25   115   116    1
    26   127   126    2
    27   122   123    1
    28    96    95    1
    29    96    97    2
    30    95    94    1
    31   126   125    1
    32    89    86    1
    33   120   121    2
    34   124   125    1
    35    94    87   am
    36   116   117    1
    37   125   128    1
    38    87    88    2
    39    87    86    1
    40    86    85    1
    41    85    79   am
    42   128   129    1
    43    84    83    1
    44   131   129    1
    45   129   130    1
    46    79    78    1
    47    79    80    2
    48    81    78    1
    49    81    82    1
    50    83    82    1
    51    78    77    1
    52    77    71   am
    53    72    71    2
    54    71    70    1
    55     4     3    2
    56    74    76    1
    57    74    75    1
    58    74    73    1
    59     7     5    1
    60    16    15    2
    61    70    73    1
    62    70    69    1
    63     3     2    1
    64     3     9   am
    65    64    63    2
    66    68    66   ar
    67    65    66    1
    68    65    62    1
    69    10     9    1
    70    10    11    1
    71    69    63   am
    72     2     5    1
    73     2     1    1
    74    63    62    1
    75     6     5    1
    76     6     8    1
    77    13    11   am
    78    13    14    1
    79    15    14    1
    80    15    22   am
    81    66    67   ar
    82    25    24    2
    83    62    61    1
    84    11    12    2
    85    24    23    1
    86    24    26   am
    87    23    22    1
    88    17    14    1
    89    17    18    1
    90    30    27    1
    91    27    26    1
    92    27    28    1
    93    59    58    2
    94    61    54   am
    95    42    39    1
    96    18    19    1
    97    36    35    1
    98    29    28    2
    99    58    60   am
   100    58    57    1
   101    35    37    1
   102    35    32    1
   103    56    57    1
   104    56    53    1
   105    54    55    2
   106    54    53    1
   107    39    38    1
   108    39    40    1
   109    34    33    2
   110    19    21   ar
   111    19    20   ar
   112    53    52    1
   113    33    32    1
   114    32    31    1
   115    50    51    1
   116    50    49    1
   117    49    48    1
   118    40    41    2
   119    48    47    1
   120    47    44    1
   121    44    43    1
   122    44    45    1
   123    45    46    2
