@<TRIPOS>MOLECULE
tmp/4fv1A00.pdb
 181 170 0 0 0
SMALL
GASTEIGER

@<TRIPOS>ATOM
      1  N         24.4980   11.5980   18.0060 N.3    21  ILE21      -0.1231
      2  CA        24.2240   11.0490   16.6720 C.3    21  ILE21       0.1692
      3  C         23.1020   11.8810   16.0330 C.2    21  ILE21       0.2593
      4  O         23.2910   12.4400   14.9520 O.2    21  ILE21      -0.2718
      5  CB        23.8960    9.5210   16.6840 C.3    21  ILE21       0.0266
      6  CG1       25.1220    8.6860   17.1200 C.3    21  ILE21       0.0019
      7  CG2       23.3730    9.0510   15.3030 C.3    21  ILE21       0.0020
      8  CD1       24.8020    7.2350   17.5270 C.3    21  ILE21       0.0001
      9  N         21.9540   11.9370   16.7020 N.am   22  GLY22      -0.1942
     10  CA        20.7780   12.6500   16.2210 C.3    22  GLY22       0.2014
     11  C         19.6440   12.7070   17.2240 C.2    22  GLY22       0.2639
     12  O         19.7350   12.1330   18.3150 O.2    22  GLY22      -0.2714
     13  N         18.5590   13.4000   16.8480 N.am   23  GLU23      -0.1963
     14  CA        17.3910   13.5810   17.7040 C.3    23  GLU23       0.1733
     15  C         16.0830   13.1750   17.0180 C.2    23  GLU23       0.2616
     16  O         16.0530   12.8540   15.8240 O.2    23  GLU23      -0.2715
     17  CB        17.2970   15.0510   18.1540 C.3    23  GLU23       0.0429
     18  CG        17.1350   15.2280   19.6530 C.3    23  GLU23       0.1163
     19  CD        17.3740   16.6470   20.1290 C.2    23  GLU23       0.3649
     20  OE1       16.3940   17.3120   20.5340 O.co2  23  GLU23      -0.2457
     21  OE2       18.5400   17.1000   20.0810 O.co2  23  GLU23      -0.2457
     22  N         15.0230   13.2080   17.8170 N.am   24  GLY24      -0.1955
     23  CA        13.6430   12.9260   17.4540 C.3    24  GLY24       0.1869
     24  C         12.7490   13.4560   18.5580 C.2    24  GLY24       0.2309
     25  O         13.2370   13.7090   19.6630 O.2    24  GLY24      -0.2863
     26  N         10.5150   11.8160   20.0760 N.3    26  TYR26      -0.1227
     27  CA        10.3990   10.7190   21.0200 C.3    26  TYR26       0.1736
     28  C         11.7920   10.1940   21.4820 C.2    26  TYR26       0.2596
     29  O         11.9470    8.9900   21.7060 O.2    26  TYR26      -0.2718
     30  CB         9.5310    9.5880   20.4360 C.3    26  TYR26       0.0548
     31  CG         9.9010    9.3030   19.0000 C.ar   26  TYR26      -0.0200
     32  CD1       10.9580    8.4730   18.6670 C.ar   26  TYR26      -0.0009
     33  CD2        9.1500    9.8790   17.9880 C.ar   26  TYR26      -0.0009
     34  CE1       11.2630    8.2320   17.3390 C.ar   26  TYR26       0.0417
     35  CE2        9.4510    9.6500   16.6570 C.ar   26  TYR26       0.0417
     36  CZ        10.5120    8.8280   16.3510 C.ar   26  TYR26       0.1957
     37  OH        10.7850    8.6030   15.0290 O.3    26  TYR26      -0.2866
     38  N         12.7600   11.1020   21.6850 N.am   27  GLY27      -0.1957
     39  CA        14.0800   10.7430   22.2110 C.3    27  GLY27       0.1869
     40  C         15.3360   11.2340   21.5130 C.2    27  GLY27       0.2309
     41  O         15.3000   11.6110   20.3390 O.2    27  GLY27      -0.2863
     42  N         19.4890   10.2550   20.5590 N.3    29  VAL29      -0.1245
     43  CA        20.3980    9.1320   20.3220 C.3    29  VAL29       0.1561
     44  C         21.8630    9.6050   20.3820 C.2    29  VAL29       0.2260
     45  O         22.2270   10.5990   19.7480 O.2    29  VAL29      -0.2867
     46  CB        20.0870    8.3800   18.9930 C.3    29  VAL29       0.0252
     47  CG1       20.9680    7.1360   18.8350 C.3    29  VAL29       0.0019
     48  CG2       18.6120    7.9940   18.9110 C.3    29  VAL29       0.0019
     49  N         25.0200    2.2270   20.5520 N.3    42  ALA42      -0.1245
     50  CA        24.1090    3.3480   20.3910 C.3    42  ALA42       0.1562
     51  C         23.1830    3.3590   21.5990 C.2    42  ALA42       0.2260
     52  O         22.7880    2.2890   22.0770 O.2    42  ALA42      -0.2867
     53  CB        23.3200    3.2170   19.1020 C.3    42  ALA42       0.0290
     54  N         19.6970    5.3340   23.1780 N.3    44  LYS44      -0.1245
     55  CA        18.5540    6.2080   22.9760 C.3    44  LYS44       0.1561
     56  C         17.9520    6.5680   24.3350 C.2    44  LYS44       0.2260
     57  O         17.5550    5.6760   25.0890 O.2    44  LYS44      -0.2867
     58  CB        17.5200    5.5300   22.0640 C.3    44  LYS44       0.0271
     59  CG        16.3130    6.3970   21.7070 C.3    44  LYS44       0.0035
     60  CD        15.4440    5.7530   20.6140 C.3    44  LYS44       0.0206
     61  CE        14.7100    4.4990   21.0440 C.3    44  LYS44       0.1093
     62  NZ        13.7260    4.0710   20.0110 N.3    44  LYS44      -0.1314
     63  N          7.6430   -1.0520   21.3990 N.3    61  GLU61      -0.1245
     64  CA         9.0030   -1.2870   20.9280 C.3    61  GLU61       0.1567
     65  C          9.7940   -2.2040   21.8730 C.2    61  GLU61       0.2260
     66  O         10.4010   -3.1670   21.4040 O.2    61  GLU61      -0.2867
     67  CB         9.7500    0.0350   20.7330 C.3    61  GLU61       0.0388
     68  CG        11.2370   -0.1950   20.5430 C.3    61  GLU61       0.1160
     69  CD        11.9780    0.8910   19.8150 C.2    61  GLU61       0.3649
     70  OE1       12.6050    1.7320   20.4930 O.co2  61  GLU61      -0.2457
     71  OE2       11.9660    0.8770   18.5660 O.co2  61  GLU61      -0.2457
     72  N         17.0480   -4.2460   14.4420 N.3    74  ILE74      -0.1245
     73  CA        17.8090   -3.6780   15.5610 C.3    74  ILE74       0.1561
     74  C         17.4260   -4.4220   16.8660 C.2    74  ILE74       0.2260
     75  O         16.2610   -4.7810   17.0820 O.2    74  ILE74      -0.2867
     76  CB        17.5900   -2.1390   15.6750 C.3    74  ILE74       0.0252
     77  CG1       18.7850   -1.4640   16.3890 C.3    74  ILE74       0.0019
     78  CG2       16.2280   -1.7790   16.3370 C.3    74  ILE74       0.0019
     79  CD1       18.6350    0.0310   16.5840 C.3    74  ILE74       0.0001
     80  N         21.3410   -0.0830   22.0220 N.3    95  GLN95      -0.1231
     81  CA        21.0760   -0.8280   20.7830 C.3    95  GLN95       0.1698
     82  C         22.3260   -0.9300   19.9080 C.2    95  GLN95       0.2592
     83  O         23.3720   -0.3920   20.2700 O.2    95  GLN95      -0.2718
     84  CB        19.9270   -0.1380   20.0050 C.3    95  GLN95       0.0381
     85  CG        18.6260   -0.0100   20.8030 C.3    95  GLN95       0.0905
     86  CD        17.5110    0.6440   20.0430 C.2    95  GLN95       0.2608
     87  OE1       17.4150    1.8750   19.9780 O.2    95  GLN95      -0.2717
     88  NE2       16.6060   -0.1650   19.5020 N.am   95  GLN95      -0.0878
     89  N         22.2110   -1.6210   18.7490 N.am   96  ASP96      -0.1960
     90  CA        23.2970   -1.7520   17.7800 C.3    96  ASP96       0.1840
     91  C         23.7400   -0.3750   17.2960 C.2    96  ASP96       0.2622
     92  O         22.8920    0.4910   17.0350 O.2    96  ASP96      -0.2715
     93  CB        22.8630   -2.5920   16.5560 C.3    96  ASP96       0.1450
     94  CG        22.3080   -3.9740   16.8490 C.2    96  ASP96       0.3671
     95  OD1       23.0680   -4.9540   16.7230 O.co2  96  ASP96      -0.2456
     96  OD2       21.0960   -4.0800   17.1230 O.co2  96  ASP96      -0.2456
     97  N         25.0550   -0.1720   17.1810 N.am   97  LEU97      -0.1963
     98  CA        25.5880    1.0710   16.6570 C.3    97  LEU97       0.1728
     99  C         25.7590    0.9050   15.1600 C.2    97  LEU97       0.2616
    100  O         26.3760   -0.0650   14.7060 O.2    97  LEU97      -0.2715
    101  CB        26.9100    1.4780   17.3380 C.3    97  LEU97       0.0311
    102  CG        27.5930    2.7540   16.8050 C.3    97  LEU97       0.0022
    103  CD1       26.7110    3.9910   16.9760 C.3    97  LEU97       0.0001
    104  CD2       28.9140    2.9800   17.4930 C.3    97  LEU97       0.0001
    105  N         25.1770    1.8360   14.3930 N.am   98  MET98      -0.1963
    106  CA        25.2390    1.8340   12.9290 C.3    98  MET98       0.1736
    107  C         25.8070    3.1790   12.4690 C.2    98  MET98       0.2616
    108  O         25.8550    4.1120   13.2680 O.2    98  MET98      -0.2715
    109  CB        23.8500    1.5410   12.3270 C.3    98  MET98       0.0427
    110  CG        23.2020    0.2590   12.8870 C.3    98  MET98       0.0599
    111  SD        24.0430   -1.2860   12.4500 S.3    98  MET98      -0.1393
    112  CE        23.3350   -1.5910   10.8520 C.3    98  MET98       0.0692
    113  N         26.3050    3.2560   11.2290 N.am   99  GLU99      -0.1963
    114  CA        26.9480    4.4670   10.7000 C.3    99  GLU99       0.1733
    115  C         25.9280    5.5390   10.3300 C.2    99  GLU99       0.2617
    116  O         26.1070    6.7020   10.6950 O.2    99  GLU99      -0.2715
    117  CB        27.8100    4.1390    9.4630 C.3    99  GLU99       0.0429
    118  CG        28.7840    5.2540    9.0900 C.3    99  GLU99       0.1163
    119  CD        29.2720    5.3140    7.6520 C.2    99  GLU99       0.3649
    120  OE1       29.8910    6.3400    7.2890 O.co2  99  GLU99      -0.2457
    121  OE2       29.0460    4.3460    6.8890 O.co2  99  GLU99      -0.2457
    122  N         24.8680    5.1530    9.5880 N.am  100  THR100     -0.1937
    123  CA        23.8740    6.1060    9.1100 C.3   100  THR100      0.2028
    124  C         22.5020    5.4210    8.9180 C.2   100  THR100      0.2642
    125  O         22.3040    4.2750    9.3310 O.2   100  THR100     -0.2714
    126  CB        24.4140    6.7450    7.7890 C.3   100  THR100      0.1808
    127  OG1       23.6070    7.8640    7.4220 O.3   100  THR100     -0.2208
    128  CG2       24.5150    5.7340    6.6100 C.3   100  THR100      0.0379
    129  N         21.5530    6.1520    8.3220 N.am  101  ASP101     -0.1971
    130  CA        20.2320    5.6320    7.9810 C.3   101  ASP101      0.1709
    131  C         20.0390    5.8440    6.4790 C.2   101  ASP101      0.2293
    132  O         20.8070    6.5910    5.8760 O.2   101  ASP101     -0.2864
    133  CB        19.1110    6.2610    8.8380 C.3   101  ASP101      0.1436
    134  CG        18.9250    7.7640    8.7140 C.2   101  ASP101      0.3671
    135  OD1       18.6830    8.2370    7.5980 O.co2 101  ASP101     -0.2456
    136  OD2       18.8930    8.4430    9.7530 O.co2 101  ASP101     -0.2456
    137  N         19.3960    9.6380    5.2920 N.3   104  LYS104     -0.1245
    138  CA        20.6260   10.4430    5.2060 C.3   104  LYS104      0.1561
    139  C         21.4310   10.0650    3.9590 C.2   104  LYS104      0.2260
    140  O         21.8520   10.9570    3.2300 O.2   104  LYS104     -0.2867
    141  CB        21.4800   10.2770    6.4730 C.3   104  LYS104      0.0271
    142  CG        20.8700   10.9180    7.7240 C.3   104  LYS104      0.0035
    143  CD        21.6470   10.5740    9.0030 C.3   104  LYS104      0.0206
    144  CE        22.8200   11.4970    9.2610 C.3   104  LYS104      0.1093
    145  NZ        23.7230   10.9640   10.3170 N.3   104  LYS104     -0.1314
    146  N         14.2670    6.5410    6.9670 N.3   143  SER143     -0.1202
    147  CA        14.9140    6.9100    8.2500 C.3   143  SER143      0.2020
    148  C         14.8210    5.7810    9.3090 C.2   143  SER143      0.2618
    149  O         15.5410    5.8350   10.3100 O.2   143  SER143     -0.2717
    150  CB        14.3610    8.2240    8.8030 C.3   143  SER143      0.2103
    151  OG        12.9980    8.1190    9.1850 O.3   143  SER143     -0.2182
    152  N         13.9780    4.7550    9.0740 N.am  144  ASN144     -0.1974
    153  CA        13.8460    3.6190   10.0080 C.3   144  ASN144      0.1688
    154  C         14.6260    2.4130    9.5260 C.2   144  ASN144      0.2292
    155  O         14.4300    1.2980   10.0170 O.2   144  ASN144     -0.2864
    156  CB        12.3660    3.2760   10.2630 C.3   144  ASN144      0.1181
    157  CG        11.7410    4.2850   11.1830 C.2   144  ASN144      0.2629
    158  OD1       12.4280    4.9680   11.9510 O.2   144  ASN144     -0.2716
    159  ND2       10.4400    4.4390   11.1010 N.am  144  ASN144     -0.0877
    160  N         18.5840    1.3990    9.2390 N.3   146  LEU146     -0.1245
    161  CA        19.9570    1.7570    9.5840 C.3   146  LEU146      0.1561
    162  C         20.9500    0.9550    8.7720 C.2   146  LEU146      0.2260
    163  O         20.6850   -0.1910    8.4350 O.2   146  LEU146     -0.2867
    164  CB        20.2260    1.5640   11.0820 C.3   146  LEU146      0.0270
    165  CG        19.1880    2.1530   12.0460 C.3   146  LEU146      0.0019
    166  CD1       19.4660    1.7170   13.4490 C.3   146  LEU146      0.0001
    167  CD2       19.1170    3.6830   11.9520 C.3   146  LEU146      0.0001
    168  N         14.5850   -0.4170   12.2600 N.3   155  CYS155     -0.1221
    169  CA        14.4290    0.0900   13.6280 C.3   155  CYS155      0.1808
    170  C         13.0560    0.7670   13.8190 C.2   155  CYS155      0.2601
    171  O         12.2510    0.8060   12.8920 O.2   155  CYS155     -0.2717
    172  CB        15.5880    1.0210   14.0030 C.3   155  CYS155      0.0970
    173  SG        15.5960    2.6110   13.1300 S.3   155  CYS155     -0.0800
    174  N         12.8020    1.2740   15.0430 N.am  156  ASP156     -0.1973
    175  CA        11.6050    1.9900   15.4860 C.3   156  ASP156      0.1709
    176  C         10.3080    1.1640   15.3260 C.2   156  ASP156      0.2293
    177  O          9.6020    1.2730   14.3200 O.2   156  ASP156     -0.2864
    178  CB        11.4620    3.3590   14.7920 C.3   156  ASP156      0.1436
    179  CG        10.4870    4.2870   15.4910 C.2   156  ASP156      0.3671
    180  OD1       10.3510    5.4390   15.0490 O.co2 156  ASP156     -0.2456
    181  OD2        9.8660    3.8610   16.4820 O.co2 156  ASP156     -0.2456
@<TRIPOS>BOND
     1   140   139    2
     2   139   138    1
     3   138   137    1
     4   138   141    1
     5   132   131    2
     6   141   142    1
     7   131   130    1
     8   128   126    1
     9   121   119   ar
    10   146   147    1
    11   120   119   ar
    12   127   126    1
    13   135   134   ar
    14   119   118    1
    15   142   143    1
    16   126   123    1
    17   130   129    1
    18   130   133    1
    19   147   150    1
    20   147   148    1
    21   129   124   am
    22   163   162    2
    23   134   133    1
    24   134   136   ar
    25   162   161    1
    26   150   151    1
    27   124   123    1
    28   124   125    2
    29   143   144    1
    30   152   148   am
    31   152   153    1
    32   118   117    1
    33   123   122    1
    34   160   161    1
    35   144   145    1
    36   148   149    2
    37   117   114    1
    38   154   153    1
    39   154   155    2
    40   161   164    1
    41   122   115   am
    42   153   156    1
    43   156   157    1
    44   115   116    2
    45   115   114    1
    46   114   113    1
    47   112   111    1
    48   164   165    1
    49   159   157   am
    50   157   158    2
    51   113   107   am
    52   167   165    1
    53   165   166    1
    54   168   169    1
    55   109   110    1
    56   109   106    1
    57   111   110    1
    58   107   106    1
    59   107   108    2
    60   171   170    2
    61   106   105    1
    62   173   172    1
    63   169   170    1
    64   169   172    1
    65   170   174   am
    66   177   176    2
    67   105    99   am
    68    72    73    1
    69   100    99    2
    70   178   175    1
    71   178   179    1
    72     4     3    2
    73    37    36    1
    74   174   175    1
    75   180   179   ar
    76    99    98    1
    77     7     5    1
    78   176   175    1
    79   179   181   ar
    80    73    76    1
    81    73    74    1
    82    76    78    1
    83    76    77    1
    84    16    15    2
    85     3     2    1
    86     3     9   am
    87    10     9    1
    88    10    11    1
    89    36    35   ar
    90    36    34   ar
    91    77    79    1
    92    93    94    1
    93    93    90    1
    94    35    33   ar
    95    98    97    1
    96    98   101    1
    97     2     5    1
    98     2     1    1
    99     5     6    1
   100    95    94   ar
   101   102   103    1
   102   102   101    1
   103   102   104    1
   104    13    11   am
   105    13    14    1
   106    94    96   ar
   107    74    75    2
   108    15    14    1
   109    15    22   am
   110    92    91    2
   111     6     8    1
   112    97    91   am
   113    11    12    2
   114    91    90    1
   115    34    32   ar
   116    23    22    1
   117    23    24    1
   118    14    17    1
   119    90    89    1
   120    33    31   ar
   121    17    18    1
   122    24    25    2
   123    71    69   ar
   124    32    31   ar
   125    89    82   am
   126    47    46    1
   127    48    46    1
   128    46    43    1
   129    31    30    1
   130    53    50    1
   131    88    86   am
   132    18    19    1
   133    45    44    2
   134    69    70   ar
   135    69    68    1
   136    82    83    2
   137    82    81    1
   138    87    86    2
   139    84    81    1
   140    84    85    1
   141    62    61    1
   142    86    85    1
   143    26    27    1
   144    21    19   ar
   145    19    20   ar
   146    43    44    1
   147    43    42    1
   148    41    40    2
   149    50    49    1
   150    50    51    1
   151    30    27    1
   152    68    67    1
   153    60    61    1
   154    60    59    1
   155    67    64    1
   156    81    80    1
   157    64    63    1
   158    64    65    1
   159    27    28    1
   160    66    65    2
   161    28    38   am
   162    28    29    2
   163    40    39    1
   164    51    52    2
   165    38    39    1
   166    59    58    1
   167    58    55    1
   168    55    54    1
   169    55    56    1
   170    56    57    2
