@<TRIPOS>MOLECULE
tmp/4fv2A00.pdb
 194 183 0 0 0
SMALL
GASTEIGER

@<TRIPOS>ATOM
      1  N         23.8890   11.7460   18.0620 N.3    21  ILE21      -0.1231
      2  CA        23.5730   11.1440   16.7540 C.3    21  ILE21       0.1692
      3  C         22.3210   11.8350   16.1750 C.2    21  ILE21       0.2593
      4  O         22.3950   12.4320   15.1010 O.2    21  ILE21      -0.2718
      5  CB        23.4140    9.5950   16.7880 C.3    21  ILE21       0.0266
      6  CG1       24.7100    8.9000   17.2450 C.3    21  ILE21       0.0019
      7  CG2       22.9680    9.0640   15.4080 C.3    21  ILE21       0.0020
      8  CD1       24.5280    7.4460   17.6700 C.3    21  ILE21       0.0001
      9  N         21.2010   11.7230   16.8850 N.am   22  GLY22      -0.1942
     10  CA        19.9140   12.2860   16.4860 C.3    22  GLY22       0.2014
     11  C         18.8830   12.2190   17.5940 C.2    22  GLY22       0.2639
     12  O         19.1900   11.7320   18.6850 O.2    22  GLY22      -0.2714
     13  N         17.6400   12.6810   17.3210 N.am   23  GLU23      -0.1963
     14  CA        16.5810   12.6970   18.3380 C.3    23  GLU23       0.1733
     15  C         15.1550   12.6340   17.7640 C.2    23  GLU23       0.2617
     16  O         14.9550   12.7280   16.5520 O.2    23  GLU23      -0.2715
     17  CB        16.7140   13.9570   19.2280 C.3    23  GLU23       0.0429
     18  CG        16.5380   15.2840   18.5050 C.3    23  GLU23       0.1163
     19  CD        16.7830   16.4800   19.4010 C.2    23  GLU23       0.3649
     20  OE1       15.8000   17.0110   19.9680 O.co2  23  GLU23      -0.2457
     21  OE2       17.9650   16.8570   19.5710 O.co2  23  GLU23      -0.2457
     22  N         14.1920   12.4930   18.6760 N.am   24  GLY24      -0.1940
     23  CA        12.7600   12.4550   18.4130 C.3    24  GLY24       0.2014
     24  C         12.0220   13.4290   19.3100 C.2    24  GLY24       0.2639
     25  O         12.6520   14.2730   19.9550 O.2    24  GLY24      -0.2714
     26  N         10.6860   13.3110   19.3740 N.am   25  ALA25      -0.1963
     27  CA         9.8340   14.1970   20.1780 C.3    25  ALA25       0.1728
     28  C          9.9290   13.9040   21.6750 C.2    25  ALA25       0.2616
     29  O          9.9030   14.8380   22.4840 O.2    25  ALA25      -0.2715
     30  CB         8.3870   14.0770   19.7300 C.3    25  ALA25       0.0334
     31  N         10.0180   12.6110   22.0430 N.am   26  TYR26      -0.1960
     32  CA        10.0760   12.1510   23.4320 C.3    26  TYR26       0.1771
     33  C         11.3930   11.4190   23.7460 C.2    26  TYR26       0.2620
     34  O         11.5110   10.8130   24.8110 O.2    26  TYR26      -0.2715
     35  CB         8.8870   11.2210   23.7120 C.3    26  TYR26       0.0574
     36  CG         8.8220    9.9800   22.8510 C.ar   26  TYR26      -0.0198
     37  CD1        8.3050   10.0120   21.5610 C.ar   26  TYR26      -0.0009
     38  CD2        9.1850    8.7490   23.3780 C.ar   26  TYR26      -0.0009
     39  CE1        8.2220    8.8760   20.7890 C.ar   26  TYR26       0.0417
     40  CE2        9.0900    7.5960   22.5930 C.ar   26  TYR26       0.0417
     41  CZ         8.6210    7.6620   21.3130 C.ar   26  TYR26       0.1957
     42  OH         8.4930    6.5030   20.5340 O.3    26  TYR26      -0.2866
     43  N         12.3670   11.4960   22.8390 N.am   27  GLY27      -0.1954
     44  CA        13.6460   10.8290   23.0280 C.3    27  GLY27       0.1869
     45  C         14.8550   11.4790   22.3930 C.2    27  GLY27       0.2309
     46  O         14.7380   12.5000   21.7100 O.2    27  GLY27      -0.2863
     47  N         19.0860   10.0180   20.9490 N.3    29  VAL29      -0.1245
     48  CA        20.0420    8.9250   20.7210 C.3    29  VAL29       0.1561
     49  C         21.4850    9.4710   20.7000 C.2    29  VAL29       0.2260
     50  O         21.7580   10.5190   20.1040 O.2    29  VAL29      -0.2867
     51  CB        19.7200    8.0880   19.4410 C.3    29  VAL29       0.0252
     52  CG1       20.6440    6.8690   19.3180 C.3    29  VAL29       0.0019
     53  CG2       18.2610    7.6370   19.4260 C.3    29  VAL29       0.0019
     54  N         24.7300    2.2690   20.6040 N.3    42  ALA42      -0.1245
     55  CA        23.7810    3.3590   20.4580 C.3    42  ALA42       0.1562
     56  C         22.8830    3.3020   21.6630 C.2    42  ALA42       0.2260
     57  O         22.4780    2.2180   22.0850 O.2    42  ALA42      -0.2867
     58  CB        22.9800    3.2370   19.1650 C.3    42  ALA42       0.0290
     59  N         19.4750    5.0740   23.3340 N.3    44  LYS44      -0.1245
     60  CA        18.3200    5.9160   23.1190 C.3    44  LYS44       0.1561
     61  C         17.6770    6.2490   24.4540 C.2    44  LYS44       0.2260
     62  O         17.1270    5.3660   25.1190 O.2    44  LYS44      -0.2867
     63  CB        17.3170    5.2320   22.1680 C.3    44  LYS44       0.0271
     64  CG        16.0330    6.0230   21.9600 C.3    44  LYS44       0.0035
     65  CD        15.2300    5.5060   20.7910 C.3    44  LYS44       0.0206
     66  CE        14.3660    4.3250   21.1450 C.3    44  LYS44       0.1093
     67  NZ        13.4180    4.0210   20.0430 N.3    44  LYS44      -0.1314
     68  N         14.7240    7.9090   26.4010 N.3    46  ILE46      -0.1245
     69  CA        13.3360    8.2750   26.1560 C.3    46  ILE46       0.1561
     70  C         12.7150    8.7470   27.4660 C.2    46  ILE46       0.2260
     71  O         12.9590    8.1670   28.5280 O.2    46  ILE46      -0.2867
     72  CB        12.4760    7.1950   25.4440 C.3    46  ILE46       0.0252
     73  CG1       12.6720    5.7900   26.0260 C.3    46  ILE46       0.0019
     74  CG2       12.6970    7.2160   23.9330 C.3    46  ILE46       0.0019
     75  CD1       11.5740    5.3900   26.8510 C.3    46  ILE46       0.0001
     76  N          7.3930   -1.1490   21.4870 N.3    61  GLU61      -0.1245
     77  CA         8.7220   -1.3770   20.9360 C.3    61  GLU61       0.1567
     78  C          9.5720   -2.2620   21.8660 C.2    61  GLU61       0.2260
     79  O         10.1970   -3.2020   21.3740 O.2    61  GLU61      -0.2867
     80  CB         9.4310   -0.0500   20.6390 C.3    61  GLU61       0.0388
     81  CG        10.9310   -0.2110   20.5440 C.3    61  GLU61       0.1160
     82  CD        11.6510    0.9790   19.9730 C.2    61  GLU61       0.3649
     83  OE1       12.0720    1.8540   20.7610 O.co2  61  GLU61      -0.2457
     84  OE2       11.7970    1.0300   18.7340 O.co2  61  GLU61      -0.2457
     85  N         16.9370   -4.2220   14.4490 N.3    74  ILE74      -0.1245
     86  CA        17.6930   -3.6590   15.5800 C.3    74  ILE74       0.1561
     87  C         17.3390   -4.4100   16.9110 C.2    74  ILE74       0.2260
     88  O         16.1880   -4.7890   17.1400 O.2    74  ILE74      -0.2867
     89  CB        17.4380   -2.1290   15.7020 C.3    74  ILE74       0.0252
     90  CG1       18.5970   -1.4450   16.4740 C.3    74  ILE74       0.0019
     91  CG2       16.0490   -1.8150   16.3260 C.3    74  ILE74       0.0019
     92  CD1       18.4190    0.0870   16.6070 C.3    74  ILE74       0.0001
     93  N         21.1650   -0.2160   22.1250 N.3    95  GLN95      -0.1231
     94  CA        20.9070   -0.8920   20.8460 C.3    95  GLN95       0.1698
     95  C         22.1310   -0.8930   19.9690 C.2    95  GLN95       0.2592
     96  O         23.1170   -0.2410   20.3050 O.2    95  GLN95      -0.2718
     97  CB        19.7420   -0.1910   20.1030 C.3    95  GLN95       0.0381
     98  CG        18.4460   -0.2130   20.8840 C.3    95  GLN95       0.0905
     99  CD        17.3100    0.4490   20.1770 C.2    95  GLN95       0.2608
    100  OE1       17.2100    1.6780   20.1500 O.2    95  GLN95      -0.2717
    101  NE2       16.4100   -0.3540   19.6210 N.am   95  GLN95      -0.0878
    102  N         22.0500   -1.6000   18.8080 N.am   96  ASP96      -0.1960
    103  CA        23.1040   -1.6560   17.8040 C.3    96  ASP96       0.1840
    104  C         23.4740   -0.2510   17.3460 C.2    96  ASP96       0.2622
    105  O         22.5910    0.5740   17.0960 O.2    96  ASP96      -0.2715
    106  CB        22.6510   -2.4780   16.5660 C.3    96  ASP96       0.1450
    107  CG        22.1910   -3.8870   16.8770 C.2    96  ASP96       0.3671
    108  OD1       22.9980   -4.8180   16.7110 O.co2  96  ASP96      -0.2456
    109  OD2       21.0170   -4.0530   17.2820 O.co2  96  ASP96      -0.2456
    110  N         24.7760    0.0140   17.2380 N.am   97  LEU97      -0.1963
    111  CA        25.2670    1.2840   16.7380 C.3    97  LEU97       0.1728
    112  C         25.4840    1.1290   15.2410 C.2    97  LEU97       0.2616
    113  O         26.1180    0.1640   14.8030 O.2    97  LEU97      -0.2715
    114  CB        26.5580    1.7120   17.4630 C.3    97  LEU97       0.0311
    115  CG        27.2510    2.9830   16.9300 C.3    97  LEU97       0.0022
    116  CD1       26.3840    4.2030   17.0860 C.3    97  LEU97       0.0001
    117  CD2       28.5940    3.1920   17.6230 C.3    97  LEU97       0.0001
    118  N         24.9180    2.0550   14.4600 N.am   98  MET98      -0.1963
    119  CA        24.9840    2.0370   12.9950 C.3    98  MET98       0.1736
    120  C         25.4180    3.4170   12.5180 C.2    98  MET98       0.2616
    121  O         24.8940    4.4050   13.0030 O.2    98  MET98      -0.2715
    122  CB        23.6190    1.6370   12.3920 C.3    98  MET98       0.0427
    123  CG        23.0570    0.3170   12.9600 C.3    98  MET98       0.0599
    124  SD        23.9680   -1.1840   12.5150 S.3    98  MET98      -0.1393
    125  CE        23.2230   -1.5240   10.9320 C.3    98  MET98       0.0692
    126  N         26.3450    3.4610   11.5480 N.am   99  GLU99      -0.1963
    127  CA        26.9480    4.6650   10.9340 C.3    99  GLU99       0.1733
    128  C         25.9020    5.6150   10.3420 C.2    99  GLU99       0.2617
    129  O         25.9350    6.8240   10.5820 O.2    99  GLU99      -0.2715
    130  CB        27.9710    4.2650    9.8230 C.3    99  GLU99       0.0429
    131  CG        28.2500    5.3520    8.7790 C.3    99  GLU99       0.1163
    132  CD        29.5380    5.2850    7.9830 C.2    99  GLU99       0.3649
    133  OE1       30.5590    5.8180    8.4760 O.co2  99  GLU99      -0.2457
    134  OE2       29.5100    4.7780    6.8370 O.co2  99  GLU99      -0.2457
    135  N         24.9840    5.0720    9.5060 N.am  100  THR100     -0.1937
    136  CA        24.0160    5.9380    8.8480 C.3   100  THR100      0.2028
    137  C         22.6180    5.2640    8.7350 C.2   100  THR100      0.2642
    138  O         22.3380    4.2300    9.3550 O.2   100  THR100     -0.2714
    139  CB        24.5820    6.3860    7.4490 C.3   100  THR100      0.1808
    140  OG1       23.7500    7.4080    6.9110 O.3   100  THR100     -0.2208
    141  CG2       24.7160    5.2250    6.4170 C.3   100  THR100      0.0379
    142  N         21.7450    5.9030    7.9690 N.am  101  ASP101     -0.1971
    143  CA        20.4130    5.3780    7.6840 C.3   101  ASP101      0.1709
    144  C         20.1450    5.6390    6.2280 C.2   101  ASP101      0.2293
    145  O         20.8890    6.4130    5.6010 O.2   101  ASP101     -0.2864
    146  CB        19.3430    5.9580    8.6340 C.3   101  ASP101      0.1436
    147  CG        19.1110    7.4530    8.5610 C.2   101  ASP101      0.3671
    148  OD1       18.7790    7.9410    7.4800 O.co2 101  ASP101     -0.2456
    149  OD2       19.1430    8.1110    9.6210 O.co2 101  ASP101     -0.2456
    150  N         19.3770    9.4750    5.2130 N.3   104  LYS104     -0.1245
    151  CA        20.6600   10.2150    5.1450 C.3   104  LYS104      0.1561
    152  C         21.4110    9.8780    3.8710 C.2   104  LYS104      0.2260
    153  O         21.7520   10.7990    3.1290 O.2   104  LYS104     -0.2867
    154  CB        21.5340    9.9250    6.3750 C.3   104  LYS104      0.0271
    155  CG        21.0090   10.5810    7.6440 C.3   104  LYS104      0.0035
    156  CD        21.9200   10.3000    8.8450 C.3   104  LYS104      0.0206
    157  CE        21.4540   11.0250   10.0900 C.3   104  LYS104      0.1093
    158  NZ        22.4110   10.8600   11.2160 N.3   104  LYS104     -0.1314
    159  N         14.2020    6.4930    6.9450 N.3   143  SER143     -0.1202
    160  CA        14.8650    6.8690    8.2180 C.3   143  SER143      0.2020
    161  C         14.8000    5.7410    9.2700 C.2   143  SER143      0.2618
    162  O         15.5180    5.8110   10.2670 O.2   143  SER143     -0.2717
    163  CB        14.3100    8.1800    8.7830 C.3   143  SER143      0.2103
    164  OG        12.9400    8.0180    9.1010 O.3   143  SER143     -0.2182
    165  N         13.9710    4.7020    9.0310 N.am  144  ASN144     -0.1974
    166  CA        13.8420    3.5500    9.9370 C.3   144  ASN144      0.1688
    167  C         14.6330    2.3490    9.4370 C.2   144  ASN144      0.2292
    168  O         14.4600    1.2210    9.9290 O.2   144  ASN144     -0.2864
    169  CB        12.3610    3.1970   10.1560 C.3   144  ASN144      0.1181
    170  CG        11.7480    4.1260   11.1620 C.2   144  ASN144      0.2629
    171  OD1       12.4430    4.6680   12.0240 O.2   144  ASN144     -0.2716
    172  ND2       10.4420    4.3230   11.0920 N.am  144  ASN144     -0.0877
    173  N         18.4720    1.4420    9.2390 N.3   146  LEU146     -0.1245
    174  CA        19.8470    1.7940    9.6180 C.3   146  LEU146      0.1561
    175  C         20.8660    0.9800    8.8260 C.2   146  LEU146      0.2260
    176  O         20.6020   -0.1610    8.4680 O.2   146  LEU146     -0.2867
    177  CB        20.0630    1.5810   11.1230 C.3   146  LEU146      0.0270
    178  CG        18.9940    2.1940   12.0260 C.3   146  LEU146      0.0019
    179  CD1       19.2550    1.8160   13.4660 C.3   146  LEU146      0.0001
    180  CD2       18.9100    3.7420   11.8580 C.3   146  LEU146      0.0001
    181  N         14.5680   -0.4690   12.3200 N.3   155  CYS155     -0.1221
    182  CA        14.4040    0.0720   13.6740 C.3   155  CYS155      0.1808
    183  C         13.0190    0.7400   13.8310 C.2   155  CYS155      0.2601
    184  O         12.2360    0.7640   12.8840 O.2   155  CYS155     -0.2717
    185  CB        15.5520    1.0280   14.0310 C.3   155  CYS155      0.0970
    186  SG        15.4820    2.6440   13.2060 S.3   155  CYS155     -0.0800
    187  N         12.7260    1.2350   15.0470 N.am  156  ASP156     -0.1973
    188  CA        11.5190    1.9370   15.4960 C.3   156  ASP156      0.1709
    189  C         10.2410    1.0910   15.3550 C.2   156  ASP156      0.2293
    190  O          9.5290    1.1560   14.3400 O.2   156  ASP156     -0.2864
    191  CB        11.3280    3.2890   14.7830 C.3   156  ASP156      0.1436
    192  CG        10.3020    4.1870   15.4600 C.2   156  ASP156      0.3671
    193  OD1       10.1270    5.3230   15.0060 O.co2 156  ASP156     -0.2456
    194  OD2        9.6720    3.7430   16.4410 O.co2 156  ASP156     -0.2456
@<TRIPOS>BOND
     1   153   152    2
     2   152   151    1
     3   151   150    1
     4   151   154    1
     5   145   144    2
     6   144   143    1
     7   154   155    1
     8   141   139    1
     9   134   132   ar
    10   140   139    1
    11   159   160    1
    12   139   136    1
    13   148   147   ar
    14   155   156    1
    15   143   142    1
    16   143   146    1
    17   142   137   am
    18   132   133   ar
    19   132   131    1
    20   160   163    1
    21   160   161    1
    22   176   175    2
    23   147   146    1
    24   147   149   ar
    25   137   136    1
    26   137   138    2
    27   131   130    1
    28   163   164    1
    29   175   174    1
    30   156   157    1
    31   136   135    1
    32   165   161   am
    33   165   166    1
    34   173   174    1
    35   161   162    2
    36   167   168    2
    37   167   166    1
    38   135   128   am
    39   174   177    1
    40   130   127    1
    41   166   169    1
    42   157   158    1
    43   169   170    1
    44   128   129    2
    45   128   127    1
    46   125   124    1
    47   127   126    1
    48   172   170   am
    49   177   178    1
    50   170   171    2
    51   126   120   am
    52   180   178    1
    53   178   179    1
    54   181   182    1
    55   122   123    1
    56   122   119    1
    57   124   123    1
    58   120   119    1
    59   120   121    2
    60   184   183    2
    61   119   118    1
    62   186   185    1
    63   182   183    1
    64   182   185    1
    65   183   187   am
    66   190   189    2
    67    85    86    1
    68   118   112   am
    69   191   192    1
    70   191   188    1
    71   113   112    2
    72   193   192   ar
    73   187   188    1
    74     4     3    2
    75   112   111    1
    76   189   188    1
    77     7     5    1
    78   192   194   ar
    79    86    89    1
    80    86    87    1
    81    89    91    1
    82    89    90    1
    83     3     2    1
    84     3     9   am
    85    90    92    1
    86    10     9    1
    87    10    11    1
    88    16    15    2
    89   106   107    1
    90   106   103    1
    91   108   107   ar
    92   111   110    1
    93   111   114    1
    94     2     5    1
    95     2     1    1
    96     5     6    1
    97   107   109   ar
    98    87    88    2
    99   115   116    1
   100   115   114    1
   101   115   117    1
   102   105   104    2
   103   110   104   am
   104     6     8    1
   105    13    11   am
   106    13    14    1
   107   104   103    1
   108    11    12    2
   109    15    14    1
   110    15    22   am
   111   103   102    1
   112    14    17    1
   113    23    22    1
   114    23    24    1
   115    18    17    1
   116    18    19    1
   117    84    82   ar
   118   102    95   am
   119    58    55    1
   120    24    26   am
   121    24    25    2
   122    52    51    1
   123    26    27    1
   124    19    21   ar
   125    19    20   ar
   126    53    51    1
   127    51    48    1
   128   101    99   am
   129    30    27    1
   130    95    96    2
   131    95    94    1
   132    82    81    1
   133    82    83   ar
   134    67    66    1
   135    97    94    1
   136    97    98    1
   137    50    49    2
   138   100    99    2
   139    99    98    1
   140    27    28    1
   141    55    54    1
   142    55    56    1
   143    42    41    1
   144    81    80    1
   145    80    77    1
   146    49    48    1
   147    48    47    1
   148    39    41   ar
   149    39    37   ar
   150    65    66    1
   151    65    64    1
   152    94    93    1
   153    77    76    1
   154    77    78    1
   155    41    40   ar
   156    79    78    2
   157    37    36   ar
   158    56    57    2
   159    28    31   am
   160    28    29    2
   161    46    45    2
   162    64    63    1
   163    31    32    1
   164    63    60    1
   165    45    44    1
   166    40    38   ar
   167    43    44    1
   168    43    33   am
   169    36    38   ar
   170    36    35    1
   171    60    59    1
   172    60    61    1
   173    32    35    1
   174    32    33    1
   175    33    34    2
   176    74    72    1
   177    61    62    2
   178    72    73    1
   179    72    69    1
   180    73    75    1
   181    69    68    1
   182    69    70    1
   183    70    71    2
