@<TRIPOS>MOLECULE
tmp/4fv3A00.pdb
 193 182 0 0 0
SMALL
GASTEIGER

@<TRIPOS>ATOM
      1  N         23.5420   11.8620   18.5890 N.3    21  ILE21      -0.1231
      2  CA        23.1920   11.2820   17.2880 C.3    21  ILE21       0.1692
      3  C         21.9520   12.0200   16.7560 C.2    21  ILE21       0.2593
      4  O         22.0450   12.7190   15.7470 O.2    21  ILE21      -0.2718
      5  CB        22.9980    9.7330   17.2740 C.3    21  ILE21       0.0266
      6  CG1       24.2510    8.9820   17.7740 C.3    21  ILE21       0.0019
      7  CG2       22.6070    9.2670   15.8610 C.3    21  ILE21       0.0020
      8  CD1       24.0120    7.4720   18.0830 C.3    21  ILE21       0.0001
      9  N         20.8160   11.8380   17.4330 N.am   22  GLY22      -0.1942
     10  CA        19.5440   12.4420   17.0530 C.3    22  GLY22       0.2014
     11  C         18.5770   12.6630   18.1980 C.2    22  GLY22       0.2642
     12  O         18.8410   12.2590   19.3350 O.2    22  GLY22      -0.2714
     13  N         17.4440   13.3150   17.8960 N.am   23  GLU23      -0.1917
     14  CA        16.4170   13.6700   18.8730 C.3    23  GLU23       0.1949
     15  C         15.0250   13.5020   18.2630 C.2    23  GLU23       0.2659
     16  O         14.6980   14.1630   17.2760 O.2    23  GLU23      -0.2711
     17  CB        16.6460   15.1210   19.3450 C.2    23  GLU23       0.0111
     18  CG        15.8510   15.5500   20.5680 C.2    23  GLU23       0.0838
     19  CD        16.0820   16.9790   21.0310 C.2    23  GLU23       0.3877
     20  OE1       16.7500   17.7510   20.3040 O.co2  23  GLU23      -0.2406
     21  OE2       15.5840   17.3300   22.1250 O.co2  23  GLU23      -0.2406
     22  N         14.2310   12.6170   18.8600 N.am   24  GLY24      -0.1937
     23  CA        12.8650   12.3310   18.4350 C.3    24  GLY24       0.2014
     24  C         11.8360   13.2440   19.0630 C.2    24  GLY24       0.2639
     25  O         12.1870   14.2800   19.6390 O.2    24  GLY24      -0.2714
     26  N         10.5530   12.8590   18.9510 N.am   25  ALA25      -0.1963
     27  CA         9.4200   13.6200   19.4790 C.3    25  ALA25       0.1728
     28  C          9.3300   13.5590   21.0100 C.2    25  ALA25       0.2616
     29  O          8.7950   14.4900   21.6180 O.2    25  ALA25      -0.2715
     30  CB         8.1260   13.1040   18.8660 C.3    25  ALA25       0.0334
     31  N          9.8330   12.4710   21.6280 N.am   26  TYR26      -0.1960
     32  CA         9.7660   12.2690   23.0790 C.3    26  TYR26       0.1774
     33  C         11.0350   11.5700   23.6310 C.2    26  TYR26       0.2659
     34  O         10.9960   10.9540   24.7020 O.2    26  TYR26      -0.2711
     35  CB         8.4850   11.4760   23.4360 C.3    26  TYR26       0.0574
     36  CG         8.4350   10.0480   22.9280 C.ar   26  TYR26      -0.0198
     37  CD1        8.5820    8.9740   23.7980 C.ar   26  TYR26      -0.0009
     38  CD2        8.1730    9.7690   21.5900 C.ar   26  TYR26      -0.0009
     39  CE1        8.5050    7.6580   23.3440 C.ar   26  TYR26       0.0417
     40  CE2        8.1070    8.4560   21.1220 C.ar   26  TYR26       0.0417
     41  CZ         8.2750    7.4020   22.0040 C.ar   26  TYR26       0.1957
     42  OH         8.2120    6.1030   21.5550 O.3    26  TYR26      -0.2866
     43  N         12.1520   11.7360   22.9290 N.am   27  GLY27      -0.1716
     44  CA        13.4200   11.1460   23.3270 C.2    27  GLY27       0.1480
     45  C         14.6400   11.6090   22.5620 C.2    27  GLY27       0.2820
     46  O         14.5360   12.3930   21.6150 O.2    27  GLY27      -0.2669
     47  N         15.8080   11.1010   22.9800 N.am   28  MET28      -0.1928
     48  CA        17.1140   11.4080   22.4020 C.3    28  MET28       0.1739
     49  C         17.9770   10.1410   22.3040 C.2    28  MET28       0.2616
     50  O         17.9430    9.3010   23.2050 O.2    28  MET28      -0.2715
     51  CB        17.8210   12.4790   23.2550 C.3    28  MET28       0.0427
     52  CG        19.1230   12.9840   22.6590 C.3    28  MET28       0.0599
     53  SD        20.0780   14.0190   23.7970 S.3    28  MET28      -0.1393
     54  CE        19.2390   15.5770   23.5920 C.3    28  MET28       0.0692
     55  N         18.7500   10.0130   21.2110 N.am   29  VAL29      -0.1977
     56  CA        19.6520    8.8770   20.9950 C.3    29  VAL29       0.1596
     57  C         21.1010    9.3910   21.0040 C.2    29  VAL29       0.2287
     58  O         21.4080   10.4170   20.3880 O.2    29  VAL29      -0.2864
     59  CB        19.3220    8.0440   19.7180 C.3    29  VAL29       0.0276
     60  CG1       20.1930    6.7890   19.6320 C.3    29  VAL29       0.0022
     61  CG2       17.8480    7.6510   19.6790 C.3    29  VAL29       0.0022
     62  N         24.2770    2.2700   20.9540 N.3    42  ALA42      -0.1245
     63  CA        23.3390    3.3760   20.8380 C.3    42  ALA42       0.1562
     64  C         22.3470    3.3010   21.9980 C.2    42  ALA42       0.2260
     65  O         21.7740    2.2380   22.2580 O.2    42  ALA42      -0.2867
     66  CB        22.6210    3.3340   19.5000 C.3    42  ALA42       0.0290
     67  N         18.9400    5.0230   23.6700 N.3    44  LYS44      -0.1245
     68  CA        17.8030    5.8870   23.4170 C.3    44  LYS44       0.1561
     69  C         17.1360    6.2690   24.7360 C.2    44  LYS44       0.2260
     70  O         16.5060    5.4270   25.3900 O.2    44  LYS44      -0.2867
     71  CB        16.8060    5.2320   22.4390 C.3    44  LYS44       0.0271
     72  CG        15.5440    6.0740   22.1930 C.3    44  LYS44       0.0035
     73  CD        14.6910    5.5790   21.0400 C.3    44  LYS44       0.0206
     74  CE        13.9320    4.3020   21.3260 C.3    44  LYS44       0.1093
     75  NZ        12.9580    4.0180   20.2440 N.3    44  LYS44      -0.1314
     76  N         14.3060    7.8640   26.7250 N.3    46  ILE46      -0.1245
     77  CA        12.8800    8.0500   26.5210 C.3    46  ILE46       0.1561
     78  C         12.3010    8.7580   27.7460 C.2    46  ILE46       0.2260
     79  O         12.6320    8.3960   28.8760 O.2    46  ILE46      -0.2867
     80  CB        12.1630    6.6910   26.2300 C.3    46  ILE46       0.0252
     81  CG1       12.8970    5.8670   25.1410 C.3    46  ILE46       0.0019
     82  CG2       10.7130    6.9170   25.8460 C.3    46  ILE46       0.0019
     83  CD1       12.1850    4.6020   24.6730 C.3    46  ILE46       0.0001
     84  N          7.0910   -1.3010   21.5470 N.3    61  GLU61      -0.1245
     85  CA         8.4440   -1.5100   21.0510 C.3    61  GLU61       0.1567
     86  C          9.2580   -2.4150   21.9900 C.2    61  GLU61       0.2260
     87  O          9.8680   -3.3730   21.5120 O.2    61  GLU61      -0.2867
     88  CB         9.1530   -0.1580   20.8420 C.3    61  GLU61       0.0388
     89  CG        10.6290   -0.3100   20.5310 C.3    61  GLU61       0.1160
     90  CD        11.2870    0.9060   19.9310 C.2    61  GLU61       0.3649
     91  OE1       11.6410    1.8270   20.6990 O.co2  61  GLU61      -0.2457
     92  OE2       11.4650    0.9300   18.6930 O.co2  61  GLU61      -0.2457
     93  N         16.6460   -4.2230   14.6970 N.3    74  ILE74      -0.1245
     94  CA        17.3450   -3.6310   15.8330 C.3    74  ILE74       0.1561
     95  C         16.9650   -4.4020   17.1210 C.2    74  ILE74       0.2260
     96  O         15.8300   -4.8830   17.2710 O.2    74  ILE74      -0.2867
     97  CB        17.0700   -2.1050   15.9560 C.3    74  ILE74       0.0252
     98  CG1       18.2410   -1.4000   16.6990 C.3    74  ILE74       0.0019
     99  CG2       15.6930   -1.8030   16.5930 C.3    74  ILE74       0.0019
    100  CD1       18.2260    0.1220   16.6930 C.3    74  ILE74       0.0001
    101  N         20.5820   -0.2080   22.3810 N.3    95  GLN95      -0.1231
    102  CA        20.3690   -0.8290   21.0700 C.3    95  GLN95       0.1698
    103  C         21.6360   -0.8250   20.2080 C.2    95  GLN95       0.2592
    104  O         22.6730   -0.3090   20.6330 O.2    95  GLN95      -0.2718
    105  CB        19.2330   -0.0830   20.3290 C.3    95  GLN95       0.0381
    106  CG        17.9720    0.0900   21.1640 C.3    95  GLN95       0.0905
    107  CD        16.8230    0.6990   20.4170 C.2    95  GLN95       0.2608
    108  OE1       16.6530    1.9210   20.3990 O.2    95  GLN95      -0.2717
    109  NE2       15.9730   -0.1420   19.8460 N.am   95  GLN95      -0.0878
    110  N         21.5380   -1.3950   18.9870 N.am   96  ASP96      -0.1960
    111  CA        22.6290   -1.4680   18.0180 C.3    96  ASP96       0.1840
    112  C         23.0410   -0.0800   17.5420 C.2    96  ASP96       0.2622
    113  O         22.1820    0.7680   17.2660 O.2    96  ASP96      -0.2715
    114  CB        22.2350   -2.3220   16.8020 C.3    96  ASP96       0.1450
    115  CG        21.9460   -3.7620   17.1410 C.2    96  ASP96       0.3671
    116  OD1       22.8910   -4.5780   17.1100 O.co2  96  ASP96      -0.2456
    117  OD2       20.7790   -4.0730   17.4430 O.co2  96  ASP96      -0.2456
    118  N         24.3600    0.1430   17.4600 N.am   97  LEU97      -0.1963
    119  CA        24.9380    1.3800   16.9640 C.3    97  LEU97       0.1728
    120  C         25.2100    1.2060   15.4760 C.2    97  LEU97       0.2616
    121  O         25.8990    0.2640   15.0700 O.2    97  LEU97      -0.2715
    122  CB        26.2130    1.7840   17.7330 C.3    97  LEU97       0.0311
    123  CG        26.9290    3.0670   17.2540 C.3    97  LEU97       0.0022
    124  CD1       26.0260    4.2860   17.3410 C.3    97  LEU97       0.0001
    125  CD2       28.1910    3.3200   18.0310 C.3    97  LEU97       0.0001
    126  N         24.6250    2.0900   14.6660 N.am   98  MET98      -0.1977
    127  CA        24.7570    2.0630   13.2110 C.3    98  MET98       0.1605
    128  C         25.1990    3.4450   12.7420 C.2    98  MET98       0.2287
    129  O         24.6780    4.4470   13.2230 O.2    98  MET98      -0.2864
    130  CB        23.4440    1.6130   12.5420 C.3    98  MET98       0.0413
    131  CG        22.8480    0.3210   13.1240 C.3    98  MET98       0.0598
    132  SD        23.7410   -1.1950   12.7050 S.3    98  MET98      -0.1393
    133  CE        23.0710   -1.5060   11.0800 C.3    98  MET98       0.0692
    134  N         25.0040    5.0590    9.6840 N.3   100  THR100     -0.1203
    135  CA        24.0700    5.8700    8.9080 C.3   100  THR100      0.1994
    136  C         22.6840    5.1830    8.8090 C.2   100  THR100      0.2617
    137  O         22.4100    4.2060    9.5120 O.2   100  THR100     -0.2717
    138  CB        24.6940    6.2090    7.5250 C.3   100  THR100      0.1784
    139  OG1       23.9200    7.2320    6.8930 O.3   100  THR100     -0.2211
    140  CG2       24.8360    4.9870    6.6010 C.3   100  THR100      0.0376
    141  N         21.8000    5.7570    7.9770 N.am  101  ASP101     -0.1973
    142  CA        20.4610    5.2600    7.6850 C.3   101  ASP101      0.1709
    143  C         20.1490    5.5520    6.2230 C.2   101  ASP101      0.2293
    144  O         20.8630    6.3510    5.6060 O.2   101  ASP101     -0.2864
    145  CB        19.3960    5.8420    8.6470 C.3   101  ASP101      0.1436
    146  CG        19.2310    7.3450    8.6510 C.2   101  ASP101      0.3671
    147  OD1       18.8430    7.9020    7.6030 O.co2 101  ASP101     -0.2456
    148  OD2       19.3780    7.9510    9.7300 O.co2 101  ASP101     -0.2456
    149  N         19.4980    9.4130    5.2340 N.3   104  LYS104     -0.1245
    150  CA        20.7750   10.1270    5.1060 C.3   104  LYS104      0.1561
    151  C         21.4470    9.7980    3.7830 C.2   104  LYS104      0.2260
    152  O         21.7860   10.7160    3.0360 O.2   104  LYS104     -0.2867
    153  CB        21.7110    9.7780    6.2750 C.3   104  LYS104      0.0271
    154  CG        21.3600   10.4640    7.5840 C.3   104  LYS104      0.0035
    155  CD        22.4020   10.1860    8.6650 C.3   104  LYS104      0.0206
    156  CE        23.5970   11.1130    8.5910 C.3   104  LYS104      0.1093
    157  NZ        24.8060   10.5010    9.2010 N.3   104  LYS104     -0.1314
    158  N         14.1770    6.5430    7.0270 N.3   143  SER143     -0.1202
    159  CA        14.7480    6.9490    8.3270 C.3   143  SER143      0.2020
    160  C         14.6990    5.8370    9.3940 C.2   143  SER143      0.2618
    161  O         15.4470    5.9150   10.3710 O.2   143  SER143     -0.2717
    162  CB        14.0770    8.2120    8.8590 C.3   143  SER143      0.2103
    163  OG        12.7220    8.0150    9.2180 O.3   143  SER143     -0.2182
    164  N         13.8420    4.8130    9.2030 N.am  144  ASN144     -0.1974
    165  CA        13.7120    3.6840   10.1290 C.3   144  ASN144      0.1688
    166  C         14.4970    2.4630    9.6320 C.2   144  ASN144      0.2292
    167  O         14.2770    1.3460   10.1040 O.2   144  ASN144     -0.2864
    168  CB        12.2330    3.3380   10.3530 C.3   144  ASN144      0.1181
    169  CG        11.4830    4.3670   11.1630 C.2   144  ASN144      0.2629
    170  OD1       12.0440    5.0800   11.9980 O.2   144  ASN144     -0.2716
    171  ND2       10.1810    4.4430   10.9610 N.am  144  ASN144     -0.0877
    172  N         18.3590    1.5310    9.4060 N.3   146  LEU146     -0.1245
    173  CA        19.7310    1.8510    9.7840 C.3   146  LEU146      0.1561
    174  C         20.7210    0.9920    9.0150 C.2   146  LEU146      0.2260
    175  O         20.4080   -0.1450    8.6630 O.2   146  LEU146     -0.2867
    176  CB        19.9430    1.6880   11.2990 C.3   146  LEU146      0.0270
    177  CG        18.9190    2.3390   12.2550 C.3   146  LEU146      0.0019
    178  CD1       19.2720    2.0470   13.6960 C.3   146  LEU146      0.0001
    179  CD2       18.7920    3.8520   12.0240 C.3   146  LEU146      0.0001
    180  N         14.3420   -0.4390   12.4850 N.3   155  CYS155     -0.1221
    181  CA        14.1670    0.0980   13.8310 C.3   155  CYS155      0.1808
    182  C         12.8080    0.8010   13.9510 C.2   155  CYS155      0.2601
    183  O         12.0550    0.8580   12.9740 O.2   155  CYS155     -0.2717
    184  CB        15.3260    1.0230   14.2100 C.3   155  CYS155      0.0970
    185  SG        15.2950    2.6490   13.4000 S.3   155  CYS155     -0.0800
    186  N         12.4880    1.2870   15.1670 N.am  156  ASP156     -0.1973
    187  CA        11.2650    2.0060   15.5630 C.3   156  ASP156      0.1709
    188  C          9.9940    1.1490   15.3940 C.2   156  ASP156      0.2293
    189  O          9.3600    1.1490   14.3320 O.2   156  ASP156     -0.2864
    190  CB        11.1150    3.3530   14.8290 C.3   156  ASP156      0.1436
    191  CG        10.0810    4.2840   15.4380 C.2   156  ASP156      0.3671
    192  OD1        9.7780    5.3160   14.8150 O.co2 156  ASP156     -0.2456
    193  OD2        9.5910    3.9880   16.5470 O.co2 156  ASP156     -0.2456
@<TRIPOS>BOND
     1   152   151    2
     2   151   150    1
     3   150   149    1
     4   150   153    1
     5   144   143    2
     6   143   142    1
     7   153   154    1
     8   140   138    1
     9   139   138    1
    10   158   159    1
    11   138   135    1
    12   154   155    1
    13   147   146   ar
    14   142   141    1
    15   142   145    1
    16   141   136   am
    17   159   162    1
    18   159   160    1
    19   156   155    1
    20   156   157    1
    21   145   146    1
    22   146   148   ar
    23   175   174    2
    24   136   135    1
    25   136   137    2
    26   162   163    1
    27   135   134    1
    28   174   173    1
    29   164   160   am
    30   164   165    1
    31   160   161    2
    32   172   173    1
    33   166   167    2
    34   166   165    1
    35   173   176    1
    36   165   168    1
    37   168   169    1
    38   171   169   am
    39   133   132    1
    40   169   170    2
    41   176   177    1
    42   179   177    1
    43   177   178    1
    44   180   181    1
    45   130   131    1
    46   130   127    1
    47   132   131    1
    48   128   127    1
    49   128   129    2
    50   183   182    2
    51   127   126    1
    52   185   184    1
    53   181   182    1
    54   181   184    1
    55   182   186   am
    56   189   188    2
    57   126   120   am
    58    93    94    1
    59   192   191   ar
    60   190   191    1
    61   190   187    1
    62   121   120    2
    63   186   187    1
    64   188   187    1
    65   191   193   ar
    66   120   119    1
    67     4     3    2
    68    94    97    1
    69    94    95    1
    70     7     5    1
    71    97    99    1
    72    97    98    1
    73   100    98    1
    74     3     2    1
    75     3     9   am
    76   114   115    1
    77   114   111    1
    78   119   118    1
    79   119   122    1
    80    10     9    1
    81    10    11    1
    82   116   115   ar
    83    95    96    2
    84   115   117   ar
    85   123   124    1
    86   123   122    1
    87   123   125    1
    88   113   112    2
    89     5     2    1
    90     5     6    1
    91    16    15    2
    92     2     1    1
    93   118   112   am
    94   112   111    1
    95     6     8    1
    96    13    11   am
    97    13    14    1
    98   111   110    1
    99    11    12    2
   100    15    22   am
   101    15    14    1
   102    23    22    1
   103    23    24    1
   104    92    90   ar
   105    30    27    1
   106    14    17    1
   107    26    24   am
   108    26    27    1
   109   110   103   am
   110    24    25    2
   111    17    18    2
   112    27    28    1
   113    66    63    1
   114    60    59    1
   115    61    59    1
   116    59    56    1
   117   109   107   am
   118    90    89    1
   119    90    91   ar
   120   103   104    2
   121   103   102    1
   122    75    74    1
   123    20    19   ar
   124   105   102    1
   125   105   106    1
   126    58    57    2
   127   108   107    2
   128   107   106    1
   129    89    88    1
   130    18    19    1
   131    63    62    1
   132    63    64    1
   133    88    85    1
   134    56    57    1
   135    56    55    1
   136    28    29    2
   137    28    31   am
   138    19    21   ar
   139    73    74    1
   140    73    72    1
   141    85    84    1
   142    85    86    1
   143   102   101    1
   144    40    38   ar
   145    40    41   ar
   146    55    49   am
   147    87    86    2
   148    42    41    1
   149    38    36   ar
   150    46    45    2
   151    31    32    1
   152    64    65    2
   153    41    39   ar
   154    72    71    1
   155    49    48    1
   156    49    50    2
   157    48    47    1
   158    48    51    1
   159    71    68    1
   160    45    47   am
   161    45    44    1
   162    52    51    1
   163    52    53    1
   164    36    35    1
   165    36    37   ar
   166    43    44    2
   167    43    33    1
   168    32    35    1
   169    32    33    1
   170    39    37   ar
   171    68    67    1
   172    68    69    1
   173    54    53    1
   174    33    34    2
   175    83    81    1
   176    69    70    2
   177    81    80    1
   178    82    80    1
   179    80    77    1
   180    77    76    1
   181    77    78    1
   182    78    79    2
