@<TRIPOS>MOLECULE
tmp/4fv4A00.pdb
 165 154 0 0 0
SMALL
GASTEIGER

@<TRIPOS>ATOM
      1  N        -19.8400   10.1450   14.6940 N.3    23  ILE23      -0.1231
      2  CA       -19.8300    9.1610   15.7720 C.3    23  ILE23       0.1692
      3  C        -18.7940    9.6140   16.8130 C.2    23  ILE23       0.2593
      4  O        -19.1650    9.9300   17.9440 O.2    23  ILE23      -0.2718
      5  CB       -19.6000    7.6940   15.3120 C.3    23  ILE23       0.0266
      6  CG1      -20.5870    7.2720   14.1920 C.3    23  ILE23       0.0019
      7  CG2      -19.7000    6.7650   16.5290 C.3    23  ILE23       0.0020
      8  CD1      -20.2380    5.9210   13.4640 C.3    23  ILE23       0.0001
      9  N        -17.5220    9.6360   16.4120 N.am   24  GLY24      -0.1942
     10  CA       -16.4020   10.0300   17.2600 C.3    24  GLY24       0.2014
     11  C        -15.1110   10.2760   16.5050 C.2    24  GLY24       0.2639
     12  O        -15.1290   10.5630   15.3050 O.2    24  GLY24      -0.2714
     13  N        -13.9820   10.1690   17.2190 N.am   25  GLU25      -0.1963
     14  CA       -12.6340   10.3630   16.6830 C.3    25  GLU25       0.1733
     15  C        -11.7670    9.1200   16.9440 C.2    25  GLU25       0.2616
     16  O        -12.1310    8.2730   17.7690 O.2    25  GLU25      -0.2715
     17  CB       -11.9990   11.6250   17.2950 C.3    25  GLU25       0.0429
     18  CG       -12.5570   12.9170   16.7080 C.3    25  GLU25       0.1163
     19  CD       -12.2580   14.2130   17.4410 C.2    25  GLU25       0.3649
     20  OE1      -11.6040   14.1740   18.5090 O.co2  25  GLU25      -0.2457
     21  OE2      -12.7000   15.2760   16.9470 O.co2  25  GLU25      -0.2457
     22  N        -10.6500    9.0150   16.2200 N.am   26  GLY26      -0.1955
     23  CA        -9.7050    7.9070   16.3300 C.3    26  GLY26       0.1869
     24  C         -8.5260    8.0250   15.3850 C.2    26  GLY26       0.2309
     25  O         -7.4230    8.3920   15.7960 O.2    26  GLY26      -0.2863
     26  N        -14.5930    9.6920   12.6160 N.3    29  VAL29      -0.1245
     27  CA       -15.3020    8.4580   12.2600 C.3    29  VAL29       0.1561
     28  C        -16.8160    8.7540   12.1480 C.2    29  VAL29       0.2260
     29  O        -17.4270    9.2350   13.1060 O.2    29  VAL29      -0.2867
     30  CB       -15.0100    7.2920   13.2480 C.3    29  VAL29       0.0252
     31  CG1      -15.7790    6.0300   12.8640 C.3    29  VAL29       0.0019
     32  CG2      -13.5190    6.9870   13.3230 C.3    29  VAL29       0.0019
     33  N        -19.4880    2.0710    8.5240 N.3    42  ALA42      -0.1245
     34  CA       -18.6040    2.9370    9.3000 C.3    42  ALA42       0.1562
     35  C        -17.4630    3.4190    8.4080 C.2    42  ALA42       0.2260
     36  O        -16.9460    2.6350    7.6060 O.2    42  ALA42      -0.2867
     37  CB       -18.0630    2.1970   10.5060 C.3    42  ALA42       0.0290
     38  N        -13.8180    5.7300    8.5510 N.3    44  LYS44      -0.1245
     39  CA       -12.7600    6.3750    9.3080 C.3    44  LYS44       0.1561
     40  C        -11.8910    7.1980    8.3540 C.2    44  LYS44       0.2260
     41  O        -11.2930    6.6460    7.4220 O.2    44  LYS44      -0.2867
     42  CB       -11.9360    5.3160   10.0690 C.3    44  LYS44       0.0271
     43  CG       -10.8380    5.8780   10.9720 C.3    44  LYS44       0.0035
     44  CD       -10.1200    4.7990   11.7850 C.3    44  LYS44       0.0206
     45  CE        -9.0760    4.0220   11.0090 C.3    44  LYS44       0.1093
     46  NZ        -8.2960    3.1310   11.9060 N.3    44  LYS44      -0.1314
     47  N         -2.1780   -1.5120    9.6280 N.3    61  GLU61      -0.1245
     48  CA        -3.5850   -1.8690    9.8370 C.3    61  GLU61       0.1567
     49  C         -4.2320   -2.4130    8.5470 C.2    61  GLU61       0.2260
     50  O         -4.8510   -3.4840    8.5920 O.2    61  GLU61      -0.2867
     51  CB        -4.3910   -0.6790   10.3950 C.3    61  GLU61       0.0388
     52  CG        -5.8860   -0.9500   10.4310 C.3    61  GLU61       0.1160
     53  CD        -6.7350    0.0030   11.2410 C.2    61  GLU61       0.3649
     54  OE1       -6.8140    1.1960   10.8700 O.co2  61  GLU61      -0.2457
     55  OE2       -7.3830   -0.4620   12.2050 O.co2  61  GLU61      -0.2457
     56  N        -12.7090   -6.7730   13.1280 N.3    74  ILE74      -0.1245
     57  CA       -13.3010   -5.9120   12.1020 C.3    74  ILE74       0.1561
     58  C        -12.4430   -6.0270   10.8320 C.2    74  ILE74       0.2260
     59  O        -11.2070   -6.0460   10.9000 O.2    74  ILE74      -0.2867
     60  CB       -13.4780   -4.4310   12.5810 C.3    74  ILE74       0.0252
     61  CG1      -14.5160   -3.6610   11.7250 C.3    74  ILE74       0.0019
     62  CG2      -12.1460   -3.6700   12.6400 C.3    74  ILE74       0.0019
     63  CD1      -15.9760   -3.8650   12.1090 C.3    74  ILE74       0.0001
     64  N        -15.6680    0.1840    6.9360 N.3    95  GLN95      -0.1231
     65  CA       -15.8180   -1.0460    7.7250 C.3    95  GLN95       0.1698
     66  C        -17.2930   -1.2600    8.1040 C.2    95  GLN95       0.2592
     67  O        -18.1160   -0.3750    7.8410 O.2    95  GLN95      -0.2718
     68  CB       -14.9230   -0.9740    8.9810 C.3    95  GLN95       0.0381
     69  CG       -13.4670   -0.6230    8.6610 C.3    95  GLN95       0.0905
     70  CD       -12.5720   -0.5260    9.8580 C.2    95  GLN95       0.2608
     71  OE1      -11.8340   -1.4540   10.1770 O.2    95  GLN95      -0.2717
     72  NE2      -12.5340    0.6340   10.4810 N.am   95  GLN95      -0.0878
     73  N        -17.6330   -2.4420    8.6800 N.am   96  ASP96      -0.1960
     74  CA       -18.9970   -2.7790    9.1190 C.3    96  ASP96       0.1840
     75  C        -19.4220   -1.8740   10.2690 C.2    96  ASP96       0.2622
     76  O        -18.6220   -1.6200   11.1680 O.2    96  ASP96      -0.2715
     77  CB       -19.1160   -4.2570    9.5510 C.3    96  ASP96       0.1450
     78  CG       -19.0720   -5.2800    8.4270 C.2    96  ASP96       0.3671
     79  OD1      -19.6640   -5.0150    7.3520 O.co2  96  ASP96      -0.2456
     80  OD2      -18.4980   -6.3720    8.6430 O.co2  96  ASP96      -0.2456
     81  N        -20.6690   -1.3720   10.2320 N.am   97  LEU97      -0.1963
     82  CA       -21.1810   -0.4740   11.2620 C.3    97  LEU97       0.1728
     83  C        -21.6610   -1.2630   12.4720 C.2    97  LEU97       0.2616
     84  O        -22.5040   -2.1580   12.3530 O.2    97  LEU97      -0.2715
     85  CB       -22.3030    0.4320   10.7100 C.3    97  LEU97       0.0311
     86  CG       -22.9690    1.4250   11.6810 C.3    97  LEU97       0.0022
     87  CD1      -21.9820    2.4630   12.1940 C.3    97  LEU97       0.0001
     88  CD2      -24.1480    2.1110   11.0340 C.3    97  LEU97       0.0001
     89  N        -21.1040   -0.9320   13.6370 N.am   98  MET98      -0.1963
     90  CA       -21.4790   -1.5630   14.8950 C.3    98  MET98       0.1736
     91  C        -22.3410   -0.5780   15.6990 C.2    98  MET98       0.2616
     92  O        -22.2410    0.6360   15.4920 O.2    98  MET98      -0.2715
     93  CB       -20.2320   -2.0400   15.6620 C.3    98  MET98       0.0427
     94  CG       -19.3970   -3.0790   14.8890 C.3    98  MET98       0.0599
     95  SD       -20.2220   -4.6720   14.5700 S.3    98  MET98      -0.1393
     96  CE       -19.8370   -5.5430   16.0830 C.3    98  MET98       0.0692
     97  N        -23.2180   -1.1020   16.5750 N.am   99  GLU99      -0.1963
     98  CA       -24.1430   -0.2890   17.3610 C.3    99  GLU99       0.1733
     99  C        -23.4340    0.6030   18.3880 C.2    99  GLU99       0.2617
    100  O        -23.8080    1.7700   18.5260 O.2    99  GLU99      -0.2715
    101  CB       -25.1840   -1.1750   18.0620 C.3    99  GLU99       0.0429
    102  CG       -26.5380   -0.5010   18.2330 C.3    99  GLU99       0.1163
    103  CD       -26.8170    0.0850   19.6060 C.2    99  GLU99       0.3649
    104  OE1      -26.5980   -0.6240   20.6150 O.co2  99  GLU99      -0.2457
    105  OE2      -27.3160    1.2320   19.6720 O.co2  99  GLU99      -0.2457
    106  N        -22.4400    0.0540   19.1140 N.am  100  THR100     -0.1937
    107  CA       -21.6920    0.7540   20.1650 C.3   100  THR100      0.2028
    108  C        -20.3090    0.0910   20.3830 C.2   100  THR100      0.2642
    109  O        -19.9000   -0.7770   19.6050 O.2   100  THR100     -0.2714
    110  CB       -22.5450    0.7910   21.4800 C.3   100  THR100      0.1808
    111  OG1      -21.9620    1.6860   22.4320 O.3   100  THR100     -0.2208
    112  CG2      -22.7650   -0.5950   22.1090 C.3   100  THR100      0.0379
    113  N        -19.5940    0.5340   21.4370 N.am  101  ASP101     -0.1971
    114  CA       -18.3170   -0.0170   21.8920 C.3   101  ASP101      0.1709
    115  C        -18.4390   -0.3780   23.3820 C.2   101  ASP101      0.2293
    116  O        -19.4420   -0.0190   24.0050 O.2   101  ASP101     -0.2864
    117  CB       -17.1260    0.9320   21.6110 C.3   101  ASP101      0.1436
    118  CG       -17.2030    2.3410   22.1720 C.2   101  ASP101      0.3671
    119  OD1      -17.7280    2.5100   23.2930 O.co2 101  ASP101     -0.2456
    120  OD2      -16.6400    3.2570   21.5430 O.co2 101  ASP101     -0.2456
    121  N        -18.6410    2.8530   25.9190 N.3   104  LYS104     -0.1245
    122  CA       -19.9580    3.4840   26.0380 C.3   104  LYS104      0.1561
    123  C        -20.9520    2.5910   26.7760 C.2   104  LYS104      0.2260
    124  O        -21.7960    3.1120   27.5110 O.2   104  LYS104     -0.2867
    125  CB       -20.5090    3.8710   24.6590 C.3   104  LYS104      0.0271
    126  CG       -19.8930    5.1630   24.1340 C.3   104  LYS104      0.0035
    127  CD       -19.7480    5.1540   22.6250 C.3   104  LYS104      0.0206
    128  CE       -18.9460    6.3290   22.1070 C.3   104  LYS104      0.1093
    129  NZ       -17.4920    6.1940   22.4090 N.3   104  LYS104     -0.1314
    130  N        -12.8620    0.9410   24.3910 N.3   143  SER143     -0.1202
    131  CA       -13.2550    1.6890   23.1840 C.3   143  SER143      0.2020
    132  C        -12.8630    0.9710   21.8740 C.2   143  SER143      0.2618
    133  O        -13.3930    1.3160   20.8150 O.2   143  SER143     -0.2717
    134  CB       -12.6930    3.1080   23.2010 C.3   143  SER143      0.2103
    135  OG       -11.2890    3.1300   23.3870 O.3   143  SER143     -0.2182
    136  N        -11.9690   -0.0300   21.9520 N.am  144  ASN144     -0.1974
    137  CA       -11.5220   -0.8060   20.7970 C.3   144  ASN144      0.1688
    138  C        -12.2790   -2.1330   20.6660 C.2   144  ASN144      0.2292
    139  O        -11.9240   -2.9720   19.8350 O.2   144  ASN144     -0.2864
    140  CB       -10.0100   -1.0330   20.8680 C.3   144  ASN144      0.1181
    141  CG        -9.2170    0.1950   20.4820 C.2   144  ASN144      0.2629
    142  OD1       -9.7360    1.1530   19.8970 O.2   144  ASN144     -0.2716
    143  ND2       -7.9330    0.1890   20.7830 N.am  144  ASN144     -0.0877
    144  N        -15.8590   -3.2490   19.7100 N.3   146  LEU146     -0.1245
    145  CA       -17.1390   -2.8850   19.1210 C.3   146  LEU146      0.1561
    146  C        -18.1890   -3.9580   19.3920 C.2   146  LEU146      0.2260
    147  O        -17.8760   -5.1530   19.4110 O.2   146  LEU146     -0.2867
    148  CB       -17.0070   -2.6370   17.6070 C.3   146  LEU146      0.0270
    149  CG       -15.9910   -1.5930   17.1230 C.3   146  LEU146      0.0019
    150  CD1      -15.7870   -1.6950   15.6230 C.3   146  LEU146      0.0001
    151  CD2      -16.3950   -0.1800   17.5260 C.3   146  LEU146      0.0001
    152  N        -11.1840   -3.7880   16.9770 N.3   155  CYS155     -0.1221
    153  CA       -10.7880   -2.8300   15.9480 C.3   155  CYS155      0.1808
    154  C         -9.5190   -2.0830   16.3620 C.2   155  CYS155      0.2601
    155  O         -8.9640   -2.3480   17.4350 O.2   155  CYS155     -0.2717
    156  CB       -11.9310   -1.8710   15.6120 C.3   155  CYS155      0.0970
    157  SG       -12.3400   -0.6840   16.9200 S.3   155  CYS155     -0.0800
    158  N         -9.0350   -1.1880   15.4630 N.am  156  ASP156     -0.1973
    159  CA        -7.8640   -0.3070   15.5890 C.3   156  ASP156      0.1709
    160  C         -6.5700   -1.1230   15.7010 C.2   156  ASP156      0.2293
    161  O         -6.1170   -1.4260   16.8060 O.2   156  ASP156     -0.2864
    162  CB        -8.0280    0.6600   16.7840 C.3   156  ASP156      0.1436
    163  CG        -7.2580    1.9650   16.7040 C.2   156  ASP156      0.3671
    164  OD1       -7.6810    2.9420   17.3650 O.co2 156  ASP156     -0.2456
    165  OD2       -6.2060    2.0010   16.0140 O.co2 156  ASP156     -0.2456
@<TRIPOS>BOND
     1    64    65    1
     2    79    78   ar
     3    41    40    2
     4    36    35    2
     5    65    66    1
     6    65    68    1
     7    67    66    2
     8    66    73   am
     9    40    39    1
    10    35    34    1
    11    78    80   ar
    12    78    77    1
    13    33    34    1
    14    49    50    2
    15    49    48    1
    16    38    39    1
    17    69    68    1
    18    69    70    1
    19    73    74    1
    20    74    77    1
    21    74    75    1
    22    34    37    1
    23    39    42    1
    24    47    48    1
    25    48    51    1
    26    70    71    2
    27    70    72   am
    28    42    43    1
    29    81    75   am
    30    81    82    1
    31    75    76    2
    32    51    52    1
    33    52    53    1
    34    85    82    1
    35    85    86    1
    36    58    59    2
    37    58    57    1
    38    54    53   ar
    39    43    44    1
    40    45    44    1
    41    45    46    1
    42    88    86    1
    43    53    55   ar
    44    82    83    1
    45    86    87    1
    46    61    63    1
    47    61    60    1
    48    57    60    1
    49    57    56    1
    50    28    27    1
    51    28    29    2
    52    27    26    1
    53    27    30    1
    54    84    83    2
    55    83    89   am
    56    60    62    1
    57    31    30    1
    58    30    32    1
    59     8     6    1
    60    89    90    1
    61     6     5    1
    62    95    94    1
    63    95    96    1
    64     1     2    1
    65    94    93    1
    66    90    93    1
    67    90    91    1
    68    12    11    2
    69     5     2    1
    70     5     7    1
    71    24    25    2
    72    24    23    1
    73   158   159    1
    74   158   154   am
    75    92    91    2
    76   159   160    1
    77   159   162    1
    78   156   153    1
    79   156   157    1
    80   150   149    1
    81    91    97   am
    82   160   161    2
    83     2     3    1
    84   153   154    1
    85   153   152    1
    86   165   163   ar
    87    22    23    1
    88    22    15   am
    89   154   155    2
    90     9     3   am
    91     9    10    1
    92    11    13   am
    93    11    10    1
    94    97    98    1
    95    14    15    1
    96    14    13    1
    97    14    17    1
    98   163   162    1
    99   163   164   ar
   100    18    17    1
   101    18    19    1
   102     3     4    2
   103    15    16    2
   104    21    19   ar
   105   149   151    1
   106   149   148    1
   107    98   101    1
   108    98    99    1
   109    19    20   ar
   110   148   145    1
   111   101   102    1
   112   102   103    1
   113    99   100    2
   114    99   106   am
   115   106   107    1
   116   145   146    1
   117   145   144    1
   118   146   147    2
   119   109   108    2
   120   103   105   ar
   121   103   104   ar
   122   139   138    2
   123   142   141    2
   124   107   108    1
   125   107   110    1
   126   108   113   am
   127   141   143   am
   128   141   140    1
   129   138   137    1
   130   137   140    1
   131   137   136    1
   132   133   132    2
   133   113   114    1
   134   110   112    1
   135   110   111    1
   136   120   118   ar
   137   117   114    1
   138   117   118    1
   139   132   136   am
   140   132   131    1
   141   114   115    1
   142   128   129    1
   143   128   127    1
   144   118   119   ar
   145   127   126    1
   146   131   134    1
   147   131   130    1
   148   134   135    1
   149   115   116    2
   150   126   125    1
   151   125   122    1
   152   121   122    1
   153   122   123    1
   154   123   124    2
