@<TRIPOS>MOLECULE
tmp/4fv5A00.pdb
 211 200 0 0 0
SMALL
GASTEIGER

@<TRIPOS>ATOM
      1  N        -18.6300    9.3890   14.0730 N.3    23  ILE23      -0.1231
      2  CA       -18.6630    8.1520   14.8580 C.3    23  ILE23       0.1696
      3  C        -17.2820    7.8440   15.5290 C.2    23  ILE23       0.2632
      4  O        -17.2010    6.8790   16.2930 O.2    23  ILE23      -0.2714
      5  CB       -19.1930    6.9100   14.0490 C.3    23  ILE23       0.0266
      6  CG1      -18.2460    6.4720   12.9050 C.3    23  ILE23       0.0019
      7  CG2      -20.6800    7.0490   13.6150 C.3    23  ILE23       0.0020
      8  CD1      -18.5770    5.1010   12.2570 C.3    23  ILE23       0.0001
      9  N        -16.2440    8.6500   15.2630 N.am   24  GLY24      -0.1718
     10  CA       -14.9150    8.4310   15.8400 C.2    24  GLY24       0.1480
     11  C        -13.7800    9.2700   15.2850 C.2    24  GLY24       0.2820
     12  O        -13.9040    9.8760   14.2180 O.2    24  GLY24      -0.2669
     13  N        -12.6430    9.2590   16.0020 N.am   25  GLU25      -0.1929
     14  CA       -11.4400   10.0270   15.6780 C.3    25  GLU25       0.1736
     15  C        -10.1340    9.2490   15.8930 C.2    25  GLU25       0.2617
     16  O        -10.0770    8.3050   16.6830 O.2    25  GLU25      -0.2715
     17  CB       -11.4020   11.3000   16.5440 C.3    25  GLU25       0.0429
     18  CG       -11.7350   12.5780   15.7970 C.3    25  GLU25       0.1163
     19  CD       -11.9810   13.7840   16.6870 C.2    25  GLU25       0.3649
     20  OE1      -11.3220   13.8920   17.7470 O.co2  25  GLU25      -0.2457
     21  OE2      -12.8300   14.6290   16.3200 O.co2  25  GLU25      -0.2457
     22  N         -9.0940    9.6990   15.1960 N.am   26  GLY26      -0.1940
     23  CA        -7.7260    9.2010   15.2660 C.3    26  GLY26       0.2014
     24  C         -6.7410   10.3530   15.2030 C.2    26  GLY26       0.2639
     25  O         -7.1430   11.4910   14.9260 O.2    26  GLY26      -0.2714
     26  N         -5.4460   10.0770   15.4660 N.am   27  ALA27      -0.1963
     27  CA        -4.3600   11.0690   15.4770 C.3    27  ALA27       0.1728
     28  C         -4.2330   11.8580   14.1600 C.2    27  ALA27       0.2616
     29  O         -3.8480   13.0310   14.1960 O.2    27  ALA27      -0.2715
     30  CB        -3.0400   10.3810   15.7880 C.3    27  ALA27       0.0334
     31  N         -4.5770   11.2270   13.0180 N.am   28  TYR28      -0.1960
     32  CA        -4.4790   11.8110   11.6770 C.3    28  TYR28       0.1774
     33  C         -5.7280   11.5130   10.8050 C.2    28  TYR28       0.2659
     34  O         -5.6200   11.3910    9.5770 O.2    28  TYR28      -0.2711
     35  CB        -3.1980   11.3030   10.9790 C.3    28  TYR28       0.0574
     36  CG        -3.0370    9.7960   10.9770 C.ar   28  TYR28      -0.0198
     37  CD1       -3.4380    9.0330    9.8850 C.ar   28  TYR28      -0.0009
     38  CD2       -2.4550    9.1360   12.0550 C.ar   28  TYR28      -0.0009
     39  CE1       -3.2770    7.6490    9.8710 C.ar   28  TYR28       0.0417
     40  CE2       -2.2850    7.7520   12.0500 C.ar   28  TYR28       0.0417
     41  CZ        -2.6980    7.0120   10.9550 C.ar   28  TYR28       0.1957
     42  OH        -2.5420    5.6480   10.9430 O.3    28  TYR28      -0.2866
     43  N         -6.8980   11.4560   11.4340 N.am   29  GLY29      -0.1716
     44  CA        -8.1330   11.1990   10.7120 C.2    29  GLY29       0.1480
     45  C         -9.4070   11.1580   11.5220 C.2    29  GLY29       0.2820
     46  O         -9.4060   11.4080   12.7330 O.2    29  GLY29      -0.2669
     47  N        -10.5060   10.8240   10.8300 N.am   30  MET30      -0.1928
     48  CA       -11.8630   10.7650   11.3610 C.3    30  MET30       0.1739
     49  C        -12.6580    9.6060   10.7470 C.2    30  MET30       0.2616
     50  O        -12.4810    9.2730    9.5700 O.2    30  MET30      -0.2715
     51  CB       -12.5630   12.1020   11.0630 C.3    30  MET30       0.0427
     52  CG       -13.9240   12.2680   11.7040 C.3    30  MET30       0.0599
     53  SD       -14.6960   13.8330   11.2180 S.3    30  MET30      -0.1393
     54  CE       -13.8110   14.9650   12.2790 C.3    30  MET30       0.0692
     55  N        -13.5520    9.0140   11.5580 N.am   31  VAL31      -0.1977
     56  CA       -14.4520    7.9290   11.1640 C.3    31  VAL31       0.1596
     57  C        -15.8700    8.4900   11.1170 C.2    31  VAL31       0.2287
     58  O        -16.2940    9.1940   12.0390 O.2    31  VAL31      -0.2864
     59  CB       -14.3540    6.6660   12.0650 C.3    31  VAL31       0.0276
     60  CG1      -14.9530    5.4480   11.3620 C.3    31  VAL31       0.0022
     61  CG2      -12.9120    6.3740   12.4640 C.3    31  VAL31       0.0022
     62  N        -19.1870    2.4380    7.2970 N.3    44  ALA44      -0.1245
     63  CA       -18.2140    3.2650    8.0040 C.3    44  ALA44       0.1562
     64  C        -17.1490    3.7480    7.0220 C.2    44  ALA44       0.2260
     65  O        -16.7120    2.9750    6.1620 O.2    44  ALA44      -0.2867
     66  CB       -17.5770    2.4930    9.1400 C.3    44  ALA44       0.0290
     67  N        -13.4700    5.7270    7.0510 N.3    46  LYS46      -0.1245
     68  CA       -12.3080    6.1980    7.7830 C.3    46  LYS46       0.1561
     69  C        -11.4370    7.0560    6.8580 C.2    46  LYS46       0.2260
     70  O        -10.7950    6.5400    5.9330 O.2    46  LYS46      -0.2867
     71  CB       -11.5300    5.0000    8.3620 C.3    46  LYS46       0.0271
     72  CG       -10.1890    5.3320    9.0170 C.3    46  LYS46       0.0035
     73  CD        -9.4940    4.0710    9.4990 C.3    46  LYS46       0.0206
     74  CE        -8.1600    4.3770   10.1250 C.3    46  LYS46       0.1093
     75  NZ        -7.6690    3.2530   10.9600 N.3    46  LYS46      -0.1314
     76  N         -8.1840    9.2660    6.4140 N.3    48  ILE48      -0.1245
     77  CA        -6.8630    9.3990    7.0100 C.3    48  ILE48       0.1561
     78  C         -6.0490   10.3510    6.1480 C.2    48  ILE48       0.2260
     79  O         -6.1270   10.3020    4.9170 O.2    48  ILE48      -0.2867
     80  CB        -6.1340    8.0470    7.2800 C.3    48  ILE48       0.0252
     81  CG1       -6.1830    7.0870    6.0860 C.3    48  ILE48       0.0019
     82  CG2       -6.6700    7.3730    8.5290 C.3    48  ILE48       0.0019
     83  CD1       -4.9670    7.0880    5.3290 C.3    48  ILE48       0.0001
     84  N         -1.7060   -1.2520    8.2520 N.3    63  GLU63      -0.1245
     85  CA        -3.1240   -1.5620    8.4480 C.3    63  GLU63       0.1567
     86  C         -3.7860   -2.0550    7.1500 C.2    63  GLU63       0.2260
     87  O         -4.3570   -3.1480    7.1520 O.2    63  GLU63      -0.2867
     88  CB        -3.8840   -0.3470    9.0220 C.3    63  GLU63       0.0388
     89  CG        -5.3880   -0.5550    9.0500 C.3    63  GLU63       0.1160
     90  CD        -6.1950    0.4220    9.8740 C.2    63  GLU63       0.3649
     91  OE1       -6.8750    1.2850    9.2750 O.co2  63  GLU63      -0.2457
     92  OE2       -6.1940    0.2870   11.1180 O.co2  63  GLU63      -0.2457
     93  N        -12.1350   -6.6830   11.6580 N.3    76  ILE76      -0.1245
     94  CA       -12.7370   -5.7590   10.6990 C.3    76  ILE76       0.1561
     95  C        -12.0240   -5.9120    9.3390 C.2    76  ILE76       0.2260
     96  O        -10.8080   -6.1280    9.2850 O.2    76  ILE76      -0.2867
     97  CB       -12.7470   -4.2810   11.2260 C.3    76  ILE76       0.0252
     98  CG1      -13.8140   -3.4150   10.5130 C.3    76  ILE76       0.0019
     99  CG2      -11.3610   -3.6100   11.2020 C.3    76  ILE76       0.0019
    100  CD1      -15.2580   -3.6050   11.0190 C.3    76  ILE76       0.0001
    101  N        -15.6120    0.4400    5.3730 N.3    97  GLN97      -0.1231
    102  CA       -15.7190   -0.7700    6.1880 C.3    97  GLN97       0.1698
    103  C        -17.1610   -1.0000    6.6650 C.2    97  GLN97       0.2592
    104  O        -18.0180   -0.1290    6.4820 O.2    97  GLN97      -0.2718
    105  CB       -14.7600   -0.6730    7.3980 C.3    97  GLN97       0.0381
    106  CG       -13.3070   -0.3560    7.0220 C.3    97  GLN97       0.0905
    107  CD       -12.3780   -0.2940    8.2040 C.2    97  GLN97       0.2608
    108  OE1      -12.2450    0.7420    8.8590 O.2    97  GLN97      -0.2717
    109  NE2      -11.6810   -1.3850    8.4760 N.am   97  GLN97      -0.0878
    110  N        -17.4260   -2.1860    7.2640 N.am   98  ASP98      -0.1960
    111  CA       -18.7300   -2.5490    7.8160 C.3    98  ASP98       0.1840
    112  C        -19.0480   -1.6590    9.0020 C.2    98  ASP98       0.2622
    113  O        -18.2020   -1.5050    9.8840 O.2    98  ASP98      -0.2715
    114  CB       -18.7740   -4.0340    8.2420 C.3    98  ASP98       0.1450
    115  CG       -18.6760   -5.0540    7.1210 C.2    98  ASP98       0.3671
    116  OD1      -18.9380   -4.6860    5.9520 O.co2  98  ASP98      -0.2456
    117  OD2      -18.3780   -6.2330    7.4170 O.co2  98  ASP98      -0.2456
    118  N        -20.2520   -1.0540    9.0130 N.am   99  LEU99      -0.1963
    119  CA       -20.6940   -0.1780   10.0930 C.3    99  LEU99       0.1728
    120  C        -21.1680   -1.0160   11.2750 C.2    99  LEU99       0.2616
    121  O        -22.0240   -1.8900   11.1190 O.2    99  LEU99      -0.2715
    122  CB       -21.7940    0.7980    9.6180 C.3    99  LEU99       0.0311
    123  CG       -22.3740    1.7620   10.6690 C.3    99  LEU99       0.0022
    124  CD1      -21.3270    2.7510   11.1630 C.3    99  LEU99       0.0001
    125  CD2      -23.5500    2.5180   10.1210 C.3    99  LEU99       0.0001
    126  N        -20.5850   -0.7690   12.4470 N.am  100  MET100     -0.1963
    127  CA       -20.9330   -1.4880   13.6650 C.3   100  MET100      0.1736
    128  C        -21.9470   -0.6750   14.4890 C.2   100  MET100      0.2616
    129  O        -22.3140    0.4360   14.0970 O.2   100  MET100     -0.2715
    130  CB       -19.6650   -1.8370   14.4680 C.3   100  MET100      0.0427
    131  CG       -18.6930   -2.7370   13.7030 C.3   100  MET100      0.0599
    132  SD       -19.3740   -4.3480   13.2010 S.3   100  MET100     -0.1393
    133  CE       -19.0460   -5.2870   14.6360 C.3   100  MET100      0.0692
    134  N        -22.4630   -1.2600   15.5800 N.am  101  GLU101     -0.1963
    135  CA       -23.4720   -0.6140   16.4180 C.3   101  GLU101      0.1733
    136  C        -22.8300    0.2900   17.4700 C.2   101  GLU101      0.2617
    137  O        -23.2710    1.4270   17.6530 O.2   101  GLU101     -0.2715
    138  CB       -24.3770   -1.6720   17.0800 C.3   101  GLU101      0.0429
    139  CG       -25.5520   -1.1240   17.8830 C.3   101  GLU101      0.1163
    140  CD       -26.6110   -0.3180   17.1470 C.2   101  GLU101      0.3649
    141  OE1      -26.7250   -0.4480   15.9060 O.co2 101  GLU101     -0.2457
    142  OE2      -27.3510    0.4280   17.8260 O.co2 101  GLU101     -0.2457
    143  N        -21.8220   -0.2370   18.1820 N.am  102  THR102     -0.1937
    144  CA       -21.1040    0.4490   19.2560 C.3   102  THR102      0.2028
    145  C        -19.6970   -0.1570   19.3910 C.2   102  THR102      0.2642
    146  O        -19.2970   -1.0050   18.5860 O.2   102  THR102     -0.2714
    147  CB       -21.9330    0.3670   20.5830 C.3   102  THR102      0.1808
    148  OG1      -21.3500    1.2020   21.5860 O.3   102  THR102     -0.2208
    149  CG2      -22.0960   -1.0680   21.1150 C.3   102  THR102      0.0379
    150  N        -18.9480    0.3070   20.3920 N.am  103  ASP103     -0.1971
    151  CA       -17.6390   -0.2170   20.7590 C.3   103  ASP103      0.1709
    152  C        -17.6650   -0.5060   22.2600 C.2   103  ASP103      0.2293
    153  O        -18.5690   -0.0260   22.9550 O.2   103  ASP103     -0.2864
    154  CB       -16.4820    0.7180   20.3410 C.3   103  ASP103      0.1436
    155  CG       -16.5240    2.1270   20.8890 C.2   103  ASP103      0.3671
    156  OD1      -16.5630    2.2840   22.1260 O.co2 103  ASP103     -0.2456
    157  OD2      -16.3990    3.0710   20.0910 O.co2 103  ASP103     -0.2456
    158  N        -17.6680    2.6230   24.7410 N.3   106  LYS106     -0.1245
    159  CA       -18.9990    3.2210   24.8900 C.3   106  LYS106      0.1561
    160  C        -19.9070    2.3550   25.7590 C.2   106  LYS106      0.2260
    161  O        -20.6020    2.8790   26.6360 O.2   106  LYS106     -0.2867
    162  CB       -19.6630    3.4220   23.5180 C.3   106  LYS106      0.0271
    163  CG       -19.0720    4.5380   22.6890 C.3   106  LYS106      0.0035
    164  CD       -19.5300    4.4380   21.2410 C.3   106  LYS106      0.0206
    165  CE       -19.1790    5.6660   20.4380 C.3   106  LYS106      0.1093
    166  NZ       -17.7090    5.8560   20.3250 N.3   106  LYS106     -0.1314
    167  N         -7.6060   -2.4230   23.2130 N.3   143  LYS143     -0.1245
    168  CA        -8.3050   -1.5980   24.2030 C.3   143  LYS143      0.1561
    169  C         -9.8200   -1.5700   23.8810 C.2   143  LYS143      0.2260
    170  O        -10.1780   -1.8770   22.7390 O.2   143  LYS143     -0.2867
    171  CB        -7.7030   -0.1730   24.2690 C.3   143  LYS143      0.0271
    172  CG        -7.6140    0.5580   22.9370 C.3   143  LYS143      0.0035
    173  CD        -7.1060    1.9650   23.1340 C.3   143  LYS143      0.0206
    174  CE        -6.8800    2.6380   21.8110 C.3   143  LYS143      0.1093
    175  NZ        -6.4320    4.0390   21.9910 N.3   143  LYS143     -0.1314
    176  N        -11.9690    0.7330   23.0490 N.3   145  SER145     -0.1202
    177  CA       -12.2940    1.5750   21.8850 C.3   145  SER145      0.2020
    178  C        -11.9160    0.9120   20.5400 C.2   145  SER145      0.2618
    179  O        -12.4300    1.3300   19.5000 O.2   145  SER145     -0.2717
    180  CB       -11.6300    2.9440   21.9980 C.3   145  SER145      0.2103
    181  OG       -10.2190    2.8550   22.1080 O.3   145  SER145     -0.2182
    182  N        -11.0370   -0.1080   20.5640 N.am  146  ASN146     -0.1974
    183  CA       -10.6250   -0.8420   19.3700 C.3   146  ASN146      0.1688
    184  C        -11.3760   -2.1870   19.2430 C.2   146  ASN146      0.2292
    185  O        -11.0400   -3.0050   18.3840 O.2   146  ASN146     -0.2864
    186  CB        -9.1100   -1.0380   19.3500 C.3   146  ASN146      0.1181
    187  CG        -8.3410    0.2200   19.0160 C.2   146  ASN146      0.2629
    188  OD1       -8.8860    1.2170   18.5350 O.2   146  ASN146     -0.2716
    189  ND2       -7.0430    0.1970   19.2560 N.am  146  ASN146     -0.0877
    190  N        -15.1160   -3.4340   18.4690 N.3   148  LEU148     -0.1245
    191  CA       -16.4110   -3.0220   17.9330 C.3   148  LEU148      0.1561
    192  C        -17.4760   -4.1060   18.0630 C.2   148  LEU148      0.2260
    193  O        -17.2050   -5.2880   17.8340 O.2   148  LEU148     -0.2867
    194  CB       -16.2800   -2.5970   16.4610 C.3   148  LEU148      0.0270
    195  CG       -15.1290   -1.6530   16.0760 C.3   148  LEU148      0.0019
    196  CD1      -14.9790   -1.5890   14.5740 C.3   148  LEU148      0.0001
    197  CD2      -15.3100   -0.2500   16.6750 C.3   148  LEU148      0.0001
    198  N        -10.4890   -3.7870   15.5730 N.3   157  CYS157     -0.1221
    199  CA       -10.1070   -2.7550   14.6100 C.3   157  CYS157      0.1808
    200  C         -8.8070   -2.0580   15.0380 C.2   157  CYS157      0.2601
    201  O         -8.2670   -2.3460   16.1130 O.2   157  CYS157     -0.2717
    202  CB       -11.2430   -1.7560   14.3850 C.3   157  CYS157      0.0970
    203  SG       -11.5140   -0.5980   15.7540 S.3   157  CYS157     -0.0800
    204  N         -8.2970   -1.1630   14.1600 N.am  158  ASP158     -0.1973
    205  CA        -7.0830   -0.3460   14.2970 C.3   158  ASP158      0.1709
    206  C         -5.8210   -1.2290   14.3150 C.2   158  ASP158      0.2293
    207  O         -5.3240   -1.6020   15.3760 O.2   158  ASP158     -0.2864
    208  CB        -7.1470    0.5940   15.5270 C.3   158  ASP158      0.1436
    209  CG        -6.0810    1.6800   15.6150 C.2   158  ASP158      0.3671
    210  OD1       -6.1490    2.4990   16.5540 O.co2 158  ASP158     -0.2456
    211  OD2       -5.1880    1.7180   14.7380 O.co2 158  ASP158     -0.2456
@<TRIPOS>BOND
     1    79    78    2
     2    83    81    1
     3   101   102    1
     4    70    69    2
     5   116   115   ar
     6    81    80    1
     7    78    77    1
     8    65    64    2
     9   102   103    1
    10   102   105    1
    11    76    77    1
    12   104   103    2
    13   103   110   am
    14    69    68    1
    15    77    80    1
    16    64    63    1
    17   106   105    1
    18   106   107    1
    19    67    68    1
    20   115   117   ar
    21   115   114    1
    22    86    87    2
    23    86    85    1
    24   110   111    1
    25    80    82    1
    26    62    63    1
    27    68    71    1
    28   111   114    1
    29   111   112    1
    30    63    66    1
    31   107   109   am
    32   107   108    2
    33    84    85    1
    34    71    72    1
    35    85    88    1
    36   112   118   am
    37   112   113    2
    38   118   119    1
    39    72    73    1
    40    88    89    1
    41    89    90    1
    42    91    90   ar
    43    96    95    2
    44    95    94    1
    45    73    74    1
    46    50    49    2
    47    34    33    2
    48   122   119    1
    49   122   123    1
    50    39    37   ar
    51    39    41   ar
    52    90    92   ar
    53    37    36   ar
    54   119   120    1
    55   125   123    1
    56    74    75    1
    57    98   100    1
    58    98    97    1
    59   123   124    1
    60    94    97    1
    61    94    93    1
    62    44    43    2
    63    44    45    1
    64    49    48    1
    65    49    55   am
    66    33    43    1
    67    33    32    1
    68    47    48    1
    69    47    45   am
    70    42    41    1
    71    41    40   ar
    72    36    35    1
    73    36    38   ar
    74    35    32    1
    75    51    48    1
    76    51    52    1
    77    57    56    1
    78    57    58    2
    79   121   120    2
    80    56    55    1
    81    56    59    1
    82    99    97    1
    83    53    52    1
    84    53    54    1
    85   120   126   am
    86    60    59    1
    87    45    46    2
    88    32    31    1
    89    40    38   ar
    90    59    61    1
    91     8     6    1
    92   126   127    1
    93     6     5    1
    94    31    28   am
    95   132   131    1
    96   132   133    1
    97     7     5    1
    98   127   130    1
    99   127   128    1
   100   131   130    1
   101     5     2    1
   102     1     2    1
   103   129   128    2
   104    28    29    2
   105    28    27    1
   106   204   205    1
   107   204   200   am
   108    12    11    2
   109   205   206    1
   110   205   208    1
   111   206   207    2
   112   202   199    1
   113   202   203    1
   114   128   134   am
   115   196   195    1
   116   199   200    1
   117   199   198    1
   118   211   209   ar
   119     2     3    1
   120    25    24    2
   121   200   201    2
   122    22    23    1
   123    22    15   am
   124    24    23    1
   125    24    26   am
   126     9     3    1
   127     9    10    2
   128    11    10    1
   129    11    13   am
   130    26    27    1
   131    27    30    1
   132   208   209    1
   133     3     4    2
   134   134   135    1
   135   209   210   ar
   136    14    15    1
   137    14    13    1
   138    14    17    1
   139    18    17    1
   140    18    19    1
   141    15    16    2
   142   141   140   ar
   143   195   194    1
   144   195   197    1
   145    21    19   ar
   146   135   138    1
   147   135   136    1
   148   194   191    1
   149    19    20   ar
   150   138   139    1
   151   140   142   ar
   152   140   139    1
   153   136   137    2
   154   136   143   am
   155   193   192    2
   156   191   192    1
   157   191   190    1
   158   143   144    1
   159   185   184    2
   160   188   187    2
   161   146   145    2
   162   187   189   am
   163   187   186    1
   164   184   183    1
   165   144   145    1
   166   144   147    1
   167   186   183    1
   168   183   182    1
   169   145   150   am
   170   179   178    2
   171   157   155   ar
   172   166   165    1
   173   154   151    1
   174   154   155    1
   175   150   151    1
   176   165   164    1
   177   178   182   am
   178   178   177    1
   179   147   149    1
   180   147   148    1
   181   151   152    1
   182   155   156   ar
   183   164   163    1
   184   174   175    1
   185   174   173    1
   186   177   180    1
   187   177   176    1
   188   180   181    1
   189   152   153    2
   190   163   162    1
   191   170   169    2
   192   172   173    1
   193   172   171    1
   194   167   168    1
   195   162   159    1
   196   169   168    1
   197   168   171    1
   198   158   159    1
   199   159   160    1
   200   160   161    2
