@<TRIPOS>MOLECULE
tmp/4fv6A00.pdb
 211 202 0 0 0
SMALL
GASTEIGER

@<TRIPOS>ATOM
      1  N          3.2330   -9.5820  -14.4350 N.3    23  ILE23      -0.1231
      2  CA         3.1170   -8.4750  -15.3980 C.3    23  ILE23       0.1696
      3  C          4.4100   -8.2830  -16.2500 C.2    23  ILE23       0.2632
      4  O          4.3510   -7.5950  -17.2720 O.2    23  ILE23      -0.2714
      5  CB         2.6690   -7.1330  -14.7360 C.3    23  ILE23       0.0266
      6  CG1        3.6100   -6.6820  -13.5940 C.3    23  ILE23       0.0019
      7  CG2        1.2060   -7.2020  -14.2790 C.3    23  ILE23       0.0020
      8  CD1        3.4870   -5.2150  -13.2230 C.3    23  ILE23       0.0001
      9  N          5.5320   -8.8900  -15.8450 N.am   24  GLY24      -0.1718
     10  CA         6.7950   -8.7860  -16.5730 C.2    24  GLY24       0.1480
     11  C          7.9790   -9.4690  -15.9120 C.2    24  GLY24       0.2820
     12  O          7.8660   -9.9460  -14.7790 O.2    24  GLY24      -0.2669
     13  N          9.1340   -9.5200  -16.6190 N.am   25  GLU25      -0.1929
     14  CA        10.3670  -10.1380  -16.1070 C.3    25  GLU25       0.1736
     15  C         11.6440   -9.4640  -16.6640 C.2    25  GLU25       0.2617
     16  O         11.5740   -8.6860  -17.6180 O.2    25  GLU25      -0.2715
     17  CB        10.3920  -11.6580  -16.3940 C.3    25  GLU25       0.0429
     18  CG        10.5050  -12.0580  -17.8580 C.3    25  GLU25       0.1163
     19  CD        10.4990  -13.5560  -18.1020 C.2    25  GLU25       0.3649
     20  OE1       11.3980  -14.2520  -17.5760 O.co2  25  GLU25      -0.2457
     21  OE2        9.6020  -14.0330  -18.8340 O.co2  25  GLU25      -0.2457
     22  N         12.7830   -9.7850  -16.0470 N.am   26  GLY26      -0.1940
     23  CA        14.1030   -9.2810  -16.4160 C.3    26  GLY26       0.2014
     24  C         15.1800  -10.3490  -16.3650 C.2    26  GLY26       0.2639
     25  O         14.8780  -11.5320  -16.1850 O.2    26  GLY26      -0.2714
     26  N         16.4520   -9.9290  -16.5150 N.am   27  ALA27      -0.1963
     27  CA        17.6210  -10.8210  -16.5330 C.3    27  ALA27       0.1728
     28  C         17.8540  -11.5490  -15.1980 C.2    27  ALA27       0.2616
     29  O         18.3280  -12.6880  -15.2100 O.2    27  ALA27      -0.2715
     30  CB        18.8680  -10.0350  -16.9060 C.3    27  ALA27       0.0334
     31  N         17.5340  -10.9030  -14.0610 N.am   28  TYR28      -0.1960
     32  CA        17.7380  -11.4790  -12.7300 C.3    28  TYR28       0.1774
     33  C         16.5410  -11.1850  -11.7940 C.2    28  TYR28       0.2659
     34  O         16.7330  -10.8820  -10.6150 O.2    28  TYR28      -0.2711
     35  CB        19.0790  -10.9890  -12.1190 C.3    28  TYR28       0.0574
     36  CG        19.2810   -9.4840  -12.1120 C.ar   28  TYR28      -0.0198
     37  CD1       19.0450   -8.7340  -10.9640 C.ar   28  TYR28      -0.0009
     38  CD2       19.7700   -8.8190  -13.2350 C.ar   28  TYR28      -0.0009
     39  CE1       19.2430   -7.3540  -10.9460 C.ar   28  TYR28       0.0417
     40  CE2       19.9760   -7.4390  -13.2280 C.ar   28  TYR28       0.0417
     41  CZ        19.7090   -6.7100  -12.0810 C.ar   28  TYR28       0.1957
     42  OH        19.9030   -5.3500  -12.0660 O.3    28  TYR28      -0.2866
     43  N         15.3210  -11.3290  -12.3140 N.am   29  GLY29      -0.1716
     44  CA        14.1200  -11.0990  -11.5180 C.2    29  GLY29       0.1480
     45  C         12.7900  -11.1240  -12.2470 C.2    29  GLY29       0.2820
     46  O         12.7240  -11.4670  -13.4300 O.2    29  GLY29      -0.2669
     47  N         11.7170  -10.7430  -11.5200 N.am   30  MET30      -0.1928
     48  CA        10.3230  -10.7520  -11.9820 C.3    30  MET30       0.1739
     49  C          9.5410   -9.5210  -11.4840 C.2    30  MET30       0.2616
     50  O          9.8160   -9.0300  -10.3890 O.2    30  MET30      -0.2715
     51  CB         9.6510  -12.0370  -11.4540 C.3    30  MET30       0.0427
     52  CG         8.2730  -12.3220  -12.0280 C.3    30  MET30       0.0599
     53  SD         7.5880  -13.8840  -11.4200 S.3    30  MET30      -0.1393
     54  CE         8.4120  -15.0370  -12.5010 C.3    30  MET30       0.0692
     55  N          8.5440   -9.0580  -12.2730 N.am   31  VAL31      -0.1977
     56  CA         7.6480   -7.9460  -11.9180 C.3    31  VAL31       0.1596
     57  C          6.2400   -8.5020  -11.7360 C.2    31  VAL31       0.2287
     58  O          5.7490   -9.2410  -12.5940 O.2    31  VAL31      -0.2864
     59  CB         7.6400   -6.7540  -12.9140 C.3    31  VAL31       0.0276
     60  CG1        7.0750   -5.4940  -12.2610 C.3    31  VAL31       0.0022
     61  CG2        9.0230   -6.4790  -13.4610 C.3    31  VAL31       0.0022
     62  N          3.0250   -2.0320   -8.3430 N.3    44  ALA44      -0.1245
     63  CA         3.9410   -2.8930   -9.0800 C.3    44  ALA44       0.1562
     64  C          5.1040   -3.2500   -8.1770 C.2    44  ALA44       0.2260
     65  O          5.6720   -2.3620   -7.5360 O.2    44  ALA44      -0.2867
     66  CB         4.4330   -2.1930  -10.3340 C.3    44  ALA44       0.0290
     67  N          8.7780   -5.1450   -8.1280 N.3    46  LYS46      -0.1231
     68  CA         9.9040   -5.6510   -8.8920 C.3    46  LYS46       0.1693
     69  C         10.8210   -6.4570   -7.9710 C.2    46  LYS46       0.2592
     70  O         11.5210   -5.8820   -7.1310 O.2    46  LYS46      -0.2718
     71  CB        10.6510   -4.4770   -9.5560 C.3    46  LYS46       0.0285
     72  CG        11.8630   -4.8640  -10.3900 C.3    46  LYS46       0.0035
     73  CD        12.5990   -3.6280  -10.8660 C.3    46  LYS46       0.0206
     74  CE        13.8460   -3.9690  -11.6410 C.3    46  LYS46       0.1093
     75  NZ        14.2050   -2.8940  -12.6000 N.3    46  LYS46      -0.1314
     76  N         10.7850   -7.7910   -8.1130 N.am   47  LYS47      -0.1966
     77  CA        11.6580   -8.7010   -7.3790 C.3    47  LYS47       0.1728
     78  C         12.9380   -8.8580   -8.1780 C.2    47  LYS47       0.2616
     79  O         12.8720   -9.0620   -9.3890 O.2    47  LYS47      -0.2715
     80  CB        10.9870  -10.0680   -7.1430 C.3    47  LYS47       0.0311
     81  CG        11.8880  -11.0850   -6.4420 C.3    47  LYS47       0.0038
     82  CD        11.3150  -12.4900   -6.4280 C.3    47  LYS47       0.0206
     83  CE        12.2250  -13.4090   -5.6490 C.3    47  LYS47       0.1093
     84  NZ        11.7500  -14.8140   -5.6550 N.3    47  LYS47      -0.1314
     85  N         14.0930   -8.7700   -7.5100 N.am   48  ILE48      -0.1977
     86  CA        15.4000   -8.9320   -8.1460 C.3    48  ILE48       0.1596
     87  C         16.3010   -9.7800   -7.2550 C.2    48  ILE48       0.2287
     88  O         16.3280   -9.5860   -6.0390 O.2    48  ILE48      -0.2864
     89  CB        16.0730   -7.5840   -8.5250 C.3    48  ILE48       0.0276
     90  CG1       15.8990   -6.5170   -7.4200 C.3    48  ILE48       0.0022
     91  CG2       15.5620   -7.0850   -9.8790 C.3    48  ILE48       0.0022
     92  CD1       16.7930   -5.3410   -7.5470 C.3    48  ILE48       0.0001
     93  N          9.6490    6.8390  -13.1460 N.3    76  ILE76      -0.1245
     94  CA         9.1030    5.9630  -12.1090 C.3    76  ILE76       0.1561
     95  C          9.9390    6.1530  -10.8280 C.2    76  ILE76       0.2260
     96  O         11.1470    6.3820  -10.9040 O.2    76  ILE76      -0.2867
     97  CB         9.0290    4.4720  -12.5750 C.3    76  ILE76       0.0252
     98  CG1        7.9710    3.6660  -11.7840 C.3    76  ILE76       0.0019
     99  CG2       10.4000    3.7730  -12.5600 C.3    76  ILE76       0.0019
    100  CD1        6.5190    3.8760  -12.2300 C.3    76  ILE76       0.0001
    101  N          6.7200    0.0320   -6.6380 N.3    97  GLN97      -0.1231
    102  CA         6.5720    1.2030   -7.5110 C.3    97  GLN97       0.1698
    103  C          5.1030    1.4020   -7.9020 C.2    97  GLN97       0.2592
    104  O          4.2850    0.5100   -7.6700 O.2    97  GLN97      -0.2718
    105  CB         7.4380    1.0400   -8.7780 C.3    97  GLN97       0.0381
    106  CG         8.9120    0.7460   -8.5000 C.3    97  GLN97       0.0905
    107  CD         9.7670    0.7680   -9.7330 C.2    97  GLN97       0.2608
    108  OE1        9.6600   -0.0890  -10.6160 O.2    97  GLN97      -0.2717
    109  NE2       10.6810    1.7170   -9.7890 N.am   97  GLN97      -0.0878
    110  N          4.7670    2.5720   -8.4850 N.am   98  ASP98      -0.1960
    111  CA         3.4120    2.8820   -8.9560 C.3    98  ASP98       0.1840
    112  C          3.0500    1.9830  -10.1250 C.2    98  ASP98       0.2622
    113  O          3.8670    1.8320  -11.0270 O.2    98  ASP98      -0.2715
    114  CB         3.3090    4.3540   -9.3940 C.3    98  ASP98       0.1450
    115  CG         3.3630    5.3780   -8.2820 C.2    98  ASP98       0.3671
    116  OD1        2.9690    5.0430   -7.1440 O.co2  98  ASP98      -0.2456
    117  OD2        3.7350    6.5350   -8.5640 O.co2  98  ASP98      -0.2456
    118  N          1.8440    1.3890  -10.1160 N.am   99  LEU99      -0.1963
    119  CA         1.3880    0.5100  -11.1930 C.3    99  LEU99       0.1728
    120  C          0.8060    1.3280  -12.3430 C.2    99  LEU99       0.2616
    121  O          0.0000    2.2400  -12.1220 O.2    99  LEU99      -0.2715
    122  CB         0.3540   -0.5060  -10.6690 C.3    99  LEU99       0.0311
    123  CG        -0.1950   -1.5580  -11.6480 C.3    99  LEU99       0.0022
    124  CD1        0.8870   -2.5550  -12.0840 C.3    99  LEU99       0.0001
    125  CD2       -1.3540   -2.2990  -11.0250 C.3    99  LEU99       0.0001
    126  N          1.2160    0.9850  -13.5720 N.am  100  MET100     -0.1963
    127  CA         0.7590    1.6260  -14.8020 C.3   100  MET100      0.1736
    128  C         -0.0940    0.6360  -15.5930 C.2   100  MET100      0.2616
    129  O          0.0670   -0.5760  -15.4330 O.2   100  MET100     -0.2715
    130  CB         1.9520    2.1370  -15.6260 C.3   100  MET100      0.0427
    131  CG         2.8360    3.1260  -14.8710 C.3   100  MET100      0.0599
    132  SD         2.0730    4.7360  -14.5580 S.3   100  MET100     -0.1393
    133  CE         2.3510    5.5480  -16.1330 C.3   100  MET100      0.0692
    134  N         -1.0290    1.1510  -16.4110 N.am  101  GLU101     -0.1963
    135  CA        -1.9740    0.3420  -17.1890 C.3   101  GLU101      0.1733
    136  C         -1.2930   -0.5030  -18.2570 C.2   101  GLU101      0.2617
    137  O         -1.5940   -1.6920  -18.3720 O.2   101  GLU101     -0.2715
    138  CB        -3.0460    1.2270  -17.8500 C.3   101  GLU101      0.0429
    139  CG        -3.9440    1.9640  -16.8690 C.3   101  GLU101      0.1163
    140  CD        -4.8290    1.1180  -15.9710 C.2   101  GLU101      0.3649
    141  OE1       -4.8720    1.4010  -14.7520 O.co2 101  GLU101     -0.2457
    142  OE2       -5.4760    0.1730  -16.4800 O.co2 101  GLU101     -0.2457
    143  N         -0.3920    0.1030  -19.0420 N.am  102  THR102     -0.1937
    144  CA         0.2980   -0.5760  -20.1400 C.3   102  THR102      0.2028
    145  C          1.6750    0.0780  -20.3840 C.2   102  THR102      0.2642
    146  O          2.1410    0.8630  -19.5560 O.2   102  THR102     -0.2714
    147  CB        -0.6120   -0.5560  -21.4020 C.3   102  THR102      0.1808
    148  OG1       -0.0410   -1.3770  -22.4180 O.3   102  THR102     -0.2208
    149  CG2       -0.8810    0.8600  -21.9400 C.3   102  THR102      0.0379
    150  N          2.3250   -0.2740  -21.5070 N.am  103  ASP103     -0.1971
    151  CA         3.5920    0.2980  -21.9510 C.3   103  ASP103      0.1709
    152  C          3.5100    0.5650  -23.4610 C.2   103  ASP103      0.2293
    153  O          2.5450    0.1310  -24.0980 O.2   103  ASP103     -0.2864
    154  CB         4.8030   -0.5870  -21.5730 C.3   103  ASP103      0.1436
    155  CG         4.8100   -2.0030  -22.1180 C.2   103  ASP103      0.3671
    156  OD1        4.5640   -2.1760  -23.3280 O.co2 103  ASP103     -0.2456
    157  OD2        5.1730   -2.9250  -21.3600 O.co2 103  ASP103     -0.2456
    158  N          3.4640   -2.7250  -25.8270 N.3   106  LYS106     -0.1245
    159  CA         2.1290   -3.3270  -25.8760 C.3   106  LYS106      0.1561
    160  C          1.1550   -2.4860  -26.7100 C.2   106  LYS106      0.2260
    161  O          0.3010   -3.0510  -27.3950 O.2   106  LYS106     -0.2867
    162  CB         1.5620   -3.4940  -24.4590 C.3   106  LYS106      0.0271
    163  CG         2.2050   -4.5910  -23.6250 C.3   106  LYS106      0.0035
    164  CD         1.5910   -4.6080  -22.2350 C.3   106  LYS106      0.0206
    165  CE         2.0210   -5.7970  -21.4180 C.3   106  LYS106      0.1093
    166  NZ         1.1750   -5.9540  -20.2050 N.3   106  LYS106     -0.1314
    167  N         13.6360    2.1200  -24.6180 N.3   143  LYS143     -0.1245
    168  CA        12.9040    1.2860  -25.5780 C.3   143  LYS143      0.1561
    169  C         11.3980    1.3270  -25.2560 C.2   143  LYS143      0.2260
    170  O         11.0560    1.6870  -24.1250 O.2   143  LYS143     -0.2867
    171  CB        13.4430   -0.1640  -25.5680 C.3   143  LYS143      0.0271
    172  CG        13.5010   -0.8160  -24.1930 C.3   143  LYS143      0.0035
    173  CD        13.9720   -2.2470  -24.2920 C.3   143  LYS143      0.0206
    174  CE        14.1820   -2.8760  -22.9390 C.3   143  LYS143      0.1093
    175  NZ        14.2530   -4.3570  -23.0360 N.3   143  LYS143     -0.1314
    176  N          9.2580   -0.8990  -24.3060 N.3   145  SER145     -0.1202
    177  CA         8.8650   -1.7080  -23.1440 C.3   145  SER145      0.2020
    178  C          9.2590   -1.0360  -21.8110 C.2   145  SER145      0.2618
    179  O          8.7090   -1.3970  -20.7680 O.2   145  SER145     -0.2717
    180  CB         9.4500   -3.1150  -23.2290 C.3   145  SER145      0.2103
    181  OG        10.8660   -3.0990  -23.2610 O.3   145  SER145     -0.2182
    182  N         10.1800   -0.0460  -21.8480 N.am  146  ASN146     -0.1974
    183  CA        10.6110    0.6950  -20.6620 C.3   146  ASN146      0.1688
    184  C          9.8790    2.0510  -20.5460 C.2   146  ASN146      0.2292
    185  O         10.2310    2.8670  -19.6930 O.2   146  ASN146     -0.2864
    186  CB        12.1310    0.8900  -20.6660 C.3   146  ASN146      0.1181
    187  CG        12.9190   -0.3460  -20.2930 C.2   146  ASN146      0.2629
    188  OD1       12.3940   -1.3290  -19.7580 O.2   146  ASN146     -0.2716
    189  ND2       14.2130   -0.3150  -20.5460 N.am  146  ASN146     -0.0877
    190  N          6.2670    3.3250  -19.7040 N.3   148  LEU148     -0.1245
    191  CA         4.9710    2.9580  -19.1370 C.3   148  LEU148      0.1561
    192  C          3.9150    4.0240  -19.3850 C.2   148  LEU148      0.2260
    193  O          4.2190    5.2150  -19.3530 O.2   148  LEU148     -0.2867
    194  CB         5.0980    2.6950  -17.6300 C.3   148  LEU148      0.0270
    195  CG         6.2410    1.7920  -17.1620 C.3   148  LEU148      0.0019
    196  CD1        6.3400    1.7990  -15.6600 C.3   148  LEU148      0.0001
    197  CD2        6.0790    0.3690  -17.6720 C.3   148  LEU148      0.0001
    198  N         10.8810    3.7640  -17.0320 N.3   158  CYS158     -0.1221
    199  CA        11.2310    2.7860  -16.0030 C.3   158  CYS158      0.1808
    200  C         12.5240    2.0350  -16.3600 C.2   158  CYS158      0.2601
    201  O         13.1440    2.3280  -17.3870 O.2   158  CYS158     -0.2717
    202  CB        10.0740    1.8260  -15.7360 C.3   158  CYS158      0.0970
    203  SG         9.7580    0.6340  -17.0620 S.3   158  CYS158     -0.0800
    204  N         12.9340    1.0930  -15.4790 N.am  159  ASP159     -0.1973
    205  CA        14.1270    0.2470  -15.5710 C.3   159  ASP159      0.1709
    206  C         15.4060    1.0930  -15.6620 C.2   159  ASP159      0.2293
    207  O         15.8920    1.3940  -16.7560 O.2   159  ASP159     -0.2864
    208  CB        14.0330   -0.7590  -16.7360 C.3   159  ASP159      0.1436
    209  CG        15.1390   -1.8040  -16.7970 C.2   159  ASP159      0.3671
    210  OD1       15.8650   -1.9680  -15.7890 O.co2 159  ASP159     -0.2456
    211  OD2       15.1920   -2.5470  -17.7990 O.co2 159  ASP159     -0.2456
@<TRIPOS>BOND
     1   161   160    2
     2   160   159    1
     3   159   158    1
     4   159   162    1
     5   168   171    1
     6   168   169    1
     7   168   167    1
     8   171   172    1
     9   169   170    2
    10   162   163    1
    11   176   177    1
    12   173   172    1
    13   173   174    1
    14   153   152    2
    15   163   164    1
    16   152   151    1
    17   156   155   ar
    18   181   180    1
    19   180   177    1
    20   177   178    1
    21   175   174    1
    22   148   147    1
    23   164   165    1
    24   155   154    1
    25   155   157   ar
    26   151   154    1
    27   151   150    1
    28   149   147    1
    29   182   178   am
    30   182   183    1
    31   178   179    2
    32   150   145   am
    33   165   166    1
    34   147   144    1
    35   186   183    1
    36   186   187    1
    37   183   184    1
    38   189   187   am
    39   184   185    2
    40   145   144    1
    41   145   146    2
    42   187   188    2
    43   144   143    1
    44   190   191    1
    45   192   193    2
    46   192   191    1
    47   191   194    1
    48   143   136   am
    49    21    19   ar
    50   137   136    2
    51   136   135    1
    52    19    18    1
    53    19    20   ar
    54    18    17    1
    55   138   135    1
    56   138   139    1
    57   211   209   ar
    58   197   195    1
    59   194   195    1
    60    16    15    2
    61   201   200    2
    62     4     3    2
    63   135   134    1
    64   195   196    1
    65   203   202    1
    66   198   199    1
    67    30    27    1
    68   139   140    1
    69   209   208    1
    70   209   210   ar
    71   207   206    2
    72   208   205    1
    73    15    14    1
    74    15    22   am
    75    13    14    1
    76    13    11   am
    77    10    11    1
    78    10     9    2
    79    27    26    1
    80    27    28    1
    81    26    24   am
    82   142   140   ar
    83    23    24    1
    84    23    22    1
    85   134   128   am
    86    17    14    1
    87    24    25    2
    88   200   199    1
    89   200   204   am
    90     3     9    1
    91     3     2    1
    92   133   132    1
    93   199   202    1
    94   140   141   ar
    95    11    12    2
    96   206   205    1
    97   130   131    1
    98   130   127    1
    99   128   129    2
   100   128   127    1
   101   205   204    1
   102     2     5    1
   103     2     1    1
   104    29    28    2
   105    28    31   am
   106   131   132    1
   107   127   126    1
   108     5     7    1
   109     5     6    1
   110    31    32    1
   111     6     8    1
   112   126   120   am
   113    61    59    1
   114    46    45    2
   115    38    40   ar
   116    38    36   ar
   117    40    41   ar
   118    93    94    1
   119    59    60    1
   120    59    56    1
   121    32    35    1
   122    32    33    1
   123    75    74    1
   124    58    57    2
   125    97    99    1
   126    97    94    1
   127    97    98    1
   128    54    53    1
   129   120   121    2
   130   120   119    1
   131    43    33    1
   132    43    44    2
   133    55    56    1
   134    55    49   am
   135    45    47   am
   136    45    44    1
   137   100    98    1
   138    35    36    1
   139    36    37   ar
   140    94    95    1
   141   124   123    1
   142    41    42    1
   143    41    39   ar
   144    52    51    1
   145    52    53    1
   146    48    47    1
   147    48    49    1
   148    48    51    1
   149    56    57    1
   150    33    34    2
   151   123   125    1
   152   123   122    1
   153    74    73    1
   154    49    50    2
   155   119   122    1
   156   119   118    1
   157   113   112    2
   158    37    39   ar
   159    96    95    2
   160    73    72    1
   161   108   107    2
   162    72    71    1
   163    66    63    1
   164   112   118   am
   165   112   111    1
   166    91    89    1
   167   109   107   am
   168   107   106    1
   169    71    68    1
   170   114   111    1
   171   114   115    1
   172    79    78    2
   173    63    62    1
   174    63    64    1
   175   111   110    1
   176    68    67    1
   177    68    69    1
   178   105   106    1
   179   105   102    1
   180   117   115   ar
   181    89    86    1
   182    89    90    1
   183   110   103   am
   184   115   116   ar
   185    78    85   am
   186    78    77    1
   187    64    65    2
   188    86    85    1
   189    86    87    1
   190    76    69   am
   191    76    77    1
   192    69    70    2
   193   103   104    2
   194   103   102    1
   195    92    90    1
   196   102   101    1
   197    77    80    1
   198    87    88    2
   199    80    81    1
   200    81    82    1
   201    82    83    1
   202    84    83    1
