@<TRIPOS>MOLECULE
tmp/4fv7A00.pdb
 193 181 0 0 0
SMALL
GASTEIGER

@<TRIPOS>ATOM
      1  N         20.8160   13.1730   18.0890 N.3    21  ILE21      -0.1231
      2  CA        20.7010   12.4880   16.7960 C.3    21  ILE21       0.1692
      3  C         19.3790   12.8880   16.1060 C.2    21  ILE21       0.2593
      4  O         19.3680   13.1080   14.8900 O.2    21  ILE21      -0.2718
      5  CB        20.8170   10.9370   16.9710 C.3    21  ILE21       0.0266
      6  CG1       22.2840   10.5030   17.1460 C.3    21  ILE21       0.0019
      7  CG2       20.1450   10.1570   15.8090 C.3    21  ILE21       0.0020
      8  CD1       22.5020    8.9580   17.2570 C.3    21  ILE21       0.0001
      9  N         18.2830   12.9180   16.8710 N.am   22  GLY22      -0.1942
     10  CA        16.9610   13.2350   16.3460 C.3    22  GLY22       0.2014
     11  C         15.8240   12.6260   17.1410 C.2    22  GLY22       0.2639
     12  O         15.9020   12.5410   18.3710 O.2    22  GLY22      -0.2714
     13  N         14.7510   12.2110   16.4410 N.am   23  GLU23      -0.1963
     14  CA        13.5490   11.6570   17.0670 C.3    23  GLU23       0.1733
     15  C         12.9210   10.5180   16.2710 C.2    23  GLU23       0.2616
     16  O         12.9500   10.5400   15.0350 O.2    23  GLU23      -0.2715
     17  CB        12.4870   12.7600   17.2300 C.3    23  GLU23       0.0429
     18  CG        12.6870   13.6410   18.4500 C.3    23  GLU23       0.1163
     19  CD        12.8030   15.1300   18.1920 C.2    23  GLU23       0.3649
     20  OE1       12.4900   15.5760   17.0640 O.co2  23  GLU23      -0.2457
     21  OE2       13.2160   15.8530   19.1270 O.co2  23  GLU23      -0.2457
     22  N         12.2830    9.5830   16.9800 N.am   24  GLY24      -0.1955
     23  CA        11.5250    8.5060   16.3410 C.3    24  GLY24       0.1869
     24  C         10.1300    9.0160   16.0260 C.2    24  GLY24       0.2309
     25  O          9.9290   10.2360   15.9650 O.2    24  GLY24      -0.2863
     26  N         16.3420   10.7820   20.5100 N.3    29  VAL29      -0.1245
     27  CA        17.4730    9.8940   20.2460 C.3    29  VAL29       0.1561
     28  C         18.8110   10.6620   20.3700 C.2    29  VAL29       0.2260
     29  O         18.9480   11.7610   19.8380 O.2    29  VAL29      -0.2867
     30  CB        17.3180    9.2050   18.8580 C.3    29  VAL29       0.0252
     31  CG1       18.4500    8.2120   18.5860 C.3    29  VAL29       0.0019
     32  CG2       15.9610    8.5080   18.7360 C.3    29  VAL29       0.0019
     33  N         23.4530    4.1300   20.5820 N.3    42  ALA42      -0.1245
     34  CA        22.3620    5.0720   20.3710 C.3    42  ALA42       0.1562
     35  C         21.3340    4.8710   21.5010 C.2    42  ALA42       0.2260
     36  O         21.0770    3.7320   21.9070 O.2    42  ALA42      -0.2867
     37  CB        21.7340    4.8680   18.9980 C.3    42  ALA42       0.0290
     38  N         17.4420    6.1110   23.0820 N.3    44  LYS44      -0.1245
     39  CA        16.1560    6.7840   22.8800 C.3    44  LYS44       0.1561
     40  C         15.4450    7.0210   24.2340 C.2    44  LYS44       0.2260
     41  O         15.1600    6.0620   24.9520 O.2    44  LYS44      -0.2867
     42  CB        15.2800    5.9460   21.9410 C.3    44  LYS44       0.0271
     43  CG        13.8920    6.5070   21.6320 C.3    44  LYS44       0.0035
     44  CD        13.1080    5.4140   20.9030 C.3    44  LYS44       0.0206
     45  CE        11.6940    5.7740   20.5420 C.3    44  LYS44       0.1093
     46  NZ        11.1000    4.7630   19.6190 N.3    44  LYS44      -0.1314
     47  N          6.2790   -1.5270   21.4700 N.3    61  GLU61      -0.1245
     48  CA         7.6280   -1.3240   20.9310 C.3    61  GLU61       0.1567
     49  C          8.6690   -2.1260   21.7210 C.2    61  GLU61       0.2260
     50  O          9.4580   -2.8590   21.1190 O.2    61  GLU61      -0.2867
     51  CB         8.0080    0.1620   20.9210 C.3    61  GLU61       0.0388
     52  CG         9.4030    0.4060   20.3650 C.3    61  GLU61       0.1160
     53  CD         9.9590    1.8090   20.4720 C.2    61  GLU61       0.3649
     54  OE1        9.3200    2.6630   21.1230 O.co2  61  GLU61      -0.2457
     55  OE2       11.0540    2.0500   19.9190 O.co2  61  GLU61      -0.2457
     56  N         10.6280   -5.4320   20.3370 N.3    65  LEU65      -0.1245
     57  CA        12.0880   -5.3760   20.2480 C.3    65  LEU65       0.1561
     58  C         12.7520   -6.4670   21.0860 C.2    65  LEU65       0.2260
     59  O         13.7140   -7.0670   20.6230 O.2    65  LEU65      -0.2867
     60  CB        12.6230   -3.9960   20.6820 C.3    65  LEU65       0.0270
     61  CG        12.3320   -2.7870   19.7660 C.3    65  LEU65       0.0019
     62  CD1       12.7940   -1.4920   20.4300 C.3    65  LEU65       0.0001
     63  CD2       12.9420   -2.9510   18.3870 C.3    65  LEU65       0.0001
     64  N         17.2130   -4.1420   14.4490 N.3    74  ILE74      -0.1245
     65  CA        18.1150   -3.7520   15.5380 C.3    74  ILE74       0.1561
     66  C         17.4980   -4.1680   16.9010 C.2    74  ILE74       0.2260
     67  O         16.2930   -4.0260   17.1250 O.2    74  ILE74      -0.2867
     68  CB        18.6120   -2.2670   15.4730 C.3    74  ILE74       0.0252
     69  CG1       19.7120   -1.9820   16.5180 C.3    74  ILE74       0.0019
     70  CG2       17.5000   -1.2300   15.4980 C.3    74  ILE74       0.0019
     71  CD1       20.7560   -0.9860   16.0720 C.3    74  ILE74       0.0001
     72  N         16.0840    3.4830   26.0030 N.3    93  ILE93      -0.1245
     73  CA        16.3720    2.2300   25.2960 C.3    93  ILE93       0.1561
     74  C         17.7380    2.3540   24.6010 C.2    93  ILE93       0.2260
     75  O         17.9450    3.2970   23.8420 O.2    93  ILE93      -0.2867
     76  CB        15.2320    1.8520   24.3160 C.3    93  ILE93       0.0252
     77  CG1       13.8680    1.7210   25.0740 C.3    93  ILE93       0.0019
     78  CG2       15.5740    0.5810   23.5420 C.3    93  ILE93       0.0019
     79  CD1       12.6630    1.4670   24.1540 C.3    93  ILE93       0.0001
     80  N         20.7030    0.8260   22.0670 N.3    95  GLN95      -0.1231
     81  CA        20.9550   -0.0140   20.8970 C.3    95  GLN95       0.1698
     82  C         22.3510    0.3040   20.3610 C.2    95  GLN95       0.2592
     83  O         22.8800    1.3900   20.6280 O.2    95  GLN95      -0.2718
     84  CB        19.8780    0.2280   19.8090 C.3    95  GLN95       0.0381
     85  CG        18.4460   -0.0910   20.2660 C.3    95  GLN95       0.0905
     86  CD        17.4340   -0.1500   19.1510 C.2    95  GLN95       0.2608
     87  OE1       17.3110    0.7690   18.3450 O.2    95  GLN95      -0.2717
     88  NE2       16.6660   -1.2400   19.0930 N.am   95  GLN95      -0.0878
     89  N         22.9410   -0.6250   19.5940 N.am   96  ASP96      -0.1960
     90  CA        24.2300   -0.3950   18.9310 C.3    96  ASP96       0.1840
     91  C         24.1010    0.8310   18.0410 C.2    96  ASP96       0.2622
     92  O         23.0530    1.0010   17.4160 O.2    96  ASP96      -0.2715
     93  CB        24.6400   -1.6150   18.0710 C.3    96  ASP96       0.1450
     94  CG        24.8760   -2.9150   18.8150 C.2    96  ASP96       0.3671
     95  OD1       25.2960   -2.8630   19.9840 O.co2  96  ASP96      -0.2456
     96  OD2       24.7090   -3.9840   18.1990 O.co2  96  ASP96      -0.2456
     97  N         25.1280    1.6890   17.9970 N.am   97  LEU97      -0.1963
     98  CA        25.0790    2.8720   17.1480 C.3    97  LEU97       0.1728
     99  C         25.3570    2.4890   15.6950 C.2    97  LEU97       0.2616
    100  O         26.4090    1.9230   15.3710 O.2    97  LEU97      -0.2715
    101  CB        26.0540    3.9650   17.6290 C.3    97  LEU97       0.0311
    102  CG        26.1920    5.2320   16.7680 C.3    97  LEU97       0.0022
    103  CD1       24.9310    6.0720   16.7920 C.3    97  LEU97       0.0001
    104  CD2       27.3740    6.0820   17.2420 C.3    97  LEU97       0.0001
    105  N         24.3780    2.7630   14.8390 N.am   98  MET98      -0.1963
    106  CA        24.4840    2.5500   13.3960 C.3    98  MET98       0.1736
    107  C         25.0110    3.8510   12.8110 C.2    98  MET98       0.2616
    108  O         24.6650    4.9150   13.3160 O.2    98  MET98      -0.2715
    109  CB        23.1250    2.1430   12.7950 C.3    98  MET98       0.0427
    110  CG        22.6530    0.7550   13.2560 C.3    98  MET98       0.0599
    111  SD        23.6620   -0.6440   12.7040 S.3    98  MET98      -0.1393
    112  CE        23.0100   -0.8670   11.0590 C.3    98  MET98       0.0692
    113  N         25.8800    3.7650   11.8070 N.am   99  GLU99      -0.1963
    114  CA        26.5640    4.9120   11.2150 C.3    99  GLU99       0.1733
    115  C         25.6530    5.8820   10.4830 C.2    99  GLU99       0.2617
    116  O         25.8600    7.0900   10.5950 O.2    99  GLU99      -0.2715
    117  CB        27.6760    4.4480   10.2670 C.3    99  GLU99       0.0429
    118  CG        28.9440    4.0740   11.0290 C.3    99  GLU99       0.1163
    119  CD        29.0360    2.6810   11.6320 C.2    99  GLU99       0.3649
    120  OE1       28.0110    1.9610   11.6980 O.co2  99  GLU99      -0.2457
    121  OE2       30.1510    2.3180   12.0660 O.co2  99  GLU99      -0.2457
    122  N         24.6410    5.3730    9.7680 N.am  100  THR100     -0.1937
    123  CA        23.7610    6.2260    8.9850 C.3   100  THR100      0.2028
    124  C         22.4230    5.5330    8.7290 C.2   100  THR100      0.2642
    125  O         22.1530    4.4560    9.2750 O.2   100  THR100     -0.2714
    126  CB        24.4860    6.6080    7.6530 C.3   100  THR100      0.1808
    127  OG1       23.7720    7.6420    6.9750 O.3   100  THR100     -0.2208
    128  CG2       24.7580    5.4040    6.7310 C.3   100  THR100      0.0379
    129  N         21.5900    6.1580    7.8840 N.am  101  ASP101     -0.1971
    130  CA        20.2980    5.6080    7.4860 C.3   101  ASP101      0.1709
    131  C         20.1500    5.7440    5.9600 C.2   101  ASP101      0.2293
    132  O         20.9220    6.4810    5.3300 O.2   101  ASP101     -0.2864
    133  CB        19.1460    6.2760    8.2580 C.3   101  ASP101      0.1436
    134  CG        18.9650    7.7660    8.0180 C.2   101  ASP101      0.3671
    135  OD1       18.8720    8.1660    6.8540 O.co2 101  ASP101     -0.2456
    136  OD2       18.8430    8.5210    9.0100 O.co2 101  ASP101     -0.2456
    137  N         17.7550    7.2510    4.3330 N.3   103  TYR103     -0.1227
    138  CA        17.3070    8.6120    4.0100 C.3   103  TYR103      0.1736
    139  C         18.5110    9.5180    3.7510 C.2   103  TYR103      0.2595
    140  O         18.5790   10.1560    2.7000 O.2   103  TYR103     -0.2718
    141  CB        16.4140    9.1700    5.1490 C.3   103  TYR103      0.0548
    142  CG        15.9660   10.6040    4.9560 C.ar  103  TYR103     -0.0200
    143  CD1       16.6420   11.6560    5.5680 C.ar  103  TYR103     -0.0009
    144  CD2       14.8630   10.9090    4.1650 C.ar  103  TYR103     -0.0009
    145  CE1       16.2380   12.9800    5.3920 C.ar  103  TYR103      0.0417
    146  CE2       14.4400   12.2290    3.9920 C.ar  103  TYR103      0.0417
    147  CZ        15.1420   13.2630    4.5950 C.ar  103  TYR103      0.1957
    148  OH        14.7360   14.5660    4.4240 O.3   103  TYR103     -0.2866
    149  N         19.4690    9.5570    4.7000 N.am  104  LYS104     -0.1980
    150  CA        20.6900   10.3620    4.6240 C.3   104  LYS104      0.1596
    151  C         21.5460    9.9360    3.4450 C.2   104  LYS104      0.2287
    152  O         22.0410   10.8050    2.7270 O.2   104  LYS104     -0.2864
    153  CB        21.4980   10.2720    5.9210 C.3   104  LYS104      0.0298
    154  CG        20.8940   11.1070    7.0490 C.3   104  LYS104      0.0038
    155  CD        21.7480   11.0530    8.3150 C.3   104  LYS104      0.0206
    156  CE        21.0050   11.5890    9.5150 C.3   104  LYS104      0.1093
    157  NZ        21.0030   13.0750    9.5710 N.3   104  LYS104     -0.1314
    158  N         14.3160    6.5760    6.4510 N.3   143  SER143     -0.1202
    159  CA        14.8890    7.0190    7.7280 C.3   143  SER143      0.2020
    160  C         14.7890    5.9210    8.8360 C.2   143  SER143      0.2618
    161  O         15.4940    6.0320    9.8340 O.2   143  SER143     -0.2717
    162  CB        14.2520    8.3330    8.1950 C.3   143  SER143      0.2103
    163  OG        12.8560    8.1820    8.3830 O.3   143  SER143     -0.2182
    164  N         13.9910    4.8540    8.6220 N.am  144  ASN144     -0.1974
    165  CA        13.8320    3.7310    9.5770 C.3   144  ASN144      0.1688
    166  C         14.6390    2.4980    9.1550 C.2   144  ASN144      0.2292
    167  O         14.5100    1.3920    9.7150 O.2   144  ASN144     -0.2864
    168  CB        12.3410    3.4040    9.7780 C.3   144  ASN144      0.1181
    169  CG        11.6820    4.4590   10.6370 C.2   144  ASN144      0.2629
    170  OD1       12.3370    5.1130   11.4560 O.2   144  ASN144     -0.2716
    171  ND2       10.3810    4.6240   10.5040 N.am  144  ASN144     -0.0877
    172  N         18.4660    1.5860    8.9730 N.3   146  LEU146     -0.1245
    173  CA        19.8070    1.9460    9.4180 C.3   146  LEU146      0.1561
    174  C         20.8620    1.1250    8.7410 C.2   146  LEU146      0.2260
    175  O         20.6520   -0.0570    8.4860 O.2   146  LEU146     -0.2867
    176  CB        19.9410    1.8020   10.9430 C.3   146  LEU146      0.0270
    177  CG        18.8140    2.4400   11.7790 C.3   146  LEU146      0.0019
    178  CD1       19.0100    2.1560   13.2420 C.3   146  LEU146      0.0001
    179  CD2       18.7410    3.9470   11.5520 C.3   146  LEU146      0.0001
    180  N         14.4430   -0.2280   12.1130 N.3   155  CYS155     -0.1221
    181  CA        14.2540    0.3770   13.4320 C.3   155  CYS155      0.1808
    182  C         12.8790    1.0480   13.5560 C.2   155  CYS155      0.2601
    183  O         12.1390    1.1980   12.5780 O.2   155  CYS155     -0.2717
    184  CB        15.3800    1.3580   13.7550 C.3   155  CYS155      0.0970
    185  SG        15.2850    2.9420   12.8680 S.3   155  CYS155     -0.0800
    186  N         12.5700    1.4470   14.7920 N.am  156  ASP156     -0.1973
    187  CA        11.3810    2.1510   15.2540 C.3   156  ASP156      0.1709
    188  C         10.1010    1.3580   15.0130 C.2   156  ASP156      0.2293
    189  O          9.4300    1.5210   13.9880 O.2   156  ASP156     -0.2864
    190  CB        11.2580    3.5570   14.6350 C.3   156  ASP156      0.1436
    191  CG        10.1990    4.4270   15.2960 C.2   156  ASP156      0.3671
    192  OD1       10.0520    5.5850   14.8840 O.co2 156  ASP156     -0.2456
    193  OD2        9.5370    3.9470   16.2510 O.co2 156  ASP156     -0.2456
@<TRIPOS>BOND
     1   140   139    2
     2   152   151    2
     3   151   150    1
     4   139   138    1
     5   139   149   am
     6   146   144   ar
     7   146   147   ar
     8   138   137    1
     9   138   141    1
    10   144   142   ar
    11   148   147    1
    12   147   145   ar
    13   150   149    1
    14   150   153    1
    15   142   141    1
    16   142   143   ar
    17   132   131    2
    18   145   143   ar
    19   153   154    1
    20   131   130    1
    21   158   159    1
    22   128   126    1
    23   135   134   ar
    24   127   126    1
    25   154   155    1
    26   130   129    1
    27   130   133    1
    28   126   123    1
    29   159   162    1
    30   159   160    1
    31   129   124   am
    32   134   133    1
    33   134   136   ar
    34   162   163    1
    35   155   156    1
    36   175   174    2
    37   164   160   am
    38   164   165    1
    39   124   123    1
    40   124   125    2
    41   174   173    1
    42   160   161    2
    43   172   173    1
    44   123   122    1
    45   166   165    1
    46   166   167    2
    47   173   176    1
    48   156   157    1
    49   165   168    1
    50   122   115   am
    51   168   169    1
    52   117   118    1
    53   117   114    1
    54   115   116    2
    55   115   114    1
    56   171   169   am
    57   169   170    2
    58   176   177    1
    59   118   119    1
    60   112   111    1
    61   114   113    1
    62   179   177    1
    63   119   120   ar
    64   119   121   ar
    65   177   178    1
    66   113   107   am
    67   180   181    1
    68   183   182    2
    69   111   110    1
    70   109   110    1
    71   109   106    1
    72   107   108    2
    73   107   106    1
    74   185   184    1
    75   106   105    1
    76   181   182    1
    77   181   184    1
    78   182   186   am
    79   189   188    2
    80    64    65    1
    81   190   187    1
    82   190   191    1
    83   186   187    1
    84   105    99   am
    85   192   191   ar
    86     4     3    2
    87   188   187    1
    88    16    15    2
    89   191   193   ar
    90   100    99    2
    91    68    70    1
    92    68    65    1
    93    68    69    1
    94    65    66    1
    95    99    98    1
    96     7     5    1
    97    25    24    2
    98    24    23    1
    99    71    69    1
   100     3     2    1
   101     3     9   am
   102    15    22   am
   103    15    14    1
   104    23    22    1
   105    10     9    1
   106    10    11    1
   107    13    14    1
   108    13    11   am
   109   102   103    1
   110   102   104    1
   111   102   101    1
   112     2     5    1
   113     2     1    1
   114    66    67    2
   115     5     6    1
   116    20    19   ar
   117    14    17    1
   118    11    12    2
   119     6     8    1
   120    98   101    1
   121    98    97    1
   122    17    18    1
   123    92    91    2
   124    97    91   am
   125    91    90    1
   126    93    94    1
   127    93    90    1
   128    19    18    1
   129    19    21   ar
   130    96    94   ar
   131    87    86    2
   132    63    61    1
   133    31    30    1
   134    32    30    1
   135    94    95   ar
   136    30    27    1
   137    90    89    1
   138    37    34    1
   139    88    86   am
   140    86    85    1
   141    89    82   am
   142    46    45    1
   143    61    62    1
   144    61    60    1
   145    84    85    1
   146    84    81    1
   147    29    28    2
   148    55    53   ar
   149    27    28    1
   150    27    26    1
   151    57    56    1
   152    57    60    1
   153    57    58    1
   154    82    83    2
   155    82    81    1
   156    52    53    1
   157    52    51    1
   158    34    33    1
   159    34    35    1
   160    53    54   ar
   161    45    44    1
   162    59    58    2
   163    81    80    1
   164    44    43    1
   165    51    48    1
   166    48    47    1
   167    48    49    1
   168    50    49    2
   169    35    36    2
   170    43    42    1
   171    42    39    1
   172    39    38    1
   173    39    40    1
   174    78    76    1
   175    75    74    2
   176    79    77    1
   177    40    41    2
   178    76    77    1
   179    76    73    1
   180    74    73    1
   181    73    72    1
