@<TRIPOS>MOLECULE
tmp/4fv8A00.pdb
 163 153 0 0 0
SMALL
GASTEIGER

@<TRIPOS>ATOM
      1  N        -22.8510   10.9870    9.6470 N.3    22  SER22      -0.1202
      2  CA       -23.1380   11.2620   11.0470 C.3    22  SER22       0.2020
      3  C        -21.8580   11.0420   11.8410 C.2    22  SER22       0.2619
      4  O        -21.2830    9.9480   11.8010 O.2    22  SER22      -0.2717
      5  CB       -24.2800   10.3810   11.5440 C.3    22  SER22       0.2103
      6  OG       -24.5440   10.6100   12.9160 O.3    22  SER22      -0.2182
      7  N        -21.3960   12.1020   12.5300 N.am   23  TYR23      -0.1961
      8  CA       -20.1650   12.1120   13.3240 C.3    23  TYR23       0.1771
      9  C        -20.2050   11.1040   14.4860 C.2    23  TYR23       0.2619
     10  O        -21.2020   11.0200   15.1900 O.2    23  TYR23      -0.2715
     11  CB       -19.9150   13.5340   13.8540 C.3    23  TYR23       0.0574
     12  CG       -18.6990   13.6930   14.7390 C.ar   23  TYR23      -0.0198
     13  CD1      -18.8280   13.7840   16.1220 C.ar   23  TYR23      -0.0009
     14  CD2      -17.4270   13.8190   14.1920 C.ar   23  TYR23      -0.0009
     15  CE1      -17.7170   13.9650   16.9410 C.ar   23  TYR23       0.0417
     16  CE2      -16.3090   14.0150   15.0010 C.ar   23  TYR23       0.0417
     17  CZ       -16.4610   14.0920   16.3750 C.ar   23  TYR23       0.1957
     18  OH       -15.3690   14.2710   17.1810 O.3    23  TYR23      -0.2866
     19  N        -19.1070   10.3490   14.6790 N.am   24  ILE24      -0.1977
     20  CA       -18.9750    9.3900   15.7850 C.3    24  ILE24       0.1596
     21  C        -17.9170    9.9110   16.7860 C.2    24  ILE24       0.2287
     22  O        -18.1930    9.9810   17.9840 O.2    24  ILE24      -0.2864
     23  CB       -18.6790    7.9320   15.3110 C.3    24  ILE24       0.0276
     24  CG1      -19.8740    7.3500   14.5070 C.3    24  ILE24       0.0022
     25  CG2      -18.3230    7.0180   16.5110 C.3    24  ILE24       0.0022
     26  CD1      -19.6040    5.9760   13.7860 C.3    24  ILE24       0.0001
     27  N        -13.9630    9.6080   12.6390 N.3    32  VAL32      -0.1245
     28  CA       -14.8390    8.4830   12.3260 C.3    32  VAL32       0.1561
     29  C        -16.2940    8.9620   12.2300 C.2    32  VAL32       0.2260
     30  O        -16.7700    9.6830   13.1070 O.2    32  VAL32      -0.2867
     31  CB       -14.6920    7.3050   13.3360 C.3    32  VAL32       0.0252
     32  CG1      -15.5290    6.1010   12.9030 C.3    32  VAL32       0.0019
     33  CG2      -13.2310    6.8920   13.5040 C.3    32  VAL32       0.0019
     34  N        -20.4340    7.5640   10.5660 N.3    34  SER34      -0.1217
     35  CA       -21.2880    6.5300   10.0070 C.3    34  SER34       0.1889
     36  C        -21.7980    7.1130    8.6860 C.2    34  SER34       0.2288
     37  O        -21.8320    8.3390    8.5390 O.2    34  SER34      -0.2866
     38  CB       -22.4110    6.1350   10.9620 C.3    34  SER34       0.2089
     39  OG       -23.1840    7.2550   11.3510 O.3    34  SER34      -0.2183
     40  N        -19.2820    2.2100    8.6980 N.3    45  ALA45      -0.1245
     41  CA       -18.3810    3.0700    9.4510 C.3    45  ALA45       0.1562
     42  C        -17.2680    3.5420    8.5290 C.2    45  ALA45       0.2260
     43  O        -16.7940    2.7600    7.6970 O.2    45  ALA45      -0.2867
     44  CB       -17.8050    2.3270   10.6310 C.3    45  ALA45       0.0290
     45  N        -13.5710    5.7150    8.6180 N.3    47  LYS47      -0.1245
     46  CA       -12.4870    6.3610    9.3470 C.3    47  LYS47       0.1561
     47  C        -11.6240    7.1660    8.3660 C.2    47  LYS47       0.2260
     48  O        -11.0060    6.5910    7.4590 O.2    47  LYS47      -0.2867
     49  CB       -11.6500    5.3160   10.1230 C.3    47  LYS47       0.0271
     50  CG       -10.5480    5.9040   11.0120 C.3    47  LYS47       0.0035
     51  CD        -9.9720    4.8750   11.9910 C.3    47  LYS47       0.0206
     52  CE        -8.7300    4.1890   11.4680 C.3    47  LYS47       0.1093
     53  NZ        -8.2690    3.0880   12.3530 N.3    47  LYS47      -0.1314
     54  N        -12.5490   -6.7730   13.0480 N.3    77  ILE77      -0.1245
     55  CA       -13.1430   -5.8830   12.0490 C.3    77  ILE77       0.1561
     56  C        -12.3830   -6.0350   10.7230 C.2    77  ILE77       0.2260
     57  O        -11.1600   -6.2120   10.7030 O.2    77  ILE77      -0.2867
     58  CB       -13.2130   -4.3910   12.5250 C.3    77  ILE77       0.0252
     59  CG1      -14.2330   -3.5570   11.6940 C.3    77  ILE77       0.0019
     60  CG2      -11.8320   -3.7170   12.5310 C.3    77  ILE77       0.0019
     61  CD1      -15.7350   -3.9010   11.9080 C.3    77  ILE77       0.0001
     62  N        -15.6120    0.2270    6.9530 N.3    98  GLN98      -0.1231
     63  CA       -15.7560   -0.9930    7.7460 C.3    98  GLN98       0.1698
     64  C        -17.2180   -1.1970    8.1910 C.2    98  GLN98       0.2592
     65  O        -18.0090   -0.2550    8.1130 O.2    98  GLN98      -0.2718
     66  CB       -14.8180   -0.9330    8.9710 C.3    98  GLN98       0.0381
     67  CG       -13.3720   -0.5410    8.6060 C.3    98  GLN98       0.0905
     68  CD       -12.4690   -0.3860    9.7970 C.2    98  GLN98       0.2608
     69  OE1      -12.4480    0.6400   10.4630 O.2    98  GLN98      -0.2717
     70  NE2      -11.6450   -1.3720   10.0370 N.am   98  GLN98      -0.0878
     71  N        -17.5710   -2.4180    8.6660 N.am   99  ASP99      -0.1960
     72  CA       -18.9230   -2.7200    9.1480 C.3    99  ASP99       0.1840
     73  C        -19.2800   -1.8430   10.3250 C.2    99  ASP99       0.2622
     74  O        -18.4380   -1.6410   11.2040 O.2    99  ASP99      -0.2715
     75  CB       -19.0650   -4.2000    9.5640 C.3    99  ASP99       0.1450
     76  CG       -18.8200   -5.2250    8.4720 C.2    99  ASP99       0.3671
     77  OD1      -18.3030   -6.3180    8.7930 O.co2  99  ASP99      -0.2456
     78  OD2      -19.1680   -4.9470    7.3040 O.co2  99  ASP99      -0.2456
     79  N        -20.5160   -1.3110   10.3360 N.am  100  LEU100     -0.1963
     80  CA       -21.0110   -0.4750   11.4250 C.3   100  LEU100      0.1728
     81  C        -21.5810   -1.3640   12.5280 C.2   100  LEU100      0.2616
     82  O        -22.4570   -2.1950   12.2820 O.2   100  LEU100     -0.2715
     83  CB       -22.0570    0.5760   10.9580 C.3   100  LEU100      0.0311
     84  CG       -22.6100    1.5310   12.0560 C.3   100  LEU100      0.0022
     85  CD1      -21.5970    2.6070   12.4420 C.3   100  LEU100      0.0001
     86  CD2      -23.8970    2.1900   11.6180 C.3   100  LEU100      0.0001
     87  N        -21.0420   -1.1860   13.7370 N.am  101  MET101     -0.1963
     88  CA       -21.4070   -1.8520   14.9850 C.3   101  MET101      0.1736
     89  C        -22.1680   -0.8270   15.8360 C.2   101  MET101      0.2616
     90  O        -21.9730    0.3800   15.6540 O.2   101  MET101     -0.2715
     91  CB       -20.1490   -2.3990   15.6960 C.3   101  MET101      0.0427
     92  CG       -19.3010   -3.3450   14.8220 C.3   101  MET101      0.0599
     93  SD       -20.0430   -4.9620   14.4420 S.3   101  MET101     -0.1393
     94  CE       -19.7600   -5.8340   16.0020 C.3   101  MET101      0.0692
     95  N        -23.0600   -1.2880   16.7130 N.am  102  GLU102     -0.1963
     96  CA       -23.9250   -0.4170   17.5310 C.3   102  GLU102      0.1733
     97  C        -23.1450    0.4580   18.5440 C.2   102  GLU102      0.2617
     98  O        -23.5330    1.6040   18.7850 O.2   102  GLU102     -0.2715
     99  CB       -24.9980   -1.2420   18.2670 C.3   102  GLU102      0.0429
    100  CG       -25.9330   -0.3870   19.1170 C.3   102  GLU102      0.1163
    101  CD       -27.1910   -1.0190   19.6730 C.2   102  GLU102      0.3649
    102  OE1      -27.0970   -2.1040   20.2930 O.co2 102  GLU102     -0.2457
    103  OE2      -28.2620   -0.3770   19.5680 O.co2 102  GLU102     -0.2457
    104  N        -22.0670   -0.0710   19.1280 N.am  103  THR103     -0.1937
    105  CA       -21.3130    0.6590   20.1490 C.3   103  THR103      0.2028
    106  C        -19.9350    0.0270   20.3640 C.2   103  THR103      0.2642
    107  O        -19.5980   -0.9730   19.7230 O.2   103  THR103     -0.2714
    108  CB       -22.1430    0.6800   21.4780 C.3   103  THR103      0.1808
    109  OG1      -21.6180    1.6610   22.3670 O.3   103  THR103     -0.2208
    110  CG2      -22.2500   -0.7040   22.1590 C.3   103  THR103      0.0379
    111  N        -19.1450    0.6180   21.2680 N.am  104  ASP104     -0.1971
    112  CA       -17.8690    0.0610   21.6970 C.3   104  ASP104      0.1709
    113  C        -18.0210   -0.2930   23.1890 C.2   104  ASP104      0.2293
    114  O        -19.0010    0.1350   23.8080 O.2   104  ASP104     -0.2864
    115  CB       -16.6710    0.9910   21.4030 C.3   104  ASP104      0.1436
    116  CG       -16.6710    2.3440   22.0790 C.2   104  ASP104      0.3671
    117  OD1      -16.9790    2.4070   23.2820 O.co2 104  ASP104     -0.2456
    118  OD2      -16.2570    3.3270   21.4330 O.co2 104  ASP104     -0.2456
    119  N        -18.2260    2.8480   25.8190 N.3   107  LYS107     -0.1245
    120  CA       -19.5450    3.4750   25.9320 C.3   107  LYS107      0.1561
    121  C        -20.5380    2.5720   26.6690 C.2   107  LYS107      0.2260
    122  O        -21.3150    3.0810   27.4780 O.2   107  LYS107     -0.2867
    123  CB       -20.0860    3.8860   24.5480 C.3   107  LYS107      0.0271
    124  CG       -19.2500    4.9950   23.9150 C.3   107  LYS107      0.0035
    125  CD       -19.5860    5.2810   22.4560 C.3   107  LYS107      0.0206
    126  CE       -18.4170    5.9780   21.7980 C.3   107  LYS107      0.1093
    127  NZ       -18.7310    6.4150   20.4170 N.3   107  LYS107     -0.1314
    128  N        -12.4670    0.8260   24.3200 N.3   146  SER146     -0.1202
    129  CA       -12.7950    1.6520   23.1450 C.3   146  SER146      0.2020
    130  C        -12.3590    0.9930   21.8140 C.2   146  SER146      0.2618
    131  O        -12.7590    1.4620   20.7530 O.2   146  SER146     -0.2717
    132  CB       -12.1840    3.0450   23.2720 C.3   146  SER146      0.2103
    133  OG       -10.7800    2.9700   23.4410 O.3   146  SER146     -0.2182
    134  N        -11.5760   -0.0930   21.8640 N.am  147  ASN147     -0.1974
    135  CA       -11.1480   -0.7970   20.6470 C.3   147  ASN147      0.1688
    136  C        -11.8660   -2.1490   20.5140 C.2   147  ASN147      0.2292
    137  O        -11.4430   -3.0100   19.7430 O.2   147  ASN147     -0.2864
    138  CB        -9.6170   -0.9510   20.6130 C.3   147  ASN147      0.1181
    139  CG        -8.9020    0.3330   20.2750 C.2   147  ASN147      0.2629
    140  OD1       -9.4870    1.2970   19.7500 O.2   147  ASN147     -0.2716
    141  ND2       -7.6050    0.3610   20.5290 N.am  147  ASN147     -0.0877
    142  N        -15.6780   -3.4910   19.6360 N.3   149  LEU149     -0.1245
    143  CA       -16.9760   -3.0780   19.0910 C.3   149  LEU149      0.1561
    144  C        -18.0580   -4.0990   19.3700 C.2   149  LEU149      0.2260
    145  O        -17.7950   -5.2960   19.3330 O.2   149  LEU149     -0.2867
    146  CB       -16.8830   -2.8250   17.5730 C.3   149  LEU149      0.0270
    147  CG       -15.8310   -1.8300   17.0630 C.3   149  LEU149      0.0019
    148  CD1      -15.7970   -1.8300   15.5400 C.3   149  LEU149      0.0001
    149  CD2      -16.0850   -0.4170   17.5780 C.3   149  LEU149      0.0001
    150  N        -11.0590   -3.9120   16.9650 N.3   158  CYS158     -0.1221
    151  CA       -10.6950   -2.9560   15.9070 C.3   158  CYS158      0.1808
    152  C         -9.3900   -2.2540   16.2620 C.2   158  CYS158      0.2601
    153  O         -8.7880   -2.5760   17.2930 O.2   158  CYS158     -0.2717
    154  CB       -11.8240   -1.9590   15.6340 C.3   158  CYS158      0.0970
    155  SG       -12.0960   -0.7280   16.9380 S.3   158  CYS158     -0.0800
    156  N         -8.9480   -1.3140   15.3910 N.am  159  ASP159     -0.1973
    157  CA        -7.7850   -0.4320   15.5500 C.3   159  ASP159      0.1709
    158  C         -6.4570   -1.2080   15.6640 C.2   159  ASP159      0.2293
    159  O         -5.9460   -1.4130   16.7670 O.2   159  ASP159     -0.2864
    160  CB        -7.9930    0.4770   16.7810 C.3   159  ASP159      0.1436
    161  CG        -7.4510    1.8780   16.6520 C.2   159  ASP159      0.3671
    162  OD1       -6.3140    2.0320   16.1430 O.co2 159  ASP159     -0.2456
    163  OD2       -8.1270    2.8160   17.1210 O.co2 159  ASP159     -0.2456
@<TRIPOS>BOND
     1    62    63    1
     2    78    76   ar
     3    48    47    2
     4    43    42    2
     5    63    64    1
     6    63    66    1
     7    65    64    2
     8    64    71   am
     9    47    46    1
    10    76    77   ar
    11    76    75    1
    12    42    41    1
    13    37    36    2
    14    67    66    1
    15    67    68    1
    16    45    46    1
    17    71    72    1
    18    36    35    1
    19    40    41    1
    20    72    75    1
    21    72    73    1
    22    46    49    1
    23    41    44    1
    24     1     2    1
    25    68    70   am
    26    68    69    2
    27    35    34    1
    28    35    38    1
    29    49    50    1
    30    73    79   am
    31    73    74    2
    32    79    80    1
    33    57    56    2
    34    56    55    1
    35    83    80    1
    36    83    84    1
    37    38    39    1
    38    50    51    1
    39     2     5    1
    40     2     3    1
    41    80    81    1
    42    52    51    1
    43    52    53    1
    44     5     6    1
    45    86    84    1
    46    59    61    1
    47    59    58    1
    48     4     3    2
    49     3     7   am
    50    55    58    1
    51    55    54    1
    52    84    85    1
    53    29    28    1
    54    29    30    2
    55    82    81    2
    56    28    27    1
    57    28    31    1
    58    58    60    1
    59    81    87   am
    60     7     8    1
    61    32    31    1
    62     8    11    1
    63     8     9    1
    64    31    33    1
    65    87    88    1
    66    26    24    1
    67    11    12    1
    68    14    12   ar
    69    14    16   ar
    70    93    92    1
    71    93    94    1
    72     9    19   am
    73     9    10    2
    74    24    23    1
    75    19    20    1
    76    12    13   ar
    77    92    91    1
    78    88    91    1
    79    88    89    1
    80    16    17   ar
    81    23    20    1
    82    23    25    1
    83   156   157    1
    84   156   152   am
    85   148   147    1
    86   157   158    1
    87   157   160    1
    88   154   151    1
    89   154   155    1
    90    90    89    2
    91   158   159    2
    92    20    21    1
    93    89    95   am
    94   151   152    1
    95   151   150    1
    96    13    15   ar
    97   162   161   ar
    98   152   153    2
    99    17    15   ar
   100    17    18    1
   101   161   160    1
   102   161   163   ar
   103    95    96    1
   104    21    22    2
   105   147   146    1
   106   147   149    1
   107    96    99    1
   108    96    97    1
   109   146   143    1
   110    99   100    1
   111    97    98    2
   112    97   104   am
   113   143   144    1
   114   143   142    1
   115   100   101    1
   116   104   105    1
   117   145   144    2
   118   103   101   ar
   119   101   102   ar
   120   107   106    2
   121   137   136    2
   122   140   139    2
   123   105   106    1
   124   105   108    1
   125   139   141   am
   126   139   138    1
   127   106   111   am
   128   127   126    1
   129   136   135    1
   130   138   135    1
   131   135   134    1
   132   131   130    2
   133   111   112    1
   134   115   112    1
   135   115   116    1
   136   118   116   ar
   137   108   110    1
   138   108   109    1
   139   112   113    1
   140   126   125    1
   141   130   134   am
   142   130   129    1
   143   116   117   ar
   144   125   124    1
   145   129   132    1
   146   129   128    1
   147   113   114    2
   148   132   133    1
   149   124   123    1
   150   123   120    1
   151   119   120    1
   152   120   121    1
   153   121   122    2
