@<TRIPOS>MOLECULE
tmp/4fv9A00.pdb
 164 153 0 0 0
SMALL
GASTEIGER

@<TRIPOS>ATOM
      1  N        -19.2300   10.3040   14.6370 N.3    24  ILE24      -0.1245
      2  CA       -19.1750    9.3080   15.7090 C.3    24  ILE24       0.1561
      3  C        -18.1080    9.7510   16.7250 C.2    24  ILE24       0.2260
      4  O        -18.4410   10.0050   17.8790 O.2    24  ILE24      -0.2867
      5  CB       -18.9590    7.8350   15.2170 C.3    24  ILE24       0.0252
      6  CG1      -20.1810    7.3090   14.4200 C.3    24  ILE24       0.0019
      7  CG2      -18.6410    6.8860   16.4110 C.3    24  ILE24       0.0019
      8  CD1      -19.9350    5.9660   13.6720 C.3    24  ILE24       0.0001
      9  N        -14.1000    9.5760   12.6970 N.3    32  VAL32      -0.1245
     10  CA       -14.9430    8.4250   12.3930 C.3    32  VAL32       0.1561
     11  C        -16.3940    8.9050   12.2340 C.2    32  VAL32       0.2260
     12  O        -16.9240    9.5780   13.1180 O.2    32  VAL32      -0.2867
     13  CB       -14.8160    7.2760   13.4400 C.3    32  VAL32       0.0252
     14  CG1      -15.6760    6.0740   13.0510 C.3    32  VAL32       0.0019
     15  CG2      -13.3590    6.8490   13.6280 C.3    32  VAL32       0.0019
     16  N        -19.3500    2.3100    8.7840 N.3    45  ALA45      -0.1231
     17  CA       -18.4430    3.1620    9.5520 C.3    45  ALA45       0.1694
     18  C        -17.2900    3.5640    8.6520 C.2    45  ALA45       0.2592
     19  O        -16.7720    2.7180    7.9170 O.2    45  ALA45      -0.2718
     20  CB       -17.9260    2.4390   10.7860 C.3    45  ALA45       0.0304
     21  N        -16.9370    4.8580    8.6410 N.am   46  ILE46      -0.1966
     22  CA       -15.8320    5.3540    7.8140 C.3    46  ILE46       0.1727
     23  C        -14.8700    6.1660    8.6770 C.2    46  ILE46       0.2616
     24  O        -15.2820    7.1020    9.3620 O.2    46  ILE46      -0.2715
     25  CB       -16.2920    6.1750    6.5580 C.3    46  ILE46       0.0290
     26  CG1      -17.3540    5.4100    5.7110 C.3    46  ILE46       0.0022
     27  CG2      -15.0720    6.6000    5.6910 C.3    46  ILE46       0.0023
     28  CD1      -17.9090    6.1780    4.5220 C.3    46  ILE46       0.0001
     29  N        -13.5770    5.8260    8.5970 N.am   47  LYS47      -0.1977
     30  CA       -12.5350    6.5600    9.2930 C.3    47  LYS47       0.1596
     31  C        -11.7020    7.3540    8.2890 C.2    47  LYS47       0.2287
     32  O        -11.1190    6.7840    7.3570 O.2    47  LYS47      -0.2864
     33  CB       -11.6440    5.6180   10.1300 C.3    47  LYS47       0.0298
     34  CG       -10.5420    6.3110   10.9400 C.3    47  LYS47       0.0038
     35  CD        -9.8760    5.3570   11.9340 C.3    47  LYS47       0.0206
     36  CE        -8.7790    4.4970   11.3410 C.3    47  LYS47       0.1093
     37  NZ        -8.1130    3.6400   12.3630 N.3    47  LYS47      -0.1314
     38  N         -1.9570   -1.2510    9.5190 N.3    64  GLU64      -0.1245
     39  CA        -3.3650   -1.5540    9.7690 C.3    64  GLU64       0.1567
     40  C         -4.0550   -2.1010    8.5140 C.2    64  GLU64       0.2260
     41  O         -4.7060   -3.1410    8.6020 O.2    64  GLU64      -0.2867
     42  CB        -4.1150   -0.3320   10.3140 C.3    64  GLU64       0.0388
     43  CG        -5.6120   -0.5710   10.4480 C.3    64  GLU64       0.1160
     44  CD        -6.3050    0.2400   11.5200 C.2    64  GLU64       0.3649
     45  OE1       -6.1390    1.4820   11.5390 O.co2  64  GLU64      -0.2457
     46  OE2       -7.0370   -0.3720   12.3300 O.co2  64  GLU64      -0.2457
     47  N        -12.5550   -6.8810   13.1070 N.3    77  ILE77      -0.1245
     48  CA       -13.1590   -5.9960   12.1180 C.3    77  ILE77       0.1561
     49  C        -12.4350   -6.1400   10.7620 C.2    77  ILE77       0.2260
     50  O        -11.2050   -6.2230   10.7010 O.2    77  ILE77      -0.2867
     51  CB       -13.2000   -4.5120   12.6170 C.3    77  ILE77       0.0252
     52  CG1      -14.2730   -3.6760   11.8540 C.3    77  ILE77       0.0019
     53  CG2      -11.8110   -3.8250   12.5560 C.3    77  ILE77       0.0019
     54  CD1      -15.7520   -4.0720   12.1020 C.3    77  ILE77       0.0001
     55  N        -11.0710    4.6400    5.3390 N.3    96  ILE96      -0.1245
     56  CA       -11.2690    3.1990    5.4630 C.3    96  ILE96       0.1561
     57  C        -12.7280    2.9500    5.8480 C.2    96  ILE96       0.2260
     58  O        -13.2230    3.5430    6.8040 O.2    96  ILE96      -0.2867
     59  CB       -10.2490    2.5320    6.4330 C.3    96  ILE96       0.0252
     60  CG1       -8.8000    2.7350    5.9160 C.3    96  ILE96       0.0019
     61  CG2      -10.5680    1.0330    6.6200 C.3    96  ILE96       0.0019
     62  CD1       -7.7010    2.2840    6.9010 C.3    96  ILE96       0.0001
     63  N        -15.6640    0.2890    7.0630 N.3    98  GLN98      -0.1231
     64  CA       -15.8550   -0.9270    7.8610 C.3    98  GLN98       0.1698
     65  C        -17.3160   -1.0960    8.2400 C.2    98  GLN98       0.2592
     66  O        -18.1020   -0.1650    8.0530 O.2    98  GLN98      -0.2718
     67  CB       -14.9960   -0.8580    9.1400 C.3    98  GLN98       0.0381
     68  CG       -13.4910   -0.8400    8.8820 C.3    98  GLN98       0.0905
     69  CD       -12.6720   -0.8990   10.1500 C.2    98  GLN98       0.2608
     70  OE1      -13.1260   -0.5510   11.2410 O.2    98  GLN98      -0.2717
     71  NE2      -11.4110   -1.2820   10.0250 N.am   98  GLN98      -0.0878
     72  N        -17.6840   -2.2760    8.7950 N.am   99  ASP99      -0.1960
     73  CA       -19.0530   -2.5320    9.2610 C.3    99  ASP99       0.1840
     74  C        -19.4140   -1.5710   10.3710 C.2    99  ASP99       0.2622
     75  O        -18.5680   -1.2680   11.2190 O.2    99  ASP99      -0.2715
     76  CB       -19.2320   -3.9750    9.7700 C.3    99  ASP99       0.1450
     77  CG       -19.0620   -5.0790    8.7450 C.2    99  ASP99       0.3671
     78  OD1      -19.4310   -4.8640    7.5670 O.co2  99  ASP99      -0.2456
     79  OD2      -18.6150   -6.1800    9.1320 O.co2  99  ASP99      -0.2456
     80  N        -20.6480   -1.0600   10.3430 N.am  100  LEU100     -0.1963
     81  CA       -21.1140   -0.1750   11.3980 C.3   100  LEU100      0.1728
     82  C        -21.6980   -1.0320   12.5150 C.2   100  LEU100      0.2616
     83  O        -22.6960   -1.7270   12.3130 O.2   100  LEU100     -0.2715
     84  CB       -22.1380    0.8730   10.8870 C.3   100  LEU100      0.0311
     85  CG       -22.7830    1.7880   11.9510 C.3   100  LEU100      0.0022
     86  CD1      -21.7710    2.7520   12.5720 C.3   100  LEU100      0.0001
     87  CD2      -23.9670    2.5410   11.3860 C.3   100  LEU100      0.0001
     88  N        -21.0430   -1.0170   13.6680 N.am  101  MET101     -0.1963
     89  CA       -21.5090   -1.7690   14.8340 C.3   101  MET101      0.1736
     90  C        -22.4450   -0.8690   15.6640 C.2   101  MET101      0.2616
     91  O        -22.6190    0.3070   15.3340 O.2   101  MET101     -0.2715
     92  CB       -20.3190   -2.3020   15.6500 C.3   101  MET101      0.0427
     93  CG       -19.3980   -3.2240   14.8410 C.3   101  MET101      0.0599
     94  SD       -20.1620   -4.7870   14.3380 S.3   101  MET101     -0.1393
     95  CE       -19.8100   -5.7810   15.7810 C.3   101  MET101      0.0692
     96  N        -23.0960   -1.4290   16.6850 N.am  102  GLU102     -0.1963
     97  CA       -24.0520   -0.6890   17.5100 C.3   102  GLU102      0.1733
     98  C        -23.3490    0.2860   18.4640 C.2   102  GLU102      0.2617
     99  O        -23.7930    1.4240   18.6060 O.2   102  GLU102     -0.2715
    100  CB       -24.9570   -1.6710   18.2950 C.3   102  GLU102      0.0429
    101  CG       -26.0090   -1.0360   19.2030 C.3   102  GLU102      0.1163
    102  CD       -26.9890   -0.0630   18.5690 C.2   102  GLU102      0.3649
    103  OE1      -27.3530    0.9240   19.2480 O.co2 102  GLU102     -0.2457
    104  OE2      -27.3960   -0.2830   17.4030 O.co2 102  GLU102     -0.2457
    105  N        -22.2810   -0.1700   19.1250 N.am  103  THR103     -0.1937
    106  CA       -21.5470    0.6020   20.1290 C.3   103  THR103      0.2028
    107  C        -20.1700   -0.0320   20.3580 C.2   103  THR103      0.2642
    108  O        -19.7650   -0.9220   19.6070 O.2   103  THR103     -0.2714
    109  CB       -22.4020    0.6460   21.4470 C.3   103  THR103      0.1808
    110  OG1      -21.8250    1.5600   22.3770 O.3   103  THR103     -0.2208
    111  CG2      -22.6130   -0.7490   22.0980 C.3   103  THR103      0.0379
    112  N        -19.4590    0.4430   21.3810 N.am  104  ASP104     -0.1971
    113  CA       -18.1940   -0.1260   21.8250 C.3   104  ASP104      0.1709
    114  C        -18.3220   -0.4670   23.3170 C.2   104  ASP104      0.2293
    115  O        -19.2910   -0.0410   23.9550 O.2   104  ASP104     -0.2864
    116  CB       -16.9960    0.7940   21.5250 C.3   104  ASP104      0.1436
    117  CG       -17.0230    2.1850   22.1270 C.2   104  ASP104      0.3671
    118  OD1      -16.4310    3.0980   21.5270 O.co2 104  ASP104     -0.2456
    119  OD2      -17.5700    2.3450   23.2290 O.co2 104  ASP104     -0.2456
    120  N        -18.5180    2.7040   25.8340 N.3   107  LYS107     -0.1245
    121  CA       -19.8450    3.2960   25.9810 C.3   107  LYS107      0.1561
    122  C        -20.7940    2.3780   26.7420 C.2   107  LYS107      0.2260
    123  O        -21.5760    2.8700   27.5550 O.2   107  LYS107     -0.2867
    124  CB       -20.4300    3.6550   24.6120 C.3   107  LYS107      0.0271
    125  CG       -20.0570    5.0640   24.1680 C.3   107  LYS107      0.0035
    126  CD       -20.4180    5.3600   22.7240 C.3   107  LYS107      0.0206
    127  CE       -21.8880    5.6290   22.4860 C.3   107  LYS107      0.1093
    128  NZ       -22.1350    6.1370   21.1120 N.3   107  LYS107     -0.1314
    129  N        -12.7050    0.8880   24.1780 N.3   146  SER146     -0.1202
    130  CA       -13.0870    1.6260   22.9600 C.3   146  SER146      0.2020
    131  C        -12.6600    0.8940   21.6540 C.2   146  SER146      0.2618
    132  O        -13.1770    1.2180   20.5820 O.2   146  SER146     -0.2717
    133  CB       -12.5510    3.0570   22.9810 C.3   146  SER146      0.2103
    134  OG       -11.1400    3.1200   23.1070 O.3   146  SER146     -0.2182
    135  N        -11.7750   -0.1140   21.7530 N.am  147  ASN147     -0.1974
    136  CA       -11.3110   -0.8980   20.6050 C.3   147  ASN147      0.1688
    137  C        -12.0680   -2.2200   20.4950 C.2   147  ASN147      0.2292
    138  O        -11.6830   -3.0890   19.7130 O.2   147  ASN147     -0.2864
    139  CB        -9.7990   -1.1340   20.6900 C.3   147  ASN147      0.1181
    140  CG        -8.9960    0.1030   20.3550 C.2   147  ASN147      0.2629
    141  OD1       -9.5040    1.0680   19.7890 O.2   147  ASN147     -0.2716
    142  ND2       -7.7330    0.1220   20.7260 N.am  147  ASN147     -0.0877
    143  N        -15.7780   -3.4630   19.6250 N.3   149  LEU149     -0.1245
    144  CA       -17.0620   -3.0830   19.0520 C.3   149  LEU149      0.1561
    145  C        -18.1180   -4.1330   19.2940 C.2   149  LEU149      0.2260
    146  O        -17.8350   -5.3250   19.2300 O.2   149  LEU149     -0.2867
    147  CB       -16.9290   -2.8150   17.5420 C.3   149  LEU149      0.0270
    148  CG       -15.8880   -1.7820   17.0990 C.3   149  LEU149      0.0019
    149  CD1      -15.7370   -1.7980   15.5870 C.3   149  LEU149      0.0001
    150  CD2      -16.2160   -0.3860   17.6070 C.3   149  LEU149      0.0001
    151  N        -11.0160   -3.9450   16.9680 N.3   158  CYS158     -0.1221
    152  CA       -10.6220   -2.9810   15.9420 C.3   158  CYS158      0.1808
    153  C         -9.3560   -2.2280   16.3640 C.2   158  CYS158      0.2601
    154  O         -8.7870   -2.5230   17.4250 O.2   158  CYS158     -0.2717
    155  CB       -11.7660   -2.0270   15.6020 C.3   158  CYS158      0.0970
    156  SG       -12.1960   -0.8730   16.9240 S.3   158  CYS158     -0.0800
    157  N         -8.9230   -1.2660   15.4830 N.am  159  ASP159     -0.1973
    158  CA        -7.7700   -0.3720   15.6460 C.3   159  ASP159      0.1709
    159  C         -6.4560   -1.1660   15.7630 C.2   159  ASP159      0.2293
    160  O         -5.9690   -1.4070   16.8650 O.2   159  ASP159     -0.2864
    161  CB        -7.9800    0.5620   16.8630 C.3   159  ASP159      0.1436
    162  CG        -7.1440    1.8300   16.9220 C.2   159  ASP159      0.3671
    163  OD1       -6.1150    1.9070   16.2100 O.co2 159  ASP159     -0.2456
    164  OD2       -7.4990    2.7340   17.7070 O.co2 159  ASP159     -0.2456
@<TRIPOS>BOND
     1    28    26    1
     2    55    56    1
     3    56    57    1
     4    56    59    1
     5    27    25    1
     6    26    25    1
     7    57    58    2
     8    60    59    1
     9    60    62    1
    10    59    61    1
    11    25    22    1
    12    63    64    1
    13    32    31    2
    14    78    77   ar
    15    22    21    1
    16    22    23    1
    17    64    65    1
    18    64    67    1
    19    19    18    2
    20    66    65    2
    21    65    72   am
    22    31    30    1
    23    40    41    2
    24    40    39    1
    25    29    23   am
    26    29    30    1
    27    21    18   am
    28    18    17    1
    29    23    24    2
    30    77    79   ar
    31    77    76    1
    32    16    17    1
    33    72    73    1
    34    68    67    1
    35    68    69    1
    36    73    76    1
    37    73    74    1
    38    30    33    1
    39    38    39    1
    40    17    20    1
    41    39    42    1
    42    71    69   am
    43    33    34    1
    44    69    70    2
    45    42    43    1
    46    80    74   am
    47    80    81    1
    48    74    75    2
    49    43    44    1
    50    50    49    2
    51    49    48    1
    52    84    81    1
    53    84    85    1
    54    34    35    1
    55    36    35    1
    56    36    37    1
    57    87    85    1
    58    81    82    1
    59    44    45   ar
    60    44    46   ar
    61    52    54    1
    62    52    51    1
    63    85    86    1
    64    48    51    1
    65    48    47    1
    66    11    10    1
    67    11    12    2
    68    83    82    2
    69    10     9    1
    70    10    13    1
    71    82    88   am
    72    53    51    1
    73    14    13    1
    74    13    15    1
    75    88    89    1
    76     8     6    1
    77    94    93    1
    78    94    95    1
    79     6     5    1
    80     1     2    1
    81    89    92    1
    82    89    90    1
    83    93    92    1
    84     5     2    1
    85     5     7    1
    86    91    90    2
    87   157   158    1
    88   157   153   am
    89   149   148    1
    90   155   152    1
    91   155   156    1
    92   158   159    1
    93   158   161    1
    94    90    96   am
    95     2     3    1
    96   159   160    2
    97   152   153    1
    98   152   151    1
    99   163   162   ar
   100   153   154    2
   101    96    97    1
   102     3     4    2
   103   161   162    1
   104   162   164   ar
   105   148   147    1
   106   148   150    1
   107   104   102   ar
   108    97   100    1
   109    97    98    1
   110   147   144    1
   111   100   101    1
   112    98    99    2
   113    98   105   am
   114   102   101    1
   115   102   103   ar
   116   144   145    1
   117   144   143    1
   118   105   106    1
   119   146   145    2
   120   108   107    2
   121   138   137    2
   122   141   140    2
   123   106   107    1
   124   106   109    1
   125   140   139    1
   126   140   142   am
   127   107   112   am
   128   137   136    1
   129   132   131    2
   130   136   139    1
   131   136   135    1
   132   128   127    1
   133   112   113    1
   134   109   111    1
   135   109   110    1
   136   116   113    1
   137   116   117    1
   138   118   117   ar
   139   131   135   am
   140   131   130    1
   141   113   114    1
   142   117   119   ar
   143   127   126    1
   144   126   125    1
   145   130   133    1
   146   130   129    1
   147   133   134    1
   148   114   115    2
   149   125   124    1
   150   124   121    1
   151   120   121    1
   152   121   122    1
   153   122   123    2
