@<TRIPOS>MOLECULE
tmp/4fvaC01.pdb
 103 94 0 0 0
SMALL
GASTEIGER

@<TRIPOS>ATOM
      1  N         26.8590   21.2170  -19.3980 N.3    15  ASN15      -0.1240
      2  CA        27.6900   20.7720  -20.4940 C.3    15  ASN15       0.1653
      3  C         28.3040   19.4750  -20.0420 C.2    15  ASN15       0.2266
      4  O         29.1080   19.4770  -19.1260 O.2    15  ASN15      -0.2867
      5  CB        28.7680   21.8080  -20.8290 C.3    15  ASN15       0.1155
      6  CG        29.7510   21.3130  -21.8720 C.2    15  ASN15       0.2627
      7  OD1       30.0680   20.1140  -21.9280 O.2    15  ASN15      -0.2716
      8  ND2       30.2670   22.2340  -22.6930 N.am   15  ASN15      -0.0877
      9  N         30.3220   17.3600  -21.5370 N.3    17  ASP17      -0.1239
     10  CA        31.6540   17.0010  -22.0350 C.3    17  ASP17       0.1674
     11  C         31.6300   15.6630  -22.7610 C.2    17  ASP17       0.2266
     12  O         32.4980   14.8050  -22.5160 O.2    17  ASP17      -0.2867
     13  CB        32.6510   16.9280  -20.8880 C.3    17  ASP17       0.1410
     14  CG        34.1000   16.9940  -21.3700 C.2    17  ASP17       0.3668
     15  OD1       34.3300   17.3460  -22.5510 O.co2  17  ASP17      -0.2456
     16  OD2       35.0070   16.7010  -20.5670 O.co2  17  ASP17      -0.2456
     17  N         32.4720   15.1400  -25.6180 N.3    19  LEU19      -0.1245
     18  CA        33.6320   15.0600  -26.5090 C.3    19  LEU19       0.1561
     19  C         34.8690   14.4270  -25.8590 C.2    19  LEU19       0.2260
     20  O         35.8650   14.1530  -26.5440 O.2    19  LEU19      -0.2867
     21  CB        33.9830   16.4410  -27.0580 C.3    19  LEU19       0.0270
     22  CG        32.9860   17.0450  -28.0460 C.3    19  LEU19       0.0019
     23  CD1       33.4460   18.4320  -28.4830 C.3    19  LEU19       0.0001
     24  CD2       32.8250   16.1170  -29.2570 C.3    19  LEU19       0.0001
     25  N         27.0790   19.6730  -25.5130 N.3    47  GLU47      -0.1245
     26  CA        28.1010   18.6780  -25.8230 C.3    47  GLU47       0.1567
     27  C         27.6100   17.2580  -25.5670 C.2    47  GLU47       0.2260
     28  O         28.3230   16.4340  -24.9780 O.2    47  GLU47      -0.2867
     29  CB        29.4180   18.9400  -25.0610 C.3    47  GLU47       0.0388
     30  CG        30.3270   19.8990  -25.7790 C.3    47  GLU47       0.1160
     31  CD        31.7170   19.9910  -25.1790 C.2    47  GLU47       0.3649
     32  OE1       32.3680   18.9390  -24.9760 O.co2  47  GLU47      -0.2457
     33  OE2       32.1570   21.1350  -24.9130 O.co2  47  GLU47      -0.2457
     34  N         27.2380   25.7350  -34.0770 N.3   101  ARG101     -0.1245
     35  CA        26.5230   26.0840  -32.8650 C.3   101  ARG101      0.1563
     36  C         25.1360   26.6160  -33.2050 C.2   101  ARG101      0.2260
     37  O         24.9280   27.1970  -34.2760 O.2   101  ARG101     -0.2867
     38  CB        27.3410   27.0630  -32.0270 C.3   101  ARG101      0.0307
     39  CG        28.7220   26.5070  -31.6360 C.3   101  ARG101      0.0489
     40  CD        28.6320   25.1770  -30.8610 C.3   101  ARG101      0.2205
     41  NE        29.9560   24.5870  -30.6220 N.pl3 101  ARG101     -0.0865
     42  CZ        30.7960   25.0060  -29.6730 C.cat 101  ARG101      0.5346
     43  NH1       30.4450   26.0190  -28.8900 N.pl3 101  ARG101      0.1354
     44  NH2       31.9920   24.4320  -29.5140 N.pl3 101  ARG101      0.1354
     45  N         25.0160   26.6640  -26.8700 N.3   121  HIS121     -0.1241
     46  CA        26.4110   26.4370  -26.5460 C.3   121  HIS121      0.1621
     47  C         27.2110   27.3920  -27.4280 C.2   121  HIS121      0.2264
     48  O         27.4420   27.1010  -28.6000 O.2   121  HIS121     -0.2867
     49  CB        26.7570   24.9790  -26.8580 C.3   121  HIS121      0.0745
     50  CG        28.1570   24.5940  -26.5110 C.ar  121  HIS121      0.0817
     51  ND1       28.6940   23.3680  -26.8400 N.ar  121  HIS121     -0.2268
     52  CD2       29.1370   25.2760  -25.8710 C.ar  121  HIS121      0.1154
     53  CE1       29.9410   23.3070  -26.4100 C.ar  121  HIS121      0.1986
     54  NE2       30.2390   24.4540  -25.8260 N.ar  121  HIS121     -0.2212
     55  N         33.3890   28.5970  -28.8320 N.3   124  SER124     -0.1217
     56  CA        34.3920   28.2770  -27.8140 C.3   124  SER124      0.1889
     57  C         35.7020   29.0660  -27.9700 C.2   124  SER124      0.2288
     58  O         36.0600   29.4860  -29.0680 O.2   124  SER124     -0.2866
     59  CB        34.7130   26.7820  -27.8410 C.3   124  SER124      0.2089
     60  OG        33.5360   25.9910  -27.7520 O.3   124  SER124     -0.2183
     61  N         25.7860   26.7130  -21.9930 N.3   160  ASP160     -0.1239
     62  CA        27.2110   27.0090  -21.9030 C.3   160  ASP160      0.1674
     63  C         27.4960   28.1910  -22.8180 C.2   160  ASP160      0.2266
     64  O         27.7040   28.0260  -24.0200 O.2   160  ASP160     -0.2867
     65  CB        28.0410   25.7950  -22.3260 C.3   160  ASP160      0.1410
     66  CG        29.5290   26.0400  -22.1990 C.2   160  ASP160      0.3668
     67  OD1       29.9090   27.1950  -21.8980 O.co2 160  ASP160     -0.2456
     68  OD2       30.3250   25.0890  -22.4010 O.co2 160  ASP160     -0.2456
     69  N         30.0330   30.2590  -22.5700 N.3   162  ASN162     -0.1240
     70  CA        31.4720   30.4680  -22.7300 C.3   162  ASN162      0.1653
     71  C         31.9170   31.9070  -22.4720 C.2   162  ASN162      0.2266
     72  O         32.8780   32.3790  -23.0840 O.2   162  ASN162     -0.2867
     73  CB        31.9390   29.9950  -24.1210 C.3   162  ASN162      0.1155
     74  CG        32.3430   28.5180  -24.1360 C.2   162  ASN162      0.2627
     75  OD1       33.0510   28.0590  -23.2430 O.2   162  ASN162     -0.2716
     76  ND2       31.8810   27.7710  -25.1440 N.am  162  ASN162     -0.0877
     77  N         40.2960   17.6880  -17.1020 N.3   200  LYS200     -0.1245
     78  CA        41.1940   18.1550  -18.1520 C.3   200  LYS200      0.1561
     79  C         42.5430   18.6470  -17.6350 C.2   200  LYS200      0.2260
     80  O         42.6260   19.3410  -16.6160 O.2   200  LYS200     -0.2867
     81  CB        40.5040   19.2320  -18.9790 C.3   200  LYS200      0.0271
     82  CG        39.2860   18.6710  -19.6640 C.3   200  LYS200      0.0035
     83  CD        38.7980   19.5280  -20.7920 C.3   200  LYS200      0.0206
     84  CE        37.5820   18.8780  -21.4200 C.3   200  LYS200      0.1093
     85  NZ        37.9290   17.6720  -22.2200 N.3   200  LYS200     -0.1314
     86  N         33.7850   18.1630  -17.0420 N.3   241  ASP241     -0.1225
     87  CA        34.7200   19.2220  -16.6560 C.3   241  ASP241      0.1805
     88  C         33.9700   20.4840  -16.2210 C.2   241  ASP241      0.2597
     89  O         34.5590   21.3980  -15.6490 O.2   241  ASP241     -0.2718
     90  CB        35.7520   19.5120  -17.7670 C.3   241  ASP241      0.1424
     91  CG        35.1160   20.0250  -19.0640 C.2   241  ASP241      0.3668
     92  OD1       34.0150   19.5630  -19.4380 O.co2 241  ASP241     -0.2456
     93  OD2       35.7240   20.8990  -19.7200 O.co2 241  ASP241     -0.2456
     94  N         32.6600   20.5090  -16.4700 N.am  242  HIS242     -0.1975
     95  CA        31.7770   21.5750  -15.9790 C.3   242  HIS242      0.1656
     96  C         30.9440   21.0990  -14.7940 C.2   242  HIS242      0.2291
     97  O         30.4980   19.9470  -14.7440 O.2   242  HIS242     -0.2864
     98  CB        30.7910   22.0420  -17.0730 C.3   242  HIS242      0.0771
     99  CG        31.4310   22.7960  -18.2000 C.ar  242  HIS242      0.0820
    100  ND1       31.1560   24.1260  -18.4570 N.ar  242  HIS242     -0.2267
    101  CD2       32.3150   22.4070  -19.1510 C.ar  242  HIS242      0.1154
    102  CE1       31.8520   24.5230  -19.5060 C.ar  242  HIS242      0.1986
    103  NE2       32.5670   23.5010  -19.9440 N.ar  242  HIS242     -0.2212
@<TRIPOS>BOND
     1    37    36    2
     2    34    35    1
     3    36    35    1
     4    35    38    1
     5    38    39    1
     6    39    40    1
     7    40    41    1
     8    41    42    2
     9    42    44    1
    10    42    43    1
    11    24    22    1
    12    58    57    2
    13    55    56    1
    14    48    47    2
    15    23    22    1
    16    22    21    1
    17    57    56    1
    18    59    56    1
    19    59    60    1
    20    47    46    1
    21    21    18    1
    22    45    46    1
    23    49    46    1
    24    49    50    1
    25    51    50   ar
    26    51    53   ar
    27    20    19    2
    28    50    52   ar
    29    18    19    1
    30    18    17    1
    31    53    54   ar
    32    52    54   ar
    33    26    27    1
    34    26    25    1
    35    26    29    1
    36    30    31    1
    37    30    29    1
    38    27    28    2
    39    31    32   ar
    40    31    33   ar
    41    76    74   am
    42    74    73    1
    43    74    75    2
    44    73    70    1
    45    64    63    2
    46    72    71    2
    47    63    62    1
    48    11    12    2
    49    11    10    1
    50    70    69    1
    51    70    71    1
    52     8     6   am
    53    15    14   ar
    54    68    66   ar
    55    65    66    1
    56    65    62    1
    57    85    84    1
    58    66    67   ar
    59    10     9    1
    60    10    13    1
    61    61    62    1
    62     7     6    2
    63     6     5    1
    64    84    83    1
    65    14    13    1
    66    14    16   ar
    67     5     2    1
    68    83    82    1
    69     2     3    1
    70     2     1    1
    71     3     4    2
    72   103   102   ar
    73   103   101   ar
    74    93    91   ar
    75    82    81    1
    76   102   100   ar
    77    92    91   ar
    78   101    99   ar
    79    91    90    1
    80    81    78    1
    81   100    99   ar
    82    99    98    1
    83    78    79    1
    84    78    77    1
    85    90    87    1
    86    79    80    2
    87    98    95    1
    88    86    87    1
    89    87    88    1
    90    94    88   am
    91    94    95    1
    92    88    89    2
    93    95    96    1
    94    96    97    2
