@<TRIPOS>MOLECULE
tmp/4fvdA00.pdb
 164 160 0 0 0
SMALL
GASTEIGER

@<TRIPOS>ATOM
      1  N          6.4310   22.5450   23.5490 N.3    15  HIS15      -0.1226
      2  CA         7.7700   22.7220   24.1080 C.3    15  HIS15       0.1752
      3  C          8.8300   23.0700   23.0570 C.2    15  HIS15       0.2595
      4  O          9.9500   23.4540   23.4640 O.2    15  HIS15      -0.2718
      5  CB         8.1950   21.4670   24.9460 C.3    15  HIS15       0.0759
      6  CG         8.6070   20.2530   24.1580 C.ar   15  HIS15       0.0818
      7  ND1        7.7230   19.2630   23.7630 N.ar   15  HIS15      -0.2268
      8  CD2        9.8380   19.8060   23.8230 C.ar   15  HIS15       0.1154
      9  CE1        8.3890   18.3040   23.1450 C.ar   15  HIS15       0.1986
     10  NE2        9.6770   18.5800   23.2020 N.ar   15  HIS15      -0.2212
     11  N          8.4670   22.9460   21.7470 N.am   16  LEU16      -0.1980
     12  CA         9.3980   23.2850   20.6630 C.3    16  LEU16       0.1596
     13  C          9.0330   24.5620   19.9240 C.2    16  LEU16       0.2287
     14  O          9.6590   24.8970   18.8720 O.2    16  LEU16      -0.2864
     15  CB         9.4420   22.1460   19.6290 C.3    16  LEU16       0.0297
     16  CG         9.9230   20.8350   20.2490 C.3    16  LEU16       0.0022
     17  CD1        9.8680   19.6220   19.2190 C.3    16  LEU16       0.0001
     18  CD2       11.3240   20.9110   20.9170 C.3    16  LEU16       0.0001
     19  N          0.8140   19.3650   25.4070 N.3    33  ASP33      -0.1239
     20  CA         2.0630   19.6600   24.7730 C.3    33  ASP33       0.1674
     21  C          1.8090   20.1580   23.3070 C.2    33  ASP33       0.2266
     22  O          2.5700   19.8460   22.3820 O.2    33  ASP33      -0.2867
     23  CB         3.0500   18.4630   24.7440 C.3    33  ASP33       0.1410
     24  CG         4.4090   18.8260   24.0790 C.2    33  ASP33       0.3668
     25  OD1        4.9170   19.9650   24.3450 O.co2  33  ASP33      -0.2456
     26  OD2        5.0080   17.9220   23.4030 O.co2  33  ASP33      -0.2456
     27  N          3.1030   11.8990   33.3210 N.3    78  VAL78      -0.1231
     28  CA         4.3750   12.0460   32.6820 C.3    78  VAL78       0.1692
     29  C          5.3820   12.6950   33.6820 C.2    78  VAL78       0.2591
     30  O          5.1670   13.7800   34.1930 O.2    78  VAL78      -0.2718
     31  CB         4.2580   12.9750   31.4070 C.3    78  VAL78       0.0266
     32  CG1        5.7110   13.2370   30.7540 C.3    78  VAL78       0.0020
     33  CG2        3.2720   12.3820   30.4150 C.3    78  VAL78       0.0020
     34  N          6.5070   12.0180   33.8710 N.am   79  GLU79      -0.1979
     35  CA         7.5200   12.4530   34.8330 C.3    79  GLU79       0.1602
     36  C          8.1670   13.7750   34.4310 C.2    79  GLU79       0.2287
     37  O          8.2480   14.0790   33.2210 O.2    79  GLU79      -0.2864
     38  CB         8.6030   11.3540   34.9500 C.3    79  GLU79       0.0415
     39  CG         8.1490   10.1620   35.8260 C.3    79  GLU79       0.1163
     40  CD         7.6550   10.6060   37.2570 C.2    79  GLU79       0.3649
     41  OE1        8.5270   11.0160   38.0850 O.co2  79  GLU79      -0.2457
     42  OE2        6.4090   10.5420   37.5530 O.co2  79  GLU79      -0.2457
     43  N         10.7320   16.8080   33.4230 N.3    81  SER81      -0.1202
     44  CA        11.7460   16.9400   32.3980 C.3    81  SER81       0.2020
     45  C         12.1840   18.3930   32.4020 C.2    81  SER81       0.2619
     46  O         11.6730   19.2180   33.1870 O.2    81  SER81      -0.2717
     47  CB        11.2010   16.4650   31.0570 C.3    81  SER81       0.2103
     48  OG        10.2410   17.3990   30.5430 O.3    81  SER81      -0.2182
     49  N         13.1290   18.7550   31.5360 N.am   82  GLU82      -0.1965
     50  CA        13.5370   20.1610   31.4670 C.3    82  GLU82       0.1733
     51  C         12.4480   20.9450   30.7860 C.2    82  GLU82       0.2616
     52  O         12.4830   22.1920   30.7930 O.2    82  GLU82      -0.2715
     53  CB        14.8580   20.3600   30.6980 C.3    82  GLU82       0.0429
     54  CG        14.8450   19.8770   29.2620 C.3    82  GLU82       0.1163
     55  CD        15.2580   18.4220   29.1880 C.2    82  GLU82       0.3649
     56  OE1       14.7150   17.6690   30.0120 O.co2  82  GLU82      -0.2457
     57  OE2       16.1240   18.0260   28.3420 O.co2  82  GLU82      -0.2457
     58  N         11.4710   20.2170   30.2070 N.am   83  TYR83      -0.1960
     59  CA        10.3220   20.9560   29.6130 C.3    83  TYR83       0.1771
     60  C          9.0570   21.1470   30.4580 C.2    83  TYR83       0.2619
     61  O          8.4060   22.1780   30.3010 O.2    83  TYR83      -0.2715
     62  CB         9.9400   20.3810   28.1970 C.3    83  TYR83       0.0574
     63  CG        11.1060   20.4290   27.2570 C.ar   83  TYR83      -0.0198
     64  CD1       11.5590   21.6610   26.7650 C.ar   83  TYR83      -0.0009
     65  CD2       11.8350   19.2930   26.9370 C.ar   83  TYR83      -0.0009
     66  CE1       12.6720   21.7450   25.8860 C.ar   83  TYR83       0.0417
     67  CE2       12.9490   19.3610   26.0770 C.ar   83  TYR83       0.0417
     68  CZ        13.3630   20.6020   25.5500 C.ar   83  TYR83       0.1957
     69  OH        14.4650   20.7060   24.6590 O.3    83  TYR83      -0.2866
     70  N          8.7110   20.1860   31.3370 N.am   84  TYR84      -0.1974
     71  CA         7.5330   20.3100   32.1240 C.3    84  TYR84       0.1639
     72  C          7.8800   19.6980   33.4620 C.2    84  TYR84       0.2290
     73  O          8.6400   18.7270   33.5040 O.2    84  TYR84      -0.2864
     74  CB         6.4370   19.4180   31.5030 C.3    84  TYR84       0.0560
     75  CG         5.9170   19.9590   30.1420 C.ar   84  TYR84      -0.0198
     76  CD1        5.1260   21.0720   30.1070 C.ar   84  TYR84      -0.0009
     77  CD2        6.2650   19.3190   28.9390 C.ar   84  TYR84      -0.0009
     78  CE1        4.6340   21.6030   28.8750 C.ar   84  TYR84       0.0417
     79  CE2        5.7770   19.8100   27.6980 C.ar   84  TYR84       0.0417
     80  CZ         4.9680   20.9250   27.6880 C.ar   84  TYR84       0.1957
     81  OH         4.5080   21.3700   26.4510 O.3    84  TYR84      -0.2866
     82  N          3.4950   15.8070   35.6110 N.3    87  ARG87      -0.1245
     83  CA         2.0970   16.2350   35.4250 C.3    87  ARG87       0.1563
     84  C          1.3010   15.1810   34.6830 C.2    87  ARG87       0.2260
     85  O          1.8450   14.2550   34.0710 O.2    87  ARG87      -0.2867
     86  CB         2.0040   17.5600   34.6430 C.3    87  ARG87       0.0307
     87  CG         2.3330   17.3540   33.1190 C.3    87  ARG87       0.0489
     88  CD         2.8240   18.6580   32.3630 C.3    87  ARG87       0.2205
     89  NE         2.5420   18.6420   30.9100 N.pl3  87  ARG87      -0.0865
     90  CZ         3.1130   17.8670   30.0260 C.cat  87  ARG87       0.5346
     91  NH1        3.9830   16.8900   30.3620 N.pl3  87  ARG87       0.1354
     92  NH2        2.7680   18.0850   28.7430 N.pl3  87  ARG87       0.1354
     93  N         -0.6410   14.4300   31.3650 N.3    89  GLN89      -0.1245
     94  CA        -0.7200   14.9010   29.9770 C.3    89  GLN89       0.1566
     95  C         -1.9320   14.2110   29.4040 C.2    89  GLN89       0.2260
     96  O         -2.0440   12.9830   29.4890 O.2    89  GLN89      -0.2867
     97  CB         0.5390   14.5170   29.2550 C.3    89  GLN89       0.0367
     98  CG         0.4800   15.0400   27.7880 C.3    89  GLN89       0.0905
     99  CD         1.8030   15.0200   27.0770 C.2    89  GLN89       0.2608
    100  OE1        2.8670   14.9940   27.7000 O.2    89  GLN89      -0.2717
    101  NE2        1.7600   15.1080   25.7860 N.am   89  GLN89      -0.0878
    102  N         12.6540    5.5400   20.4600 N.3    99  SER99      -0.1202
    103  CA        12.7280    6.9740   20.5020 C.3    99  SER99       0.2020
    104  C         14.0000    7.4170   21.1230 C.2    99  SER99       0.2619
    105  O         14.6010    6.7200   21.9700 O.2    99  SER99      -0.2717
    106  CB        11.5210    7.6130   21.2280 C.3    99  SER99       0.2103
    107  OG        11.6280    7.4060   22.6070 O.3    99  SER99      -0.2182
    108  N         14.3910    8.6070   20.7120 N.am  100  GLU100     -0.1965
    109  CA        15.6350    9.2320   21.1260 C.3   100  GLU100      0.1718
    110  C         15.3570   10.7120   21.1850 C.2   100  GLU100      0.2458
    111  O         14.4460   11.2100   20.4740 O.2   100  GLU100     -0.2730
    112  CB        16.7130    9.0520   20.0350 C.3   100  GLU100      0.0428
    113  CG        17.4500    7.8150   20.1680 C.3   100  GLU100      0.1163
    114  CD        18.5140    7.6680   19.1640 C.2   100  GLU100      0.3649
    115  OE1       19.1530    8.6810   18.8210 O.co2 100  GLU100     -0.2457
    116  OE2       18.7450    6.5350   18.6970 O.co2 100  GLU100     -0.2457
    117  N         16.2390   11.4560   21.8820 N.am  101  PRO101     -0.2716
    118  CA        16.2340   12.9090   21.8770 C.3   101  PRO101      0.1536
    119  C         16.1370   13.4740   20.4500 C.2   101  PRO101      0.2599
    120  O         16.8460   13.0130   19.5100 O.2   101  PRO101     -0.2715
    121  CB        17.5910   13.2810   22.5290 C.3   101  PRO101      0.0310
    122  CG        17.8680   12.1240   23.4670 C.3   101  PRO101      0.0237
    123  CD        17.3800   10.9130   22.6560 C.3   101  PRO101      0.0939
    124  N         15.1610   14.3550   20.2650 N.am  102  GLY102     -0.1941
    125  CA        14.9600   14.9910   18.9500 C.3   102  GLY102      0.2014
    126  C         13.8550   14.3520   18.1480 C.2   102  GLY102      0.2639
    127  O         13.5480   14.8150   17.0230 O.2   102  GLY102     -0.2714
    128  N         13.2420   13.2680   18.6860 N.am  103  ASP103     -0.1957
    129  CA        12.1440   12.6400   17.9520 C.3   103  ASP103      0.1840
    130  C         10.8320   13.3570   18.1360 C.2   103  ASP103      0.2621
    131  O          9.8990   13.1320   17.3480 O.2   103  ASP103     -0.2715
    132  CB        12.0120   11.1100   18.2500 C.3   103  ASP103      0.1450
    133  CG        13.1470   10.3060   17.6140 C.2   103  ASP103      0.3671
    134  OD1       13.8560   10.8360   16.7350 O.co2 103  ASP103     -0.2456
    135  OD2       13.3400    9.1550   18.0150 O.co2 103  ASP103     -0.2456
    136  N         10.6940   14.2100   19.1680 N.am  104  ALA104     -0.1977
    137  CA         9.4530   14.9290   19.2910 C.3   104  ALA104      0.1597
    138  C          9.2410   15.7650   18.0170 C.2   104  ALA104      0.2287
    139  O         10.2140   16.2800   17.4250 O.2   104  ALA104     -0.2864
    140  CB         9.4980   15.8560   20.5300 C.3   104  ALA104      0.0319
    141  N          4.6940   13.1160   17.7020 N.3   118  VAL118     -0.1231
    142  CA         5.4890   12.5870   18.8120 C.3   118  VAL118      0.1692
    143  C          5.6570   13.6740   19.8890 C.2   118  VAL118      0.2593
    144  O          6.0920   14.7750   19.5570 O.2   118  VAL118     -0.2718
    145  CB         6.9070   12.0710   18.3660 C.3   118  VAL118      0.0266
    146  CG1        7.6530   11.5350   19.6460 C.3   118  VAL118      0.0020
    147  CG2        6.7130   10.9660   17.2710 C.3   118  VAL118      0.0020
    148  N          5.3160   13.3280   21.1090 N.am  119  SER119     -0.1938
    149  CA         5.4510   14.2500   22.2360 C.3   119  SER119      0.2055
    150  C          6.3590   13.7380   23.3290 C.2   119  SER119      0.2644
    151  O          7.1250   14.5200   23.9680 O.2   119  SER119     -0.2714
    152  CB         4.0830   14.5890   22.7730 C.3   119  SER119      0.2130
    153  OG         4.1820   15.4180   23.9330 O.3   119  SER119     -0.2179
    154  N          6.2560   12.4680   23.6210 N.am  120  THR120     -0.1936
    155  CA         6.9690   11.9180   24.7910 C.3   120  THR120      0.2028
    156  C          7.5860   10.5710   24.3900 C.2   120  THR120      0.2642
    157  O          7.3490   10.0690   23.3060 O.2   120  THR120     -0.2714
    158  CB         5.9820   11.5890   26.0050 C.3   120  THR120      0.1808
    159  OG1        5.1390   10.4730   25.7070 O.3   120  THR120     -0.2208
    160  CG2        5.0200   12.6530   26.3870 C.3   120  THR120      0.0379
    161  N          8.3420    9.9940   25.3130 N.am  121  GLY121     -0.1954
    162  CA         8.7850    8.5980   25.1140 C.3   121  GLY121      0.1869
    163  C          9.7250    8.2040   26.2300 C.2   121  GLY121      0.2309
    164  O         10.0260    9.0000   27.1300 O.2   121  GLY121     -0.2863
@<TRIPOS>BOND
     1   134   133   ar
     2   127   126    2
     3   147   145    1
     4   131   130    2
     5   139   138    2
     6   133   135   ar
     7   133   132    1
     8   141   142    1
     9   129   130    1
    10   129   132    1
    11   129   128    1
    12   138   137    1
    13   130   136   am
    14   126   128   am
    15   126   125    1
    16   145   142    1
    17   145   146    1
    18   116   114   ar
    19   142   143    1
    20   115   114   ar
    21    14    13    2
    22   125   124    1
    23   114   113    1
    24   136   137    1
    25    17    16    1
    26   137   140    1
    27   120   119    2
    28   144   143    2
    29    15    16    1
    30    15    12    1
    31   143   148   am
    32    13    12    1
    33   112   113    1
    34   112   109    1
    35    16    18    1
    36   124   119   am
    37   119   118    1
    38   102   103    1
    39   111   110    2
    40   103   104    1
    41   103   106    1
    42    12    11    1
    43   108   104   am
    44   108   109    1
    45   148   149    1
    46   104   105    2
    47   109   110    1
    48   110   117   am
    49   106   107    1
    50    11     3   am
    51   118   117    1
    52   118   121    1
    53   117   123    1
    54   149   152    1
    55   149   150    1
    56    22    21    2
    57   121   122    1
    58   123   122    1
    59   152   153    1
    60     3     4    2
    61     3     2    1
    62     9    10   ar
    63     9     7   ar
    64    10     8   ar
    65   157   156    2
    66    21    20    1
    67   150   154   am
    68   150   151    2
    69    26    24   ar
    70     1     2    1
    71   154   155    1
    72     7     6   ar
    73     8     6   ar
    74    24    25   ar
    75    24    23    1
    76     2     5    1
    77     6     5    1
    78   156   155    1
    79   156   161   am
    80    69    68    1
    81    23    20    1
    82    20    19    1
    83   155   158    1
    84   162   161    1
    85   162   163    1
    86    68    66   ar
    87    68    67   ar
    88   159   158    1
    89   101    99   am
    90    66    64   ar
    91   158   160    1
    92    67    65   ar
    93   163   164    2
    94    81    80    1
    95    64    63   ar
    96    65    63   ar
    97    99   100    2
    98    99    98    1
    99    63    62    1
   100    80    79   ar
   101    80    78   ar
   102    79    77   ar
   103    98    97    1
   104    62    59    1
   105    57    55   ar
   106    92    90    1
   107    78    76   ar
   108    77    75   ar
   109    55    54    1
   110    55    56   ar
   111    97    94    1
   112    54    53    1
   113    95    96    2
   114    95    94    1
   115    59    58    1
   116    59    60    1
   117    94    93    1
   118    90    91    1
   119    90    89    2
   120    76    75   ar
   121    75    74    1
   122    58    51   am
   123    61    60    2
   124    33    31    1
   125    60    70   am
   126    48    47    1
   127    53    50    1
   128    32    31    1
   129    51    52    2
   130    51    50    1
   131    89    88    1
   132    47    44    1
   133    70    71    1
   134    31    28    1
   135    50    49    1
   136    74    71    1
   137    49    45   am
   138    71    72    1
   139    88    87    1
   140    44    45    1
   141    44    43    1
   142    45    46    2
   143    28    27    1
   144    28    29    1
   145    87    86    1
   146    37    36    2
   147    72    73    2
   148    29    34   am
   149    29    30    2
   150    34    35    1
   151    85    84    2
   152    36    35    1
   153    86    83    1
   154    84    83    1
   155    35    38    1
   156    38    39    1
   157    83    82    1
   158    39    40    1
   159    40    42   ar
   160    40    41   ar
