@<TRIPOS>MOLECULE
tmp/4fvlB01.pdb
 98 95 0 0 0
SMALL
GASTEIGER

@<TRIPOS>ATOM
      1  N         20.4790   -3.8650   10.6620 N.3   133  PRO133     -0.2116
      2  CA        21.8060   -4.5040   10.7890 C.3   133  PRO133      0.1372
      3  C         22.2640   -4.6980   12.2400 C.2   133  PRO133      0.2244
      4  O         23.1230   -5.5540   12.4990 O.2   133  PRO133     -0.2868
      5  CB        22.7540   -3.5300   10.0810 C.3   133  PRO133      0.0268
      6  CG        21.8550   -2.6190    9.2520 C.3   133  PRO133      0.0207
      7  CD        20.5220   -2.5970    9.9070 C.3   133  PRO133      0.0892
      8  N         20.1920   -5.7470   14.5240 N.3   135  ALA135     -0.1231
      9  CA        19.3220   -6.7880   15.0890 C.3   135  ALA135      0.1694
     10  C         20.0150   -8.1610   15.1740 C.2   135  ALA135      0.2591
     11  O         20.8480   -8.4900   14.3200 O.2   135  ALA135     -0.2718
     12  CB        18.0640   -6.8970   14.2850 C.3   135  ALA135      0.0304
     13  N         19.6740   -8.9470   16.1990 N.am  136  LEU136     -0.1980
     14  CA        20.1180  -10.3410   16.3030 C.3   136  LEU136      0.1596
     15  C         19.6130  -11.1330   15.0960 C.2   136  LEU136      0.2287
     16  O         20.2980  -12.0180   14.5740 O.2   136  LEU136     -0.2864
     17  CB        19.6210  -10.9840   17.6150 C.3   136  LEU136      0.0297
     18  CG        19.8290  -12.4940   17.8900 C.3   136  LEU136      0.0022
     19  CD1       21.2750  -12.8880   17.7000 C.3   136  LEU136      0.0001
     20  CD2       19.3950  -12.9090   19.2910 C.3   136  LEU136      0.0001
     21  N         19.2310  -10.2490   12.0140 N.3   138  PHE138     -0.1241
     22  CA        19.8750  -10.0100   10.7180 C.3   138  PHE138      0.1605
     23  C         20.4470  -11.3340   10.1760 C.2   138  PHE138      0.2264
     24  O         20.9510  -12.1500   10.9570 O.2   138  PHE138     -0.2867
     25  CB        20.9600   -8.9600   10.8620 C.3   138  PHE138      0.0534
     26  CG        21.3670   -8.3480    9.5680 C.ar  138  PHE138     -0.0203
     27  CD1       20.5430   -7.4220    8.9310 C.ar  138  PHE138     -0.0042
     28  CD2       22.5670   -8.7010    8.9690 C.ar  138  PHE138     -0.0042
     29  CE1       20.9120   -6.8580    7.7210 C.ar  138  PHE138     -0.0003
     30  CE2       22.9450   -8.1340    7.7480 C.ar  138  PHE138     -0.0003
     31  CZ        22.1170   -7.2110    7.1280 C.ar  138  PHE138     -0.0000
     32  N         23.0120  -12.2960    8.5880 N.3   140  ILE140     -0.1231
     33  CA        24.4390  -12.6030    8.4940 C.3   140  ILE140      0.1692
     34  C         25.1430  -12.4850    9.8470 C.2   140  ILE140      0.2592
     35  O         25.0220  -11.4760   10.5140 O.2   140  ILE140     -0.2718
     36  CB        25.1340  -11.7220    7.4300 C.3   140  ILE140      0.0266
     37  CG1       24.6410  -12.1140    6.0370 C.3   140  ILE140      0.0019
     38  CG2       26.6450  -11.8770    7.4970 C.3   140  ILE140      0.0020
     39  CD1       25.1520  -11.2270    4.8950 C.3   140  ILE140      0.0001
     40  N         25.8830  -13.5160   10.2420 N.am  141  TYR141     -0.1962
     41  CA        26.5950  -13.5490   11.5280 C.3   141  TYR141      0.1771
     42  C         27.7500  -12.5280   11.6360 C.2   141  TYR141      0.2620
     43  O         28.5440  -12.3630   10.7020 O.2   141  TYR141     -0.2715
     44  CB        27.1240  -14.9830   11.7340 C.3   141  TYR141      0.0574
     45  CG        28.0380  -15.2400   12.9310 C.ar  141  TYR141     -0.0198
     46  CD1       27.5320  -15.7340   14.1260 C.ar  141  TYR141     -0.0009
     47  CD2       29.4080  -15.0340   12.8420 C.ar  141  TYR141     -0.0009
     48  CE1       28.3710  -15.9940   15.2170 C.ar  141  TYR141      0.0417
     49  CE2       30.2480  -15.2850   13.9220 C.ar  141  TYR141      0.0417
     50  CZ        29.7280  -15.7740   15.1010 C.ar  141  TYR141      0.1957
     51  OH        30.5850  -16.0300   16.1570 O.3   141  TYR141     -0.2866
     52  N         27.8260  -11.8390   12.7750 N.am  142  THR142     -0.1951
     53  CA        29.0120  -11.0690   13.1570 C.3   142  THR142      0.1897
     54  C         29.2770  -11.3880   14.6190 C.2   142  THR142      0.2313
     55  O         28.3710  -11.2730   15.4390 O.2   142  THR142     -0.2863
     56  CB        28.7890   -9.5510   13.0510 C.3   142  THR142      0.1794
     57  OG1       28.1000   -9.2390   11.8350 O.3   142  THR142     -0.2208
     58  CG2       30.1160   -8.7980   13.0940 C.3   142  THR142      0.0378
     59  N         29.9070  -10.6440   18.0940 N.3   144  THR144     -0.1218
     60  CA        29.5580   -9.3790   18.7390 C.3   144  THR144      0.1862
     61  C         30.6680   -8.8500   19.6560 C.2   144  THR144      0.2287
     62  O         30.7910   -7.6390   19.8800 O.2   144  THR144     -0.2866
     63  CB        28.2540   -9.5290   19.5430 C.3   144  THR144      0.1770
     64  OG1       28.4400  -10.5180   20.5700 O.3   144  THR144     -0.2211
     65  CG2       27.1210   -9.9620   18.6340 C.3   144  THR144      0.0375
     66  N         25.3040    0.8350    6.2200 N.3   217  LEU217     -0.1231
     67  CA        25.4220    0.7330    7.6870 C.3   217  LEU217      0.1693
     68  C         26.0500   -0.5940    8.1180 C.2   217  LEU217      0.2592
     69  O         25.5300   -1.6560    7.8030 O.2   217  LEU217     -0.2718
     70  CB        24.0450    0.8810    8.3390 C.3   217  LEU217      0.0284
     71  CG        23.9820    0.8580    9.8680 C.3   217  LEU217      0.0019
     72  CD1       24.8580    1.9620   10.4220 C.3   217  LEU217      0.0001
     73  CD2       22.5340    1.0300   10.3460 C.3   217  LEU217      0.0001
     74  N         27.1700   -0.5280    8.8330 N.am  218  PHE218     -0.1962
     75  CA        27.8820   -1.7230    9.3060 C.3   218  PHE218      0.1771
     76  C         28.0100   -1.7190   10.8280 C.2   218  PHE218      0.2619
     77  O         28.1370   -0.6500   11.4490 O.2   218  PHE218     -0.2715
     78  CB        29.3290   -1.7390    8.7970 C.3   218  PHE218      0.0574
     79  CG        29.4980   -2.0510    7.3290 C.ar  218  PHE218     -0.0200
     80  CD1       29.5770   -1.0190    6.3810 C.ar  218  PHE218     -0.0042
     81  CD2       29.6980   -3.3660    6.9020 C.ar  218  PHE218     -0.0042
     82  CE1       29.7940   -1.2980    5.0120 C.ar  218  PHE218     -0.0003
     83  CE2       29.9180   -3.6660    5.5440 C.ar  218  PHE218     -0.0003
     84  CZ        29.9610   -2.6210    4.5930 C.ar  218  PHE218     -0.0000
     85  N         28.0420   -2.9090   11.4260 N.am  219  LEU219     -0.1977
     86  CA        28.5690   -3.0410   12.7720 C.3   219  LEU219      0.1596
     87  C         30.0670   -2.8320   12.6390 C.2   219  LEU219      0.2287
     88  O         30.6870   -3.3440   11.7000 O.2   219  LEU219     -0.2864
     89  CB        28.2780   -4.4270   13.3350 C.3   219  LEU219      0.0297
     90  CG        26.8580   -4.6310   13.8490 C.3   219  LEU219      0.0022
     91  CD1       26.5130   -6.1110   13.9680 C.3   219  LEU219      0.0001
     92  CD2       26.6380   -3.9170   15.1770 C.3   219  LEU219      0.0001
     93  N         32.1640   -5.8320   12.1150 N.3   222  SER222     -0.1217
     94  CA        32.2500   -6.4270   10.7730 C.3   222  SER222      0.1889
     95  C         33.5750   -6.1400   10.0820 C.2   222  SER222      0.2288
     96  O         33.9450   -6.8470    9.1500 O.2   222  SER222     -0.2866
     97  CB        31.1110   -5.9480    9.8660 C.3   222  SER222      0.2089
     98  OG        29.8460   -6.3940   10.3170 O.3   222  SER222     -0.2183
@<TRIPOS>BOND
     1    84    82   ar
     2    84    83   ar
     3    39    37    1
     4    82    80   ar
     5    83    81   ar
     6    37    36    1
     7    66    67    1
     8    80    79   ar
     9    81    79   ar
    10    31    29   ar
    11    31    30   ar
    12    79    78    1
    13    36    38    1
    14    36    33    1
    15    67    68    1
    16    67    70    1
    17    29    27   ar
    18    30    28   ar
    19    69    68    2
    20    68    74   am
    21    70    71    1
    22    33    32    1
    23    33    34    1
    24    78    75    1
    25    74    75    1
    26    27    26   ar
    27    28    26   ar
    28    96    95    2
    29     6     7    1
    30     6     5    1
    31    75    76    1
    32    26    25    1
    33    34    40   am
    34    34    35    2
    35    97    98    1
    36    97    94    1
    37    71    73    1
    38    71    72    1
    39     7     1    1
    40     5     2    1
    41    95    94    1
    42    23    22    1
    43    23    24    2
    44    40    41    1
    45     1     2    1
    46    43    42    2
    47    22    25    1
    48    22    21    1
    49    94    93    1
    50     2     3    1
    51    76    85   am
    52    76    77    2
    53    85    86    1
    54    41    42    1
    55    41    44    1
    56    42    52   am
    57    88    87    2
    58    44    45    1
    59    57    56    1
    60     3     4    2
    61    87    86    1
    62    86    89    1
    63    52    53    1
    64    47    45   ar
    65    47    49   ar
    66    45    46   ar
    67    56    58    1
    68    56    53    1
    69    53    54    1
    70    89    90    1
    71    90    91    1
    72    90    92    1
    73    49    50   ar
    74    46    48   ar
    75    12     9    1
    76    11    10    2
    77     8     9    1
    78    16    15    2
    79    54    55    2
    80     9    10    1
    81    15    14    1
    82    50    48   ar
    83    50    51    1
    84    10    13   am
    85    13    14    1
    86    14    17    1
    87    17    18    1
    88    19    18    1
    89    18    20    1
    90    59    60    1
    91    65    63    1
    92    60    63    1
    93    60    61    1
    94    63    64    1
    95    61    62    2
