@<TRIPOS>MOLECULE
tmp/4fvnA01.pdb
 124 123 0 0 0
SMALL
GASTEIGER

@<TRIPOS>ATOM
      1  N         20.4110   -0.4950    6.2940 N.3    61  HIS61      -0.1241
      2  CA        20.3670   -1.3380    7.4960 C.3    61  HIS61       0.1621
      3  C         18.9300   -1.8210    7.7520 C.2    61  HIS61       0.2264
      4  O         18.8210   -2.8640    8.3880 O.2    61  HIS61      -0.2867
      5  CB        20.9230   -0.6890    8.7550 C.3    61  HIS61       0.0745
      6  CG        20.4610    0.6980    9.0680 C.ar   61  HIS61       0.0817
      7  ND1       19.4030    0.9950    9.8990 N.ar   61  HIS61      -0.2268
      8  CD2       21.0040    1.8860    8.6490 C.ar   61  HIS61       0.1154
      9  CE1       19.2690    2.3090    9.9750 C.ar   61  HIS61       0.1986
     10  NE2       20.2260    2.8670    9.2280 N.ar   61  HIS61      -0.2212
     11  N          8.5510    7.9860   11.3070 N.3    89  GLN89      -0.1245
     12  CA         8.8490    6.8250   10.4560 C.3    89  GLN89       0.1566
     13  C          8.5690    5.5750   11.2300 C.2    89  GLN89       0.2260
     14  O          8.5730    5.5890   12.4580 O.2    89  GLN89      -0.2867
     15  CB        10.2840    6.8190    9.9210 C.3    89  GLN89       0.0367
     16  CG        11.3500    6.9450   10.9900 C.3    89  GLN89       0.0905
     17  CD        12.0530    5.6470   11.2910 C.2    89  GLN89       0.2608
     18  OE1       11.5010    4.5510   11.2600 O.2    89  GLN89      -0.2717
     19  NE2       13.3230    5.7640   11.6840 N.am   89  GLN89      -0.0878
     20  N          9.9770    1.2920   10.9790 N.3    91  HIS91      -0.1241
     21  CA        10.8430    0.3190   10.3680 C.3    91  HIS91       0.1621
     22  C         10.7720   -0.9820   11.1950 C.2    91  HIS91       0.2264
     23  O         10.1490   -0.9930   12.2580 O.2    91  HIS91      -0.2867
     24  CB        12.3200    0.8100   10.2850 C.3    91  HIS91       0.0745
     25  CG        12.8470    1.0880   11.6630 C.ar   91  HIS91       0.0817
     26  ND1       12.6840    2.3020   12.3130 N.ar   91  HIS91      -0.2268
     27  CD2       13.4680    0.2520   12.5450 C.ar   91  HIS91       0.1154
     28  CE1       13.2150    2.1690   13.5490 C.ar   91  HIS91       0.1986
     29  NE2       13.6960    0.9400   13.7250 N.ar   91  HIS91      -0.2212
     30  N         13.0720   -4.7280   12.4890 N.3    93  HIS93      -0.1241
     31  CA        14.2520   -5.5410   12.6620 C.3    93  HIS93       0.1621
     32  C         13.8260   -6.9850   12.5270 C.2    93  HIS93       0.2264
     33  O         12.7540   -7.3310   13.0200 O.2    93  HIS93      -0.2867
     34  CB        14.9100   -5.3140   14.0410 C.3    93  HIS93       0.0745
     35  CG        15.2040   -3.8550   14.3070 C.ar   93  HIS93       0.0817
     36  ND1       16.4550   -3.3140   14.1250 N.ar   93  HIS93      -0.2268
     37  CD2       14.4000   -2.8510   14.7020 C.ar   93  HIS93       0.1154
     38  CE1       16.3790   -2.0200   14.4340 C.ar   93  HIS93       0.1986
     39  NE2       15.1480   -1.6930   14.7790 N.ar   93  HIS93      -0.2212
     40  N          9.1510   -0.9080   14.9090 N.3   116  HIS116     -0.1241
     41  CA         9.3890    0.3080   15.6600 C.3   116  HIS116      0.1621
     42  C          8.7140    1.4940   14.9660 C.2   116  HIS116      0.2264
     43  O          9.1040    1.8470   13.8490 O.2   116  HIS116     -0.2867
     44  CB        10.9070    0.6260   15.7340 C.3   116  HIS116      0.0745
     45  CG        11.6100   -0.3590   16.6460 C.ar  116  HIS116      0.0817
     46  ND1       12.9890   -0.5570   16.6320 N.ar  116  HIS116     -0.2268
     47  CD2       11.0810   -1.2090   17.5660 C.ar  116  HIS116      0.1154
     48  CE1       13.2390   -1.4800   17.5300 C.ar  116  HIS116      0.1986
     49  NE2       12.1280   -1.8890   18.1170 N.ar  116  HIS116     -0.2212
     50  N          8.4490    5.2830   15.3070 N.3   118  VAL118     -0.1245
     51  CA         9.2750    6.3100   15.9270 C.3   118  VAL118      0.1561
     52  C          8.5790    7.6680   15.9300 C.2   118  VAL118      0.2260
     53  O          8.1180    8.1350   14.9000 O.2   118  VAL118     -0.2867
     54  CB        10.6320    6.4390   15.1590 C.3   118  VAL118      0.0252
     55  CG1       11.5370    7.4910   15.8070 C.3   118  VAL118      0.0019
     56  CG2       11.3440    5.0950   15.0670 C.3   118  VAL118      0.0019
     57  N         12.8800   16.7480   14.8420 N.3   127  PHE127     -0.1241
     58  CA        13.4680   15.4730   15.2610 C.3   127  PHE127      0.1605
     59  C         14.9250   15.6780   15.6860 C.2   127  PHE127      0.2264
     60  O         15.3570   15.0950   16.6470 O.2   127  PHE127     -0.2867
     61  CB        13.3780   14.5080   14.0620 C.3   127  PHE127      0.0534
     62  CG        14.0140   13.1670   14.3700 C.ar  127  PHE127     -0.0203
     63  CD1       13.2460   12.1780   14.9980 C.ar  127  PHE127     -0.0042
     64  CD2       15.3340   12.8640   14.0810 C.ar  127  PHE127     -0.0042
     65  CE1       13.7690   10.9440   15.2750 C.ar  127  PHE127     -0.0003
     66  CE2       15.8480   11.6260   14.3790 C.ar  127  PHE127     -0.0003
     67  CZ        15.0840   10.6510   14.9740 C.ar  127  PHE127     -0.0000
     68  N          9.2130    5.4840   21.1700 N.3   139  VAL139     -0.1245
     69  CA         9.1730    4.4150   20.1590 C.3   139  VAL139      0.1561
     70  C          8.1750    3.3770   20.6470 C.2   139  VAL139      0.2260
     71  O          8.3080    2.8430   21.7640 O.2   139  VAL139     -0.2867
     72  CB        10.5500    3.8470   19.8180 C.3   139  VAL139      0.0252
     73  CG1       10.4080    2.7910   18.7200 C.3   139  VAL139      0.0019
     74  CG2       11.5070    4.9240   19.3730 C.3   139  VAL139      0.0019
     75  N         18.0380    4.8470   21.2660 N.3   194  LEU194     -0.1231
     76  CA        18.0300    4.3050   19.9200 C.3   194  LEU194      0.1693
     77  C         18.8010    2.9790   19.9530 C.2   194  LEU194      0.2593
     78  O         19.7990    2.8430   20.6410 O.2   194  LEU194     -0.2718
     79  CB        18.7740    5.2490   18.9710 C.3   194  LEU194      0.0284
     80  CG        18.2500    6.6820   18.8530 C.3   194  LEU194      0.0019
     81  CD1       19.1580    7.4830   17.8900 C.3   194  LEU194      0.0001
     82  CD2       16.8120    6.6670   18.4040 C.3   194  LEU194      0.0001
     83  N         18.3410    1.9980   19.1260 N.am  195  THR195     -0.1939
     84  CA        19.0530    0.7160   19.0460 C.3   195  THR195      0.2028
     85  C         20.0280    0.6500   17.8640 C.2   195  THR195      0.2643
     86  O         20.6830   -0.3770   17.7070 O.2   195  THR195     -0.2714
     87  CB        18.0910   -0.4530   18.9640 C.3   195  THR195      0.1808
     88  OG1       17.4700   -0.4230   17.6700 O.3   195  THR195     -0.2208
     89  CG2       17.0300   -0.4490   20.0760 C.3   195  THR195      0.0379
     90  N         20.1230    1.7360   17.1060 N.am  196  THR196     -0.1937
     91  CA        21.1570    1.8580   16.0770 C.3   196  THR196      0.2013
     92  C         22.0010    3.0710   16.3870 C.2   196  THR196      0.2484
     93  O         21.5310    4.0380   16.9990 O.2   196  THR196     -0.2729
     94  CB        20.5420    2.0640   14.6980 C.3   196  THR196      0.1807
     95  OG1       19.5320    3.1030   14.7350 O.3   196  THR196     -0.2208
     96  CG2       19.8530    0.7800   14.2670 C.3   196  THR196      0.0379
     97  N         23.2750    3.0490   15.9680 N.am  197  PRO197     -0.2715
     98  CA        24.1000    4.2560   16.0630 C.3   197  PRO197      0.1521
     99  C         23.3460    5.4570   15.5290 C.2   197  PRO197      0.2440
    100  O         22.7240    5.3590   14.4510 O.2   197  PRO197     -0.2731
    101  CB        25.3270    3.8460   15.1960 C.3   197  PRO197      0.0310
    102  CG        25.4680    2.3770   15.4710 C.3   197  PRO197      0.0237
    103  CD        24.0250    1.9010   15.4290 C.3   197  PRO197      0.0939
    104  N         23.3820    6.6070   16.2050 N.am  198  PRO198     -0.2727
    105  CA        24.2800    6.9580   17.3220 C.3   198  PRO198      0.1402
    106  C         23.8370    6.5180   18.7000 C.2   198  PRO198      0.2269
    107  O         24.5060    6.9510   19.6590 O.2   198  PRO198     -0.2865
    108  CB        24.3570    8.4830   17.1890 C.3   198  PRO198      0.0296
    109  CG        23.0390    8.8790   16.6190 C.3   198  PRO198      0.0237
    110  CD        22.6330    7.7950   15.6980 C.3   198  PRO198      0.0939
    111  N         10.5920    3.9810   25.7020 N.3   205  TRP205     -0.1241
    112  CA        10.1150    2.8030   24.9930 C.3   205  TRP205      0.1605
    113  C          8.7630    2.3690   25.5080 C.2   205  TRP205      0.2264
    114  O          8.5200    2.3330   26.7370 O.2   205  TRP205     -0.2867
    115  CB        11.1230    1.6120   25.2100 C.3   205  TRP205      0.0550
    116  CG        12.2620    1.7640   24.2540 C.ar  205  TRP205      0.0003
    117  CD1       13.4740    2.3470   24.4540 C.ar  205  TRP205      0.0946
    118  CD2       12.2140    1.3370   22.8870 C.ar  205  TRP205      0.0152
    119  NE1       14.2070    2.3040   23.2880 N.ar  205  TRP205     -0.2442
    120  CE2       13.4730    1.6960   22.3230 C.ar  205  TRP205      0.0810
    121  CE3       11.2670    0.6910   22.0850 C.ar  205  TRP205      0.0012
    122  CZ2       13.7700    1.4110   20.9650 C.ar  205  TRP205      0.0191
    123  CZ3       11.5630    0.4210   20.7710 C.ar  205  TRP205      0.0001
    124  CH2       12.8180    0.7900   20.2360 C.ar  205  TRP205      0.0015
@<TRIPOS>BOND
     1     1     2    1
     2     2     3    1
     3     2     5    1
     4     3     4    2
     5     8     6   ar
     6     8    10   ar
     7     5     6    1
     8     6     7   ar
     9    10     9   ar
    10     7     9   ar
    11    15    12    1
    12    15    16    1
    13    24    21    1
    14    24    25    1
    15    21    20    1
    16    21    22    1
    17    12    13    1
    18    12    11    1
    19    16    17    1
    20    22    23    2
    21    13    14    2
    22    18    17    2
    23    17    19   am
    24    25    26   ar
    25    25    27   ar
    26    26    28   ar
    27    30    31    1
    28    32    31    1
    29    32    33    2
    30    27    29   ar
    31    31    34    1
    32    28    29   ar
    33    43    42    2
    34    34    35    1
    35    61    62    1
    36    61    58    1
    37    64    62   ar
    38    64    66   ar
    39    36    35   ar
    40    36    38   ar
    41    96    94    1
    42    35    37   ar
    43    62    63   ar
    44    66    67   ar
    45    38    39   ar
    46   100    99    2
    47    94    95    1
    48    94    91    1
    49    37    39   ar
    50    57    58    1
    51    53    52    2
    52    40    41    1
    53    42    41    1
    54    67    65   ar
    55    63    65   ar
    56    56    54    1
    57    54    55    1
    58    54    51    1
    59   101   102    1
    60   101    98    1
    61    58    59    1
    62    50    51    1
    63   103   102    1
    64   103    97    1
    65    99    98    1
    66    99   104   am
    67    41    44    1
    68    59    60    2
    69   110   104    1
    70   110   109    1
    71    44    45    1
    72    51    52    1
    73    97    98    1
    74    97    92   am
    75    91    92    1
    76    91    90    1
    77   104   105    1
    78    92    93    2
    79   109   108    1
    80    46    45   ar
    81    46    48   ar
    82    45    47   ar
    83    90    85   am
    84   108   105    1
    85   105   106    1
    86    48    49   ar
    87    47    49   ar
    88    88    87    1
    89    86    85    2
    90    85    84    1
    91    81    80    1
    92    82    80    1
    93   106   107    2
    94    73    72    1
    95    80    79    1
    96    87    84    1
    97    87    89    1
    98    79    76    1
    99    84    83    1
   100    83    77   am
   101    74    72    1
   102    72    69    1
   103    76    77    1
   104    76    75    1
   105    77    78    2
   106    69    70    1
   107    69    68    1
   108   124   123   ar
   109   124   122   ar
   110    70    71    2
   111   123   121   ar
   112   122   120   ar
   113   121   118   ar
   114   120   118   ar
   115   120   119   ar
   116   118   116   ar
   117   119   117   ar
   118   116   117   ar
   119   116   115    1
   120   112   115    1
   121   112   113    1
   122   112   111    1
   123   113   114    2
