@<TRIPOS>MOLECULE
tmp/4fvoA01.pdb
 128 128 0 0 0
SMALL
GASTEIGER

@<TRIPOS>ATOM
      1  N         29.1070    1.6840   10.3500 N.3     2  TRP2       -0.1241
      2  CA        28.5800    0.6580   11.2510 C.3     2  TRP2        0.1605
      3  C         27.6120   -0.2060   10.4570 C.2     2  TRP2        0.2264
      4  O         27.0200    0.2370    9.4540 O.2     2  TRP2       -0.2867
      5  CB        27.9130    1.2880   12.4600 C.3     2  TRP2        0.0550
      6  CG        26.6650    2.0550   12.1150 C.ar    2  TRP2        0.0003
      7  CD1       26.5530    3.3800   11.7860 C.ar    2  TRP2        0.0946
      8  CD2       25.3050    1.5530   12.0910 C.ar    2  TRP2        0.0152
      9  NE1       25.2400    3.7000   11.5510 N.ar    2  TRP2       -0.2442
     10  CE2       24.4460    2.5990   11.7320 C.ar    2  TRP2        0.0810
     11  CE3       24.8140    0.2400   12.3530 C.ar    2  TRP2        0.0012
     12  CZ2       23.0540    2.4180   11.6150 C.ar    2  TRP2        0.0191
     13  CZ3       23.4240    0.0860   12.2340 C.ar    2  TRP2        0.0001
     14  CH2       22.5820    1.1670   11.8680 C.ar    2  TRP2        0.0015
     15  N          8.5870    8.0700   11.3420 N.3    89  GLN89      -0.1245
     16  CA         8.8810    6.9310   10.4560 C.3    89  GLN89       0.1566
     17  C          8.6200    5.6630   11.2580 C.2    89  GLN89       0.2260
     18  O          8.6190    5.6710   12.4850 O.2    89  GLN89      -0.2867
     19  CB        10.3240    6.9680    9.9450 C.3    89  GLN89       0.0367
     20  CG        11.3960    7.0640   11.0320 C.3    89  GLN89       0.0905
     21  CD        12.1200    5.7460   11.2810 C.2    89  GLN89       0.2608
     22  OE1       11.6000    4.6630   11.2930 O.2    89  GLN89      -0.2717
     23  NE2       13.4120    5.9200   11.5860 N.am   89  GLN89      -0.0878
     24  N         10.0140    1.3680   10.9820 N.3    91  HIS91      -0.1241
     25  CA        10.8760    0.3860   10.3770 C.3    91  HIS91       0.1621
     26  C         10.8090   -0.9000   11.1890 C.2    91  HIS91       0.2264
     27  O         10.1660   -0.9250   12.2640 O.2    91  HIS91      -0.2867
     28  CB        12.3470    0.8910   10.2880 C.3    91  HIS91       0.0745
     29  CG        12.8850    1.1400   11.6500 C.ar   91  HIS91       0.0817
     30  ND1       12.7250    2.3500   12.2890 N.ar   91  HIS91      -0.2268
     31  CD2       13.4840    0.3240   12.5340 C.ar   91  HIS91       0.1154
     32  CE1       13.2590    2.2260   13.5250 C.ar   91  HIS91       0.1986
     33  NE2       13.7270    0.9810   13.7050 N.ar   91  HIS91      -0.2212
     34  N         13.0860   -4.6490   12.4640 N.3    93  HIS93      -0.1241
     35  CA        14.2660   -5.4570   12.6450 C.3    93  HIS93       0.1621
     36  C         13.8350   -6.9070   12.5030 C.2    93  HIS93       0.2264
     37  O         12.7590   -7.2710   13.0130 O.2    93  HIS93      -0.2867
     38  CB        14.9150   -5.2320   14.0210 C.3    93  HIS93       0.0745
     39  CG        15.2220   -3.7990   14.2900 C.ar   93  HIS93       0.0817
     40  ND1       16.4540   -3.2430   14.0850 N.ar   93  HIS93      -0.2268
     41  CD2       14.4320   -2.7800   14.6920 C.ar   93  HIS93       0.1154
     42  CE1       16.3900   -1.9380   14.3880 C.ar   93  HIS93       0.1986
     43  NE2       15.1740   -1.6050   14.7500 N.ar   93  HIS93      -0.2212
     44  N          9.1820   -0.8350   14.9090 N.3   116  HIS116     -0.1241
     45  CA         9.4100    0.3930   15.6710 C.3   116  HIS116      0.1621
     46  C          8.7440    1.5610   14.9840 C.2   116  HIS116      0.2264
     47  O          9.1270    1.9160   13.8440 O.2   116  HIS116     -0.2867
     48  CB        10.9160    0.6900   15.7500 C.3   116  HIS116      0.0745
     49  CG        11.6340   -0.2890   16.6450 C.ar  116  HIS116      0.0817
     50  ND1       12.9940   -0.4810   16.6180 N.ar  116  HIS116     -0.2268
     51  CD2       11.1050   -1.1360   17.5820 C.ar  116  HIS116      0.1154
     52  CE1       13.2720   -1.4120   17.5100 C.ar  116  HIS116      0.1986
     53  NE2       12.1460   -1.8100   18.1300 N.ar  116  HIS116     -0.2212
     54  N          8.5080    5.3680   15.3140 N.3   118  VAL118     -0.1245
     55  CA         9.3360    6.3900   15.9650 C.3   118  VAL118      0.1561
     56  C          8.6290    7.7370   15.9780 C.2   118  VAL118      0.2260
     57  O          8.1700    8.2140   14.9170 O.2   118  VAL118     -0.2867
     58  CB        10.6750    6.5320   15.1690 C.3   118  VAL118      0.0252
     59  CG1       11.5770    7.5600   15.8320 C.3   118  VAL118      0.0019
     60  CG2       11.3690    5.1700   15.0770 C.3   118  VAL118      0.0019
     61  N         12.9520   16.8130   14.8500 N.3   127  PHE127     -0.1241
     62  CA        13.5430   15.5470   15.2800 C.3   127  PHE127      0.1605
     63  C         15.0090   15.7020   15.7200 C.2   127  PHE127      0.2264
     64  O         15.4250   15.1020   16.7050 O.2   127  PHE127     -0.2867
     65  CB        13.3840   14.5540   14.1060 C.3   127  PHE127      0.0534
     66  CG        14.0250   13.2070   14.3900 C.ar  127  PHE127     -0.0203
     67  CD1       13.2900   12.2060   15.0300 C.ar  127  PHE127     -0.0042
     68  CD2       15.3460   12.8960   14.0550 C.ar  127  PHE127     -0.0042
     69  CE1       13.7920   10.9720   15.3300 C.ar  127  PHE127     -0.0003
     70  CE2       15.8570   11.6580   14.3630 C.ar  127  PHE127     -0.0003
     71  CZ        15.1070   10.6750   14.9520 C.ar  127  PHE127     -0.0000
     72  N          9.2620    5.5530   21.2110 N.3   139  VAL139     -0.1245
     73  CA         9.2260    4.5140   20.1830 C.3   139  VAL139      0.1561
     74  C          8.2240    3.4510   20.6630 C.2   139  VAL139      0.2260
     75  O          8.3470    2.9350   21.7710 O.2   139  VAL139     -0.2867
     76  CB        10.5850    3.9280   19.8460 C.3   139  VAL139      0.0252
     77  CG1       10.4360    2.8980   18.7160 C.3   139  VAL139      0.0019
     78  CG2       11.5510    5.0210   19.3820 C.3   139  VAL139      0.0019
     79  N         18.0650    4.9150   21.3200 N.3   194  LEU194     -0.1231
     80  CA        18.0670    4.3530   19.9790 C.3   194  LEU194      0.1693
     81  C         18.8070    3.0300   20.0050 C.2   194  LEU194      0.2593
     82  O         19.8460    2.9190   20.6840 O.2   194  LEU194     -0.2718
     83  CB        18.7610    5.3030   19.0000 C.3   194  LEU194      0.0284
     84  CG        18.2560    6.7470   18.9210 C.3   194  LEU194      0.0019
     85  CD1       19.1420    7.5790   17.9780 C.3   194  LEU194      0.0001
     86  CD2       16.8110    6.7230   18.5310 C.3   194  LEU194      0.0001
     87  N         18.3550    2.0580   19.1890 N.am  195  THR195     -0.1939
     88  CA        19.0620    0.7840   19.1080 C.3   195  THR195      0.2028
     89  C         20.0530    0.7030   17.9440 C.2   195  THR195      0.2643
     90  O         20.7030   -0.3260   17.7890 O.2   195  THR195     -0.2714
     91  CB        18.0800   -0.3920   19.0080 C.3   195  THR195      0.1808
     92  OG1       17.4890   -0.3710   17.7270 O.3   195  THR195     -0.2208
     93  CG2       17.0150   -0.4060   20.1110 C.3   195  THR195      0.0379
     94  N         20.1430    1.7660   17.1550 N.am  196  THR196     -0.1937
     95  CA        21.1770    1.8960   16.1590 C.3   196  THR196      0.2013
     96  C         22.0100    3.1340   16.4730 C.2   196  THR196      0.2484
     97  O         21.5260    4.0810   17.0880 O.2   196  THR196     -0.2729
     98  CB        20.6510    2.0560   14.7330 C.3   196  THR196      0.1807
     99  OG1       19.8810    3.2280   14.5880 O.3   196  THR196     -0.2208
    100  CG2       19.7580    0.9080   14.3310 C.3   196  THR196      0.0379
    101  N         23.2690    3.1330   16.0110 N.am  197  PRO197     -0.2715
    102  CA        24.0730    4.3580   16.0970 C.3   197  PRO197      0.1521
    103  C         23.2840    5.5410   15.5760 C.2   197  PRO197      0.2440
    104  O         22.5720    5.4200   14.5400 O.2   197  PRO197     -0.2731
    105  CB        25.2960    4.0120   15.2020 C.3   197  PRO197      0.0310
    106  CG        25.4690    2.5410   15.4800 C.3   197  PRO197      0.0237
    107  CD        24.0500    2.0160   15.4350 C.3   197  PRO197      0.0939
    108  N         23.3230    6.6900   16.2450 N.am  198  PRO198     -0.2727
    109  CA        24.2500    7.0580   17.3360 C.3   198  PRO198      0.1402
    110  C         23.8510    6.6000   18.7550 C.2   198  PRO198      0.2269
    111  O         24.5190    7.0470   19.6970 O.2   198  PRO198     -0.2865
    112  CB        24.2950    8.5790   17.1980 C.3   198  PRO198      0.0296
    113  CG        22.9270    8.9650   16.6750 C.3   198  PRO198      0.0237
    114  CD        22.5500    7.8770   15.7400 C.3   198  PRO198      0.0939
    115  N         10.6200    4.0520   25.7330 N.3   205  TRP205     -0.1241
    116  CA        10.1580    2.8790   25.0140 C.3   205  TRP205      0.1605
    117  C          8.7940    2.4520   25.5270 C.2   205  TRP205      0.2264
    118  O          8.5630    2.4030   26.7570 O.2   205  TRP205     -0.2867
    119  CB        11.1530    1.6780   25.2450 C.3   205  TRP205      0.0550
    120  CG        12.2930    1.8300   24.2560 C.ar  205  TRP205      0.0003
    121  CD1       13.5290    2.4190   24.4740 C.ar  205  TRP205      0.0946
    122  CD2       12.2290    1.3960   22.8950 C.ar  205  TRP205      0.0152
    123  NE1       14.2280    2.3920   23.2880 N.ar  205  TRP205     -0.2442
    124  CE2       13.4850    1.7700   22.3250 C.ar  205  TRP205      0.0810
    125  CE3       11.2630    0.7570   22.1160 C.ar  205  TRP205      0.0012
    126  CZ2       13.7580    1.4890   20.9870 C.ar  205  TRP205      0.0191
    127  CZ3       11.5640    0.4900   20.7840 C.ar  205  TRP205      0.0001
    128  CH2       12.8050    0.8670   20.2480 C.ar  205  TRP205      0.0015
@<TRIPOS>BOND
     1     4     3    2
     2    19    16    1
     3    19    20    1
     4    28    25    1
     5    28    29    1
     6     1     2    1
     7    25    24    1
     8    25    26    1
     9    16    17    1
    10    16    15    1
    11     3     2    1
    12    20    21    1
    13    26    27    2
    14     2     5    1
    15    17    18    2
    16    21    22    2
    17    21    23   am
    18     9    10   ar
    19     9     7   ar
    20    12    10   ar
    21    12    14   ar
    22    29    30   ar
    23    29    31   ar
    24    10     8   ar
    25     7     6   ar
    26    14    13   ar
    27     8     6   ar
    28     8    11   ar
    29     6     5    1
    30    13    11   ar
    31    30    32   ar
    32    34    35    1
    33    36    35    1
    34    36    37    2
    35    31    33   ar
    36    35    38    1
    37    32    33   ar
    38    47    46    2
    39    38    39    1
    40    68    70   ar
    41    68    66   ar
    42    40    39   ar
    43    40    42   ar
    44    65    66    1
    45    65    62    1
    46    39    41   ar
    47   100    98    1
    48    70    71   ar
    49    42    43   ar
    50    66    67   ar
    51   104   103    2
    52    99    98    1
    53    41    43   ar
    54    98    95    1
    55    61    62    1
    56    44    45    1
    57    57    56    2
    58    71    69   ar
    59    46    45    1
    60    67    69   ar
    61    60    58    1
    62    58    59    1
    63    58    55    1
    64   105   106    1
    65   105   102    1
    66    62    63    1
    67    54    55    1
    68   107   106    1
    69   107   101    1
    70   103   102    1
    71   103   108   am
    72    45    48    1
    73    63    64    2
    74   114   108    1
    75   114   113    1
    76    48    49    1
    77    55    56    1
    78   101   102    1
    79   101    96   am
    80    95    96    1
    81    95    94    1
    82   108   109    1
    83    96    97    2
    84    50    49   ar
    85    50    52   ar
    86    49    51   ar
    87   113   112    1
    88    94    89   am
    89   112   109    1
    90   109   110    1
    91    52    53   ar
    92    51    53   ar
    93    92    91    1
    94    90    89    2
    95    89    88    1
    96    85    84    1
    97    86    84    1
    98    77    76    1
    99   110   111    2
   100    84    83    1
   101    83    80    1
   102    91    88    1
   103    91    93    1
   104    88    87    1
   105    87    81   am
   106    78    76    1
   107    76    73    1
   108    80    81    1
   109    80    79    1
   110    81    82    2
   111    73    74    1
   112    73    72    1
   113   128   127   ar
   114   128   126   ar
   115    74    75    2
   116   127   125   ar
   117   126   124   ar
   118   125   122   ar
   119   124   122   ar
   120   124   123   ar
   121   122   120   ar
   122   123   121   ar
   123   120   121   ar
   124   120   119    1
   125   116   119    1
   126   116   117    1
   127   116   115    1
   128   117   118    2
