@<TRIPOS>MOLECULE
tmp/4fvtA00.pdb
 135 135 0 0 0
SMALL
GASTEIGER

@<TRIPOS>ATOM
      1  N         22.8770   37.9240  -19.0310 N.3    56  GLU56      -0.1245
      2  CA        24.0550   37.1170  -19.3460 C.3    56  GLU56       0.1567
      3  C         25.3630   37.8620  -19.0190 C.2    56  GLU56       0.2260
      4  O         26.3570   37.2260  -18.6940 O.2    56  GLU56      -0.2867
      5  CB        24.0470   36.7110  -20.8370 C.3    56  GLU56       0.0388
      6  CG        24.1150   35.1890  -21.1580 C.3    56  GLU56       0.1160
      7  CD        24.4820   34.8640  -22.6550 C.2    56  GLU56       0.3649
      8  OE1       24.4050   33.6760  -23.0670 O.co2  56  GLU56      -0.2457
      9  OE2       24.8640   35.7860  -23.4160 O.co2  56  GLU56      -0.2457
     10  N         27.8020   37.1220  -16.0720 N.3    59  PHE59      -0.1241
     11  CA        28.7010   35.9630  -16.2520 C.3    59  PHE59       0.1605
     12  C         29.6860   36.0560  -17.4380 C.2    59  PHE59       0.2264
     13  O         30.1880   35.0460  -17.9480 O.2    59  PHE59      -0.2867
     14  CB        27.9440   34.6320  -16.1750 C.3    59  PHE59       0.0534
     15  CG        27.2260   34.4560  -14.8880 C.ar   59  PHE59      -0.0203
     16  CD1       27.8930   34.6440  -13.6860 C.ar   59  PHE59      -0.0042
     17  CD2       25.8670   34.1830  -14.8630 C.ar   59  PHE59      -0.0042
     18  CE1       27.2240   34.5250  -12.4690 C.ar   59  PHE59      -0.0003
     19  CE2       25.1910   34.0540  -13.6460 C.ar   59  PHE59      -0.0003
     20  CZ        25.8740   34.2300  -12.4480 C.ar   59  PHE59      -0.0000
     21  N         24.8960   27.9440   -8.3030 N.3   109  ILE109     -0.1245
     22  CA        26.0560   28.4930   -7.6380 C.3   109  ILE109      0.1561
     23  C         25.8130   28.9330   -6.1690 C.2   109  ILE109      0.2260
     24  O         26.7120   29.4730   -5.5120 O.2   109  ILE109     -0.2867
     25  CB        26.7030   29.5770   -8.5320 C.3   109  ILE109      0.0252
     26  CG1       25.7150   30.7160   -8.8350 C.3   109  ILE109      0.0019
     27  CG2       27.1950   28.9530   -9.8510 C.3   109  ILE109      0.0019
     28  CD1       26.4090   31.9770   -9.3300 C.3   109  ILE109      0.0001
     29  N         28.9270   24.5990  -12.3990 N.3   127  HIS127     -0.1241
     30  CA        29.1310   26.0280  -12.6760 C.3   127  HIS127      0.1621
     31  C         30.0610   26.6980  -11.6960 C.2   127  HIS127      0.2264
     32  O         30.1890   27.9300  -11.6710 O.2   127  HIS127     -0.2867
     33  CB        27.8170   26.7690  -12.8780 C.3   127  HIS127      0.0745
     34  CG        27.1180   26.3610  -14.1310 C.ar  127  HIS127      0.0817
     35  ND1       25.8570   26.7760  -14.4660 N.ar  127  HIS127     -0.2268
     36  CD2       27.5330   25.5470  -15.1350 C.ar  127  HIS127      0.1154
     37  CE1       25.5140   26.2410  -15.6310 C.ar  127  HIS127      0.1986
     38  NE2       26.5120   25.4900  -16.0480 N.ar  127  HIS127     -0.2212
     39  N         33.4550   30.7650   -9.7390 N.3   170  ILE170     -0.1231
     40  CA        32.3210   30.6630  -10.6740 C.3   170  ILE170      0.1692
     41  C         32.7300   30.5490  -12.1490 C.2   170  ILE170      0.2592
     42  O         33.5680   31.2910  -12.6270 O.2   170  ILE170     -0.2718
     43  CB        31.3670   31.8750  -10.5190 C.3   170  ILE170      0.0266
     44  CG1       30.9520   32.0360   -9.0430 C.3   170  ILE170      0.0019
     45  CG2       30.1610   31.7690  -11.4550 C.3   170  ILE170      0.0020
     46  CD1       30.7230   30.7410   -8.3080 C.3   170  ILE170      0.0001
     47  N         32.0920   29.6370  -12.8740 N.am  171  VAL171     -0.1966
     48  CA        32.3350   29.4710  -14.3080 C.3   171  VAL171      0.1727
     49  C         31.6260   30.5470  -15.1430 C.2   171  VAL171      0.2616
     50  O         30.3940   30.6540  -15.1310 O.2   171  VAL171     -0.2715
     51  CB        31.8640   28.0710  -14.7990 C.3   171  VAL171      0.0290
     52  CG1       32.1420   27.8840  -16.2970 C.3   171  VAL171      0.0023
     53  CG2       32.5230   26.9640  -13.9820 C.3   171  VAL171      0.0023
     54  N         32.4040   31.3320  -15.8920 N.am  172  PHE172     -0.1960
     55  CA        31.8010   32.3240  -16.7880 C.3   172  PHE172      0.1771
     56  C         31.4800   31.7250  -18.1410 C.2   172  PHE172      0.2620
     57  O         31.8630   30.5920  -18.4220 O.2   172  PHE172     -0.2715
     58  CB        32.7060   33.5470  -16.9180 C.3   172  PHE172      0.0574
     59  CG        32.5260   34.5370  -15.8010 C.ar  172  PHE172     -0.0200
     60  CD1       32.2670   34.0940  -14.5100 C.ar  172  PHE172     -0.0042
     61  CD2       32.5870   35.8970  -16.0400 C.ar  172  PHE172     -0.0042
     62  CE1       32.0820   34.9850  -13.4830 C.ar  172  PHE172     -0.0003
     63  CE2       32.4130   36.7960  -15.0200 C.ar  172  PHE172     -0.0003
     64  CZ        32.1600   36.3480  -13.7360 C.ar  172  PHE172     -0.0000
     65  N         30.7970   32.4780  -18.9950 N.am  173  PHE173     -0.1960
     66  CA        30.4570   31.9420  -20.3090 C.3   173  PHE173      0.1771
     67  C         31.6830   31.8030  -21.1890 C.2   173  PHE173      0.2620
     68  O         32.6010   32.6380  -21.1610 O.2   173  PHE173     -0.2715
     69  CB        29.3510   32.7350  -20.9990 C.3   173  PHE173      0.0574
     70  CG        28.0130   32.5720  -20.3350 C.ar  173  PHE173     -0.0200
     71  CD1       27.3330   31.3550  -20.4030 C.ar  173  PHE173     -0.0042
     72  CD2       27.4400   33.6230  -19.6100 C.ar  173  PHE173     -0.0042
     73  CE1       26.1060   31.1980  -19.7710 C.ar  173  PHE173     -0.0003
     74  CE2       26.2240   33.4650  -18.9870 C.ar  173  PHE173     -0.0003
     75  CZ        25.5570   32.2550  -19.0640 C.ar  173  PHE173     -0.0000
     76  N         31.7040   30.7190  -21.9510 N.am  174  GLY174     -0.1940
     77  CA        32.8570   30.4110  -22.7640 C.3   174  GLY174      0.2014
     78  C         33.9570   29.7110  -21.9940 C.2   174  GLY174      0.2639
     79  O         34.9510   29.3220  -22.5850 O.2   174  GLY174     -0.2714
     80  N         33.8130   29.5600  -20.6800 N.am  175  GLU175     -0.1963
     81  CA        34.8100   28.7960  -19.9300 C.3   175  GLU175      0.1718
     82  C         34.4000   27.3100  -19.8630 C.2   175  GLU175      0.2458
     83  O         33.2170   26.9720  -19.8320 O.2   175  GLU175     -0.2730
     84  CB        35.0470   29.3580  -18.5150 C.3   175  GLU175      0.0428
     85  CG        35.7160   30.7260  -18.4010 C.3   175  GLU175      0.1163
     86  CD        35.9740   31.1490  -16.9180 C.2   175  GLU175      0.3649
     87  OE1       35.2660   30.6610  -15.9870 O.co2 175  GLU175     -0.2457
     88  OE2       36.8980   31.9750  -16.6720 O.co2 175  GLU175     -0.2457
     89  N         35.3830   26.4140  -19.8620 N.am  176  PRO176     -0.2716
     90  CA        35.0830   24.9890  -19.6980 C.3   176  PRO176      0.1536
     91  C         34.6320   24.7070  -18.2750 C.2   176  PRO176      0.2598
     92  O         34.9340   25.4800  -17.3620 O.2   176  PRO176     -0.2715
     93  CB        36.4390   24.3090  -19.9370 C.3   176  PRO176      0.0310
     94  CG        37.2870   25.3500  -20.6190 C.3   176  PRO176      0.0237
     95  CD        36.8060   26.6720  -20.1200 C.3   176  PRO176      0.0939
     96  N         33.9470   23.5890  -18.0820 N.am  177  LEU177     -0.1978
     97  CA        33.4450   23.2210  -16.7730 C.3   177  LEU177      0.1596
     98  C         34.5740   22.6790  -15.8970 C.2   177  LEU177      0.2287
     99  O         35.6140   22.2900  -16.4040 O.2   177  LEU177     -0.2864
    100  CB        32.3400   22.1950  -16.9480 C.3   177  LEU177      0.0297
    101  CG        31.2170   22.7320  -17.8330 C.3   177  LEU177      0.0022
    102  CD1       29.9860   21.8380  -17.7360 C.3   177  LEU177      0.0001
    103  CD2       30.8650   24.1780  -17.4570 C.3   177  LEU177      0.0001
    104  N         18.8690   24.4450  -20.6370 N.3   202  GLU202     -0.1231
    105  CA        19.4010   25.3240  -21.6740 C.3   202  GLU202      0.1699
    106  C         20.9120   25.6010  -21.6070 C.2   202  GLU202      0.2592
    107  O         21.4670   26.2350  -22.5010 O.2   202  GLU202     -0.2718
    108  CB        18.6110   26.6400  -21.7000 C.3   202  GLU202      0.0402
    109  CG        17.2520   26.5060  -22.3890 C.3   202  GLU202      0.1161
    110  CD        16.1870   27.4380  -21.8250 C.2   202  GLU202      0.3649
    111  OE1       16.5300   28.2980  -20.9720 O.co2 202  GLU202     -0.2457
    112  OE2       15.0060   27.2970  -22.2390 O.co2 202  GLU202     -0.2457
    113  N         21.5920   25.1220  -20.5730 N.am  203  VAL203     -0.1966
    114  CA        23.0130   25.4360  -20.4500 C.3   203  VAL203      0.1727
    115  C         23.9100   24.2140  -20.6320 C.2   203  VAL203      0.2616
    116  O         23.7450   23.1930  -19.9650 O.2   203  VAL203     -0.2715
    117  CB        23.3340   26.1800  -19.1440 C.3   203  VAL203      0.0290
    118  CG1       24.7010   26.8580  -19.2420 C.3   203  VAL203      0.0023
    119  CG2       22.2620   27.2140  -18.8720 C.3   203  VAL203      0.0023
    120  N         24.8770   24.3500  -21.5370 N.am  204  GLU204     -0.1964
    121  CA        25.6850   23.2310  -22.0100 C.3   204  GLU204      0.1718
    122  C         27.1330   23.3660  -21.5550 C.2   204  GLU204      0.2458
    123  O         27.5990   24.4820  -21.2720 O.2   204  GLU204     -0.2730
    124  CB        25.6310   23.1600  -23.5360 C.3   204  GLU204      0.0428
    125  CG        24.2780   22.8130  -24.0920 C.3   204  GLU204      0.1163
    126  CD        24.0080   21.3390  -23.9990 C.2   204  GLU204      0.3649
    127  OE1       24.8590   20.6260  -23.4220 O.co2 204  GLU204     -0.2457
    128  OE2       22.9560   20.8900  -24.5040 O.co2 204  GLU204     -0.2457
    129  N         27.8630   22.2310  -21.4970 N.am  205  PRO205     -0.2727
    130  CA        27.4560   20.8510  -21.8510 C.3   205  PRO205      0.1402
    131  C         26.4440   20.2120  -20.9010 C.2   205  PRO205      0.2269
    132  O         25.8680   19.1660  -21.2390 O.2   205  PRO205     -0.2865
    133  CB        28.7710   20.0620  -21.8170 C.3   205  PRO205      0.0296
    134  CG        29.6920   20.8760  -20.9360 C.3   205  PRO205      0.0237
    135  CD        29.2960   22.3160  -21.1420 C.3   205  PRO205      0.0939
@<TRIPOS>BOND
     1   128   126   ar
     2   125   126    1
     3   125   124    1
     4   126   127   ar
     5   124   121    1
     6     9     7   ar
     7     8     7   ar
     8    77    78    1
     9    77    76    1
    10     7     6    1
    11    79    78    2
    12   107   106    2
    13   109   110    1
    14   109   108    1
    15   112   110   ar
    16   121   122    1
    17   121   120    1
    18    78    80   am
    19    76    67   am
    20   130   133    1
    21   130   129    1
    22   130   131    1
    23   110   111   ar
    24   133   134    1
    25   108   105    1
    26   105   106    1
    27   105   104    1
    28   106   113   am
    29   122   129   am
    30   122   123    2
    31   120   115   am
    32   129   135    1
    33   132   131    2
    34    67    68    2
    35    67    66    1
    36     6     5    1
    37   135   134    1
    38    69    70    1
    39    69    66    1
    40     5     2    1
    41    80    81    1
    42   115   114    1
    43   115   116    2
    44    94    95    1
    45    94    93    1
    46   113   114    1
    47   114   117    1
    48    71    70   ar
    49    71    73   ar
    50    70    72   ar
    51    66    65    1
    52    95    89    1
    53    93    90    1
    54    81    82    1
    55    81    84    1
    56    82    89   am
    57    82    83    2
    58    89    90    1
    59    73    75   ar
    60    90    91    1
    61    72    74   ar
    62     2     1    1
    63     2     3    1
    64   118   117    1
    65   117   119    1
    66    75    74   ar
    67     3     4    2
    68    65    56   am
    69    84    85    1
    70    57    56    2
    71    85    86    1
    72    91    96   am
    73    91    92    2
    74    56    55    1
    75    96    97    1
    76    13    12    2
    77   101   102    1
    78   101   103    1
    79   101   100    1
    80    12    11    1
    81   100    97    1
    82    58    55    1
    83    58    59    1
    84    86    88   ar
    85    86    87   ar
    86    55    54    1
    87    97    98    1
    88    99    98    2
    89    52    51    1
    90    11    14    1
    91    11    10    1
    92    14    15    1
    93    38    37   ar
    94    38    36   ar
    95    61    59   ar
    96    61    63   ar
    97    54    49   am
    98    59    60   ar
    99    37    35   ar
   100    49    50    2
   101    49    48    1
   102    36    34   ar
   103    63    64   ar
   104    15    17   ar
   105    15    16   ar
   106    17    19   ar
   107    51    48    1
   108    51    53    1
   109    60    62   ar
   110    35    34   ar
   111    48    47    1
   112    34    33    1
   113    64    62   ar
   114    16    18   ar
   115    19    20   ar
   116    33    30    1
   117    47    41   am
   118    30    29    1
   119    30    31    1
   120    42    41    2
   121    18    20   ar
   122    41    40    1
   123    31    32    2
   124    45    43    1
   125    40    43    1
   126    40    39    1
   127    43    44    1
   128    27    25    1
   129    28    26    1
   130    44    46    1
   131    26    25    1
   132    25    22    1
   133    21    22    1
   134    22    23    1
   135    23    24    2
