@<TRIPOS>MOLECULE
tmp/4fvvB00.pdb
 109 102 0 0 0
SMALL
GASTEIGER

@<TRIPOS>ATOM
      1  N         17.1550   11.8040  -37.8770 N.3   246  ASN246     -0.1225
      2  CA        15.9560   11.7240  -37.0530 C.3   246  ASN246      0.1785
      3  C         16.2360   11.0390  -35.7200 C.2   246  ASN246      0.2597
      4  O         15.3510   10.9750  -34.8710 O.2   246  ASN246     -0.2718
      5  CB        14.8480   10.9470  -37.7780 C.3   246  ASN246      0.1169
      6  CG        14.1450   11.7680  -38.8470 C.2   246  ASN246      0.2627
      7  OD1       13.2570   11.2630  -39.5440 O.2   246  ASN246     -0.2716
      8  ND2       14.5290   13.0360  -38.9790 N.am  246  ASN246     -0.0877
      9  N         17.4490   10.5130  -35.5420 N.am  247  TYR247     -0.1976
     10  CA        17.8230    9.8260  -34.2960 C.3   247  TYR247      0.1639
     11  C         19.2900   10.0010  -33.8920 C.2   247  TYR247      0.2290
     12  O         20.0280    9.0200  -33.7470 O.2   247  TYR247     -0.2864
     13  CB        17.5200    8.3260  -34.3970 C.3   247  TYR247      0.0560
     14  CG        16.0660    8.0050  -34.6180 C.ar  247  TYR247     -0.0198
     15  CD1       15.5260    7.9740  -35.9040 C.ar  247  TYR247     -0.0009
     16  CD2       15.2280    7.7370  -33.5420 C.ar  247  TYR247     -0.0009
     17  CE1       14.1860    7.6790  -36.1120 C.ar  247  TYR247      0.0417
     18  CE2       13.8880    7.4420  -33.7350 C.ar  247  TYR247      0.0417
     19  CZ        13.3710    7.4110  -35.0210 C.ar  247  TYR247      0.1957
     20  OH        12.0430    7.0880  -35.2100 O.3   247  TYR247     -0.2866
     21  N          9.5620   -3.3920  -47.5530 N.3   322  LEU322     -0.1245
     22  CA        10.5610   -3.0960  -46.5350 C.3   322  LEU322      0.1561
     23  C         11.5610   -4.2360  -46.3720 C.2   322  LEU322      0.2260
     24  O         11.2150   -5.4110  -46.5180 O.2   322  LEU322     -0.2867
     25  CB         9.8730   -2.8250  -45.2010 C.3   322  LEU322      0.0270
     26  CG         9.6560   -1.3770  -44.7620 C.3   322  LEU322      0.0019
     27  CD1        9.2750   -0.5100  -45.9410 C.3   322  LEU322      0.0001
     28  CD2        8.5780   -1.3530  -43.6780 C.3   322  LEU322      0.0001
     29  N         16.2120    4.0380  -45.3800 N.3   371  SER371     -0.1202
     30  CA        15.4970    4.8560  -44.4180 C.3   371  SER371      0.2020
     31  C         15.7430    4.3370  -43.0050 C.2   371  SER371      0.2619
     32  O         16.8320    3.8700  -42.6900 O.2   371  SER371     -0.2717
     33  CB        13.9990    4.8630  -44.7240 C.3   371  SER371      0.2103
     34  OG        13.3150    5.7660  -43.8690 O.3   371  SER371     -0.2182
     35  N         14.7260    4.4120  -42.1590 N.am  372  ILE372     -0.1965
     36  CA        14.8530    3.9730  -40.7810 C.3   372  ILE372      0.1727
     37  C         13.4640    3.7490  -40.1790 C.2   372  ILE372      0.2617
     38  O         12.4660    4.2950  -40.6640 O.2   372  ILE372     -0.2715
     39  CB        15.6350    5.0340  -39.9610 C.3   372  ILE372      0.0290
     40  CG1       15.7930    4.5800  -38.5120 C.3   372  ILE372      0.0022
     41  CG2       14.9200    6.3750  -40.0250 C.3   372  ILE372      0.0023
     42  CD1       16.7790    5.4160  -37.7350 C.3   372  ILE372      0.0001
     43  N         13.3910    2.9400  -39.1280 N.am  373  GLY373     -0.1940
     44  CA        12.1020    2.6770  -38.5140 C.3   373  GLY373      0.2014
     45  C         12.1770    1.6970  -37.3640 C.2   373  GLY373      0.2640
     46  O         13.1940    1.0440  -37.1600 O.2   373  GLY373     -0.2714
     47  N         11.0880    1.5890  -36.6140 N.am  374  SER374     -0.1935
     48  CA        11.0430    0.6970  -35.4710 C.3   374  SER374      0.2055
     49  C          9.9890   -0.3890  -35.6740 C.2   374  SER374      0.2643
     50  O          8.8270   -0.0850  -35.9120 O.2   374  SER374     -0.2714
     51  CB        10.7300    1.5100  -34.2220 C.3   374  SER374      0.2130
     52  OG        11.1220    0.8080  -33.0570 O.3   374  SER374     -0.2179
     53  N         10.3940   -1.6540  -35.5890 N.am  375  TYR375     -0.1973
     54  CA         9.4570   -2.7680  -35.7780 C.3   375  TYR375      0.1639
     55  C          9.5610   -3.8360  -34.6990 C.2   375  TYR375      0.2290
     56  O         10.5550   -3.9200  -33.9690 O.2   375  TYR375     -0.2864
     57  CB         9.6680   -3.4250  -37.1460 C.3   375  TYR375      0.0560
     58  CG         9.7940   -2.4180  -38.2570 C.ar  375  TYR375     -0.0198
     59  CD1       10.9990   -1.7310  -38.4610 C.ar  375  TYR375     -0.0009
     60  CD2        8.6930   -2.0850  -39.0540 C.ar  375  TYR375     -0.0009
     61  CE1       11.1050   -0.7300  -39.4250 C.ar  375  TYR375      0.0417
     62  CE2        8.7880   -1.0880  -40.0200 C.ar  375  TYR375      0.0417
     63  CZ         9.9980   -0.4110  -40.2020 C.ar  375  TYR375      0.1957
     64  OH        10.1080    0.5710  -41.1630 O.3   375  TYR375     -0.2866
     65  N         10.7550   -4.6590  -29.7170 N.3   387  GLU387     -0.1245
     66  CA        10.7530   -3.4320  -30.5020 C.3   387  GLU387      0.1567
     67  C         12.1780   -2.9850  -30.8050 C.2   387  GLU387      0.2260
     68  O         12.9540   -2.6910  -29.8980 O.2   387  GLU387     -0.2867
     69  CB         9.9930   -2.3440  -29.7470 C.3   387  GLU387      0.0388
     70  CG         8.6010   -2.1140  -30.2910 C.3   387  GLU387      0.1160
     71  CD         8.5740   -1.0100  -31.3330 C.2   387  GLU387      0.3649
     72  OE1        7.6770   -1.0210  -32.2150 O.co2 387  GLU387     -0.2457
     73  OE2        9.4520   -0.1170  -31.2530 O.co2 387  GLU387     -0.2457
     74  N         16.4360    0.7420  -42.0970 N.3   392  VAL392     -0.1245
     75  CA        15.6670   -0.0890  -43.0080 C.3   392  VAL392      0.1561
     76  C         15.5720    0.4790  -44.4120 C.2   392  VAL392      0.2260
     77  O         15.3930    1.6760  -44.5900 O.2   392  VAL392     -0.2867
     78  CB        14.2410   -0.3060  -42.4580 C.3   392  VAL392      0.0252
     79  CG1       13.4450    0.9990  -42.5490 C.3   392  VAL392      0.0019
     80  CG2       13.5540   -1.4470  -43.2040 C.3   392  VAL392      0.0019
     81  N         13.7700    0.8430  -48.1010 N.3   394  LYS394     -0.1245
     82  CA        12.4670    0.8560  -48.7750 C.3   394  LYS394      0.1561
     83  C         12.8100    0.4860  -50.2060 C.2   394  LYS394      0.2260
     84  O         13.5780    1.1940  -50.8610 O.2   394  LYS394     -0.2867
     85  CB        11.8670    2.2510  -48.7300 C.3   394  LYS394      0.0271
     86  CG        10.5030    2.3330  -49.3610 C.3   394  LYS394      0.0035
     87  CD         9.5390    1.5020  -48.5380 C.3   394  LYS394      0.0206
     88  CE         8.2450    1.1750  -49.2720 C.3   394  LYS394      0.1093
     89  NZ         7.4780    2.3900  -49.6320 N.3   394  LYS394     -0.1314
     90  N          9.8120    9.1310  -49.6290 N.3   401  LEU401     -0.1245
     91  CA        10.8900    9.1600  -48.6450 C.3   401  LEU401      0.1561
     92  C         12.0220   10.0560  -49.1200 C.2   401  LEU401      0.2260
     93  O         12.9040   10.4220  -48.3420 O.2   401  LEU401     -0.2867
     94  CB        11.4300    7.7500  -48.4020 C.3   401  LEU401      0.0270
     95  CG        10.4500    6.7960  -47.7240 C.3   401  LEU401      0.0019
     96  CD1       11.0740    5.4180  -47.5520 C.3   401  LEU401      0.0001
     97  CD2       10.0610    7.3860  -46.3880 C.3   401  LEU401      0.0001
     98  N         12.0030   12.9690  -47.0040 N.3   404  SER404     -0.1217
     99  CA        12.0180   12.7390  -45.5570 C.3   404  SER404      0.1889
    100  C         13.4220   12.7280  -44.9510 C.2   404  SER404      0.2288
    101  O         14.3270   12.0880  -45.4800 O.2   404  SER404     -0.2866
    102  CB        11.3120   11.4140  -45.2370 C.3   404  SER404      0.2089
    103  OG        11.1470   11.2310  -43.8400 O.3   404  SER404     -0.2183
    104  N         14.3300   11.1740  -42.7010 N.3   406  SER406     -0.1217
    105  CA        14.5310    9.8130  -42.2120 C.3   406  SER406      0.1889
    106  C         15.4760    9.0510  -43.1400 C.2   406  SER406      0.2288
    107  O         15.8350    7.9000  -42.8760 O.2   406  SER406     -0.2866
    108  CB        13.2020    9.0690  -42.1580 C.3   406  SER406      0.2089
    109  OG        12.7360    8.7990  -43.4700 O.3   406  SER406     -0.2183
@<TRIPOS>BOND
     1    84    83    2
     2    83    82    1
     3    89    88    1
     4    90    91    1
     5    86    85    1
     6    86    87    1
     7    88    87    1
     8    92    91    1
     9    92    93    2
    10    82    85    1
    11    82    81    1
    12    91    94    1
    13    94    95    1
    14    95    96    1
    15    95    97    1
    16    21    22    1
    17    98    99    1
    18    22    23    1
    19    22    25    1
    20    24    23    2
    21    27    26    1
    22    99   102    1
    23    99   100    1
    24   101   100    2
    25    29    30    1
    26   102   103    1
    27    25    26    1
    28    26    28    1
    29    33    30    1
    30    33    34    1
    31    77    76    2
    32    30    31    1
    33    76    75    1
    34   109   108    1
    35    80    78    1
    36   106   107    2
    37   106   105    1
    38    75    78    1
    39    75    74    1
    40    31    32    2
    41    31    35   am
    42   104   105    1
    43    79    78    1
    44   105   108    1
    45    35    36    1
    46    64    63    1
    47    36    37    1
    48    36    39    1
    49    38    37    2
    50    63    62   ar
    51    63    61   ar
    52    37    43   am
    53    41    39    1
    54    62    60   ar
    55    39    40    1
    56     7     6    2
    57    61    59   ar
    58    43    44    1
    59    60    58   ar
    60     8     6   am
    61     6     5    1
    62    44    45    1
    63    40    42    1
    64    59    58   ar
    65    58    57    1
    66     1     2    1
    67     5     2    1
    68    45    46    2
    69    45    47   am
    70    57    54    1
    71     2     3    1
    72    47    48    1
    73    17    15   ar
    74    17    19   ar
    75    50    49    2
    76    15    14   ar
    77    54    53    1
    78    54    55    1
    79     3     9   am
    80     3     4    2
    81    49    53   am
    82    49    48    1
    83     9    10    1
    84    48    51    1
    85    20    19    1
    86    19    18   ar
    87    55    56    2
    88    14    13    1
    89    14    16   ar
    90    13    10    1
    91    10    11    1
    92    51    52    1
    93    11    12    2
    94    18    16   ar
    95    72    71   ar
    96    71    73   ar
    97    71    70    1
    98    67    66    1
    99    67    68    2
   100    66    69    1
   101    66    65    1
   102    70    69    1
