@<TRIPOS>MOLECULE
tmp/4fvxA02.pdb
 160 158 0 0 0
SMALL
GASTEIGER

@<TRIPOS>ATOM
      1  N         15.4740    7.5590   28.9190 N.3   106  CYS106     -0.1235
      2  CA        16.1650    6.5620   28.1190 C.3   106  CYS106      0.1677
      3  C         17.4720    6.1980   28.7810 C.2   106  CYS106      0.2270
      4  O         18.3100    7.0720   28.9840 O.2   106  CYS106     -0.2867
      5  CB        16.4550    7.0850   26.6810 C.3   106  CYS106      0.0956
      6  SG        17.3920    5.9140   25.6360 S.3   106  CYS106     -0.0801
      7  N          4.4310    0.7550   18.0190 N.3   169  GLN169     -0.1245
      8  CA         5.8040    0.3790   17.5900 C.3   169  GLN169      0.1566
      9  C          5.6200   -0.2080   16.2000 C.2   169  GLN169      0.2260
     10  O          4.5440   -0.6910   15.8830 O.2   169  GLN169     -0.2867
     11  CB         6.4330   -0.6900   18.4880 C.3   169  GLN169      0.0367
     12  CG         6.7410   -0.2260   19.8870 C.3   169  GLN169      0.0905
     13  CD         7.3390   -1.3290   20.7120 C.2   169  GLN169      0.2608
     14  OE1        8.0510   -2.1870   20.1880 O.2   169  GLN169     -0.2717
     15  NE2        7.0830   -1.3100   22.0020 N.am  169  GLN169     -0.0878
     16  N          4.7820   -5.0650   16.6040 N.3   172  ARG172     -0.1245
     17  CA         4.1090   -5.4850   17.8550 C.3   172  ARG172      0.1563
     18  C          3.1490   -6.6320   17.5100 C.2   172  ARG172      0.2260
     19  O          2.8460   -6.8390   16.3460 O.2   172  ARG172     -0.2867
     20  CB         3.3260   -4.3370   18.4910 C.3   172  ARG172      0.0307
     21  CG         4.1580   -3.3590   19.2550 C.3   172  ARG172      0.0489
     22  CD         3.3070   -2.6190   20.2880 C.3   172  ARG172      0.2205
     23  NE         3.6230   -2.9650   21.6620 N.pl3 172  ARG172     -0.0865
     24  CZ         2.9950   -2.4220   22.7070 C.cat 172  ARG172      0.5346
     25  NH1        2.0210   -1.5430   22.5050 N.pl3 172  ARG172      0.1354
     26  NH2        3.3220   -2.7470   23.9570 N.pl3 172  ARG172      0.1354
     27  N          9.7950  -13.5030   20.7950 N.3   252  TRP252     -0.1227
     28  CA         9.6890  -12.0390   20.7370 C.3   252  TRP252      0.1737
     29  C         10.4420  -11.5350   19.5090 C.2   252  TRP252      0.2595
     30  O         11.2050  -12.2760   18.8990 O.2   252  TRP252     -0.2718
     31  CB        10.2060  -11.3880   22.0130 C.3   252  TRP252      0.0564
     32  CG         9.5410  -10.0610   22.3080 C.ar  252  TRP252      0.0003
     33  CD1       10.0930   -8.8110   22.1770 C.ar  252  TRP252      0.0946
     34  CD2        8.1910   -9.8620   22.7570 C.ar  252  TRP252      0.0152
     35  NE1        9.1610   -7.8450   22.5190 N.ar  252  TRP252     -0.2442
     36  CE2        7.9900   -8.4650   22.8800 C.ar  252  TRP252      0.0810
     37  CE3        7.1300  -10.7320   23.0620 C.ar  252  TRP252      0.0012
     38  CZ2        6.7660   -7.9130   23.3170 C.ar  252  TRP252      0.0191
     39  CZ3        5.9210  -10.1930   23.4940 C.ar  252  TRP252      0.0001
     40  CH2        5.7510   -8.7880   23.6240 C.ar  252  TRP252      0.0015
     41  N         10.2100  -10.2840   19.1360 N.am  253  TYR253     -0.1976
     42  CA        10.8700   -9.7020   17.9720 C.3   253  TYR253      0.1639
     43  C         12.1390   -8.9850   18.3950 C.2   253  TYR253      0.2290
     44  O         12.2430   -8.5040   19.5460 O.2   253  TYR253     -0.2864
     45  CB         9.9110   -8.7430   17.2750 C.3   253  TYR253      0.0560
     46  CG         9.2300   -7.7270   18.2060 C.ar  253  TYR253     -0.0198
     47  CD1        9.8200   -6.4890   18.4720 C.ar  253  TYR253     -0.0009
     48  CD2        7.9710   -7.9960   18.7670 C.ar  253  TYR253     -0.0009
     49  CE1        9.1910   -5.5650   19.3040 C.ar  253  TYR253      0.0417
     50  CE2        7.3290   -7.0760   19.5770 C.ar  253  TYR253      0.0417
     51  CZ         7.9370   -5.8660   19.8400 C.ar  253  TYR253      0.1957
     52  OH         7.3160   -4.9450   20.6460 O.3   253  TYR253     -0.2866
     53  N         13.1250   -3.1170   18.6310 N.3   256  PRO256     -0.2116
     54  CA        12.1750   -2.2200   19.2830 C.3   256  PRO256      0.1372
     55  C         12.1390   -0.8790   18.5270 C.2   256  PRO256      0.2244
     56  O         13.1790   -0.2590   18.3200 O.2   256  PRO256     -0.2868
     57  CB        12.7620   -2.0550   20.6870 C.3   256  PRO256      0.0268
     58  CG        14.2650   -2.2790   20.4880 C.3   256  PRO256      0.0207
     59  CD        14.3820   -3.2830   19.3880 C.3   256  PRO256      0.0892
     60  N          9.9300    2.5360   18.3220 N.3   258  VAL258     -0.1245
     61  CA         8.8240    3.3340   18.8610 C.3   258  VAL258      0.1561
     62  C          8.3170    4.2500   17.7730 C.2   258  VAL258      0.2260
     63  O          9.0860    5.0220   17.2180 O.2   258  VAL258     -0.2867
     64  CB         9.2860    4.1700   20.0700 C.3   258  VAL258      0.0252
     65  CG1        8.2060    5.2390   20.4450 C.3   258  VAL258      0.0019
     66  CG2        9.5980    3.2430   21.2850 C.3   258  VAL258      0.0019
     67  N         11.5110    5.6050   15.4220 N.3   275  PHE275     -0.1227
     68  CA        12.9350    5.3880   15.7560 C.3   275  PHE275      0.1736
     69  C         13.1670    4.0460   16.4370 C.2   275  PHE275      0.2596
     70  O         12.2780    3.5340   17.0760 O.2   275  PHE275     -0.2718
     71  CB        13.4720    6.5140   16.6500 C.3   275  PHE275      0.0547
     72  CG        12.6730    6.7640   17.9360 C.ar  275  PHE275     -0.0202
     73  CD1       13.0240    6.1440   19.1240 C.ar  275  PHE275     -0.0042
     74  CD2       11.6230    7.6720   17.9590 C.ar  275  PHE275     -0.0042
     75  CE1       12.3310    6.4250   20.3330 C.ar  275  PHE275     -0.0003
     76  CE2       10.9150    7.9350   19.1490 C.ar  275  PHE275     -0.0003
     77  CZ        11.2720    7.3260   20.3280 C.ar  275  PHE275     -0.0000
     78  N         14.3680    3.4930   16.3280 N.am  276  SER276     -0.1938
     79  CA        14.6440    2.1560   16.8440 C.3   276  SER276      0.2055
     80  C         16.0680    2.0470   17.3670 C.2   276  SER276      0.2644
     81  O         16.9490    2.7970   16.9490 O.2   276  SER276     -0.2714
     82  CB        14.4260    1.0740   15.7570 C.3   276  SER276      0.2130
     83  OG        15.2320    1.3010   14.6000 O.3   276  SER276     -0.2179
     84  N         16.2760    1.1070   18.2980 N.am  277  GLY277     -0.1939
     85  CA        17.6120    0.7760   18.7700 C.3   277  GLY277      0.2014
     86  C         17.6650   -0.7220   18.9870 C.2   277  GLY277      0.2639
     87  O         17.5630   -1.4970   18.0510 O.2   277  GLY277     -0.2714
     88  N         17.8150   -1.1330   20.2330 N.am  278  TRP278     -0.1959
     89  CA        17.7840   -2.5630   20.5800 C.3   278  TRP278      0.1771
     90  C         17.3840   -2.7020   22.0460 C.2   278  TRP278      0.2620
     91  O         17.4210   -1.7420   22.8140 O.2   278  TRP278     -0.2715
     92  CB        19.1410   -3.2560   20.3330 C.3   278  TRP278      0.0590
     93  CG        20.3080   -2.6470   21.0950 C.ar  278  TRP278      0.0006
     94  CD1       20.5840   -2.7720   22.4540 C.ar  278  TRP278      0.0946
     95  CD2       21.3220   -1.7890   20.5630 C.ar  278  TRP278      0.0152
     96  NE1       21.7140   -2.0700   22.7660 N.ar  278  TRP278     -0.2442
     97  CE2       22.1850   -1.4440   21.6360 C.ar  278  TRP278      0.0810
     98  CE3       21.5970   -1.2840   19.2740 C.ar  278  TRP278      0.0012
     99  CZ2       23.3220   -0.6250   21.4560 C.ar  278  TRP278      0.0191
    100  CZ3       22.7250   -0.4720   19.0960 C.ar  278  TRP278      0.0001
    101  CH2       23.5750   -0.1580   20.1830 C.ar  278  TRP278      0.0015
    102  N         17.0060   -3.9110   22.4210 N.am  279  TYR279     -0.1960
    103  CA        16.3270   -4.1540   23.6780 C.3   279  TYR279      0.1771
    104  C         17.2690   -4.2710   24.8410 C.2   279  TYR279      0.2619
    105  O         18.3990   -4.7320   24.7000 O.2   279  TYR279     -0.2715
    106  CB        15.5910   -5.4740   23.5880 C.3   279  TYR279      0.0574
    107  CG        14.1450   -5.3570   23.1700 C.ar  279  TYR279     -0.0198
    108  CD1       13.6870   -5.9360   21.9880 C.ar  279  TYR279     -0.0009
    109  CD2       13.2340   -4.7080   23.9800 C.ar  279  TYR279     -0.0009
    110  CE1       12.3440   -5.8460   21.6190 C.ar  279  TYR279      0.0417
    111  CE2       11.8850   -4.6160   23.6390 C.ar  279  TYR279      0.0417
    112  CZ        11.4460   -5.1790   22.4560 C.ar  279  TYR279      0.1957
    113  OH        10.1100   -5.0690   22.1160 O.3   279  TYR279     -0.2866
    114  N         16.7730   -3.8820   26.0100 N.am  280  MET280     -0.1977
    115  CA        17.4080   -4.2770   27.2550 C.3   280  MET280      0.1605
    116  C         16.5580   -5.4680   27.6780 C.2   280  MET280      0.2287
    117  O         15.3260   -5.4130   27.5750 O.2   280  MET280     -0.2864
    118  CB        17.3230   -3.1270   28.2600 C.3   280  MET280      0.0413
    119  CG        17.9450   -3.4810   29.6380 C.3   280  MET280      0.0598
    120  SD        18.2500   -2.0660   30.7100 S.3   280  MET280     -0.1393
    121  CE        16.5750   -1.6720   31.2300 C.3   280  MET280      0.0692
    122  N         12.9690   -5.4840   29.5140 N.3   283  GLU283     -0.1245
    123  CA        11.7990   -4.9800   28.8400 C.3   283  GLU283      0.1567
    124  C         10.8880   -6.1310   28.4190 C.2   283  GLU283      0.2260
    125  O          9.6810   -6.0960   28.6410 O.2   283  GLU283     -0.2867
    126  CB        12.1980   -4.1590   27.6120 C.3   283  GLU283      0.0388
    127  CG        12.9650   -2.8750   27.9260 C.3   283  GLU283      0.1160
    128  CD        13.2870   -2.0680   26.6490 C.2   283  GLU283      0.3649
    129  OE1       12.3890   -1.3440   26.1690 O.co2 283  GLU283     -0.2457
    130  OE2       14.4150   -2.1700   26.1180 O.co2 283  GLU283     -0.2457
    131  N          8.7700   -7.0540   31.8960 N.3   287  ARG287     -0.1231
    132  CA         7.5690   -6.2520   31.6230 C.3   287  ARG287      0.1694
    133  C          6.5950   -6.9480   30.6290 C.2   287  ARG287      0.2592
    134  O          5.4270   -7.1480   30.9300 O.2   287  ARG287     -0.2718
    135  CB         7.9700   -4.8760   31.0640 C.3   287  ARG287      0.0321
    136  CG         8.7710   -3.9490   32.0300 C.3   287  ARG287      0.0489
    137  CD         8.1170   -3.7820   33.4410 C.3   287  ARG287      0.2205
    138  NE         6.7200   -3.3720   33.3710 N.pl3 287  ARG287     -0.0865
    139  CZ         6.3140   -2.1220   33.1110 C.cat 287  ARG287      0.5346
    140  NH1        7.2160   -1.1490   32.9020 N.pl3 287  ARG287      0.1354
    141  NH2        5.0090   -1.8540   33.0290 N.pl3 287  ARG287      0.1354
    142  N          7.0910   -7.2830   29.4350 N.am  288  ASP288     -0.1974
    143  CA         6.2230   -7.8310   28.3790 C.3   288  ASP288      0.1709
    144  C          5.6910   -9.2020   28.7640 C.2   288  ASP288      0.2293
    145  O          4.5180   -9.5000   28.5410 O.2   288  ASP288     -0.2864
    146  CB         6.9340   -7.8230   27.0070 C.3   288  ASP288      0.1436
    147  CG         7.3860   -6.4170   26.5960 C.2   288  ASP288      0.3671
    148  OD1        6.7470   -5.4340   27.0720 O.co2 288  ASP288     -0.2456
    149  OD2        8.3950   -6.2900   25.8400 O.co2 288  ASP288     -0.2456
    150  N          0.0620   -7.8350   30.8430 N.3   294  ARG294     -0.1245
    151  CA         0.6960   -8.2290   29.5760 C.3   294  ARG294      0.1563
    152  C          0.5660   -9.7440   29.3790 C.2   294  ARG294      0.2260
    153  O         -0.5080  -10.2680   29.6460 O.2   294  ARG294     -0.2867
    154  CB         2.1260   -7.7120   29.4760 C.3   294  ARG294      0.0307
    155  CG         2.1720   -6.2080   29.5230 C.3   294  ARG294      0.0489
    156  CD         1.4850   -5.5780   28.3170 C.3   294  ARG294      0.2205
    157  NE         2.1540   -5.8160   27.0360 N.pl3 294  ARG294     -0.0865
    158  CZ         3.3750   -5.3790   26.6830 C.cat 294  ARG294      0.5346
    159  NH1        4.1300   -4.6720   27.5130 N.pl3 294  ARG294      0.1354
    160  NH2        3.8620   -5.6700   25.4750 N.pl3 294  ARG294      0.1354
@<TRIPOS>BOND
     1    83    82    1
     2    67    68    1
     3    68    69    1
     4    68    71    1
     5    82    79    1
     6    10     9    2
     7     9     8    1
     8    78    69   am
     9    78    79    1
    10    19    18    2
    11    69    70    2
    12    16    17    1
    13    71    72    1
    14    79    80    1
    15    81    80    2
    16    63    62    2
    17    45    42    1
    18    45    46    1
    19    80    84   am
    20    18    17    1
    21     8     7    1
    22     8    11    1
    23    62    61    1
    24    17    20    1
    25    72    74   ar
    26    72    73   ar
    27    74    76   ar
    28    42    43    1
    29    42    41    1
    30    87    86    2
    31    46    47   ar
    32    46    48   ar
    33    84    85    1
    34    56    55    2
    35    60    61    1
    36    43    44    2
    37    47    49   ar
    38    11    12    1
    39    20    21    1
    40    55    54    1
    41    53    54    1
    42    53    59    1
    43    48    50   ar
    44    85    86    1
    45    61    64    1
    46    30    29    2
    47    86    88   am
    48   100    98   ar
    49   100   101   ar
    50    73    75   ar
    51    41    29   am
    52    76    77   ar
    53    21    22    1
    54    98    95   ar
    55    54    57    1
    56    49    51   ar
    57    59    58    1
    58    29    28    1
    59    50    51   ar
    60    51    52    1
    61    12    13    1
    62    64    65    1
    63    64    66    1
    64   101    99   ar
    65    14    13    2
    66    88    89    1
    67    22    23    1
    68    77    75   ar
    69    92    89    1
    70    92    93    1
    71    58    57    1
    72    95    93   ar
    73    95    97   ar
    74    89    90    1
    75    13    15   am
    76    28    27    1
    77    28    31    1
    78    93    94   ar
    79    99    97   ar
    80   110   108   ar
    81   110   112   ar
    82    97    96   ar
    83    23    24    2
    84   108   107   ar
    85    31    32    1
    86    90   102   am
    87    90    91    2
    88   113   112    1
    89    33    32   ar
    90    33    35   ar
    91    32    34   ar
    92   102   103    1
    93    94    96   ar
    94   112   111   ar
    95    25    24    1
    96    35    36   ar
    97    24    26    1
    98    34    36   ar
    99    34    37   ar
   100    36    38   ar
   101    37    39   ar
   102   107   106    1
   103   107   109   ar
   104    38    40   ar
   105    39    40   ar
   106   106   103    1
   107   111   109   ar
   108   103   104    1
   109   105   104    2
   110   104   114   am
   111   160   158    1
   112     6     5    1
   113   149   147   ar
   114   114   115    1
   115   130   128   ar
   116   129   128   ar
   117   147   146    1
   118   147   148   ar
   119   128   127    1
   120     5     2    1
   121   158   157    2
   122   158   159    1
   123   146   143    1
   124   157   156    1
   125   115   116    1
   126   115   118    1
   127   117   116    2
   128   126   127    1
   129   126   123    1
   130     2     3    1
   131     2     1    1
   132   118   119    1
   133   156   155    1
   134   143   144    1
   135   143   142    1
   136   124   125    2
   137   124   123    1
   138   145   144    2
   139     3     4    2
   140   123   122    1
   141   152   151    1
   142   152   153    2
   143   142   133   am
   144   154   155    1
   145   154   151    1
   146   151   150    1
   147   119   120    1
   148   133   134    2
   149   133   132    1
   150   120   121    1
   151   135   132    1
   152   135   136    1
   153   132   131    1
   154   136   137    1
   155   140   139    1
   156   141   139    1
   157   139   138    2
   158   138   137    1
