@<TRIPOS>MOLECULE
tmp/4fvzB03.pdb
 160 158 0 0 0
SMALL
GASTEIGER

@<TRIPOS>ATOM
      1  N          7.3960    5.5550   53.7670 N.3   108  CYS108     -0.1235
      2  CA         7.1380    4.3220   54.5460 C.3   108  CYS108      0.1677
      3  C          6.0730    3.4960   53.8700 C.2   108  CYS108      0.2270
      4  O          4.9460    3.9560   53.6800 O.2   108  CYS108     -0.2867
      5  CB         6.6890    4.6000   56.0210 C.3   108  CYS108      0.0956
      6  SG         6.2860    3.1380   57.0520 S.3   108  CYS108     -0.0801
      7  N         20.4370    3.8170   64.3340 N.3   171  GLN171     -0.1245
      8  CA        19.3390    2.9180   64.7870 C.3   171  GLN171      0.1566
      9  C         19.7180    2.4560   66.2080 C.2   171  GLN171      0.2260
     10  O         20.9100    2.5110   66.5770 O.2   171  GLN171     -0.2867
     11  CB        19.1400    1.7190   63.8650 C.3   171  GLN171      0.0367
     12  CG        18.7930    2.0180   62.4130 C.3   171  GLN171      0.0905
     13  CD        18.6250    0.7210   61.6010 C.2   171  GLN171      0.2608
     14  OE1       18.3630   -0.3400   62.1710 O.2   171  GLN171     -0.2717
     15  NE2       18.7850    0.8030   60.2800 N.am  171  GLN171     -0.0878
     16  N         22.5310   -1.8950   65.8620 N.3   174  ARG174     -0.1245
     17  CA        23.1450   -1.8960   64.5680 C.3   174  ARG174      0.1563
     18  C         24.5800   -2.3690   64.7910 C.2   174  ARG174      0.2260
     19  O         25.0710   -2.2240   65.9150 O.2   174  ARG174     -0.2867
     20  CB        23.1780   -0.4520   64.0580 C.3   174  ARG174      0.0307
     21  CG        22.7120   -0.3500   62.6400 C.3   174  ARG174      0.0489
     22  CD        22.8970    1.0120   62.0140 C.3   174  ARG174      0.2205
     23  NE        22.3770    0.8860   60.6650 N.pl3 174  ARG174     -0.0865
     24  CZ        22.6270    1.7240   59.6760 C.cat 174  ARG174      0.5346
     25  NH1       23.3800    2.7680   59.8920 N.pl3 174  ARG174      0.1354
     26  NH2       22.0830    1.5150   58.4860 N.pl3 174  ARG174      0.1354
     27  N         21.2950  -11.3830   61.6140 N.3   254  TRP254     -0.1227
     28  CA        20.7880  -10.0000   61.6860 C.3   254  TRP254      0.1737
     29  C         20.0070   -9.7620   62.9500 C.2   254  TRP254      0.2595
     30  O         19.5570  -10.7060   63.5680 O.2   254  TRP254     -0.2718
     31  CB        19.9570   -9.6270   60.4570 C.3   254  TRP254      0.0564
     32  CG        20.0190   -8.1260   60.1470 C.ar  254  TRP254      0.0003
     33  CD1       19.0210   -7.1840   60.2740 C.ar  254  TRP254      0.0946
     34  CD2       21.2010   -7.4010   59.6900 C.ar  254  TRP254      0.0152
     35  NE1       19.4860   -5.9380   59.9020 N.ar  254  TRP254     -0.2442
     36  CE2       20.8210   -6.0190   59.5640 C.ar  254  TRP254      0.0810
     37  CE3       22.5220   -7.7850   59.3820 C.ar  254  TRP254      0.0012
     38  CZ2       21.7040   -5.0440   59.1090 C.ar  254  TRP254      0.0191
     39  CZ3       23.4010   -6.8020   58.9370 C.ar  254  TRP254      0.0001
     40  CH2       22.9950   -5.4580   58.8000 C.ar  254  TRP254      0.0015
     41  N         19.8380   -8.5150   63.3710 N.am  255  TYR255     -0.1976
     42  CA        19.0170   -8.2600   64.5480 C.3   255  TYR255      0.1639
     43  C         17.5690   -8.1660   64.0830 C.2   255  TYR255      0.2290
     44  O         17.3270   -7.8380   62.9430 O.2   255  TYR255     -0.2864
     45  CB        19.4620   -6.9720   65.2390 C.3   255  TYR255      0.0560
     46  CG        19.6230   -5.8250   64.2710 C.ar  255  TYR255     -0.0198
     47  CD1       18.5460   -5.0030   63.9930 C.ar  255  TYR255     -0.0009
     48  CD2       20.8480   -5.5670   63.6280 C.ar  255  TYR255     -0.0009
     49  CE1       18.6660   -3.9450   63.1410 C.ar  255  TYR255      0.0417
     50  CE2       20.9760   -4.5060   62.7310 C.ar  255  TYR255      0.0417
     51  CZ        19.8970   -3.6990   62.5160 C.ar  255  TYR255      0.1957
     52  OH        19.9180   -2.6420   61.6560 O.3   255  TYR255     -0.2866
     53  N         14.1930   -3.2910   63.8510 N.3   258  PRO258     -0.2116
     54  CA        14.6800   -2.1090   63.1790 C.3   258  PRO258      0.1372
     55  C         14.1030   -0.9080   63.9120 C.2   258  PRO258      0.2244
     56  O         12.8720   -0.7950   64.0440 O.2   258  PRO258     -0.2868
     57  CB        14.0590   -2.2240   61.7680 C.3   258  PRO258      0.0268
     58  CG        12.8050   -2.9830   61.9520 C.3   258  PRO258      0.0207
     59  CD        12.9440   -3.8100   63.2280 C.3   258  PRO258      0.0892
     60  N         14.6740    3.2280   64.0430 N.3   260  VAL260     -0.1245
     61  CA        15.3660    4.4250   63.5150 C.3   260  VAL260      0.1561
     62  C         15.3890    5.4040   64.6790 C.2   260  VAL260      0.2260
     63  O         14.3920    5.6380   65.3170 O.2   260  VAL260     -0.2867
     64  CB        14.5910    5.0060   62.2970 C.3   260  VAL260      0.0252
     65  CG1       15.0060    6.4610   61.9900 C.3   260  VAL260      0.0019
     66  CG2       14.7080    4.0750   61.0790 C.3   260  VAL260      0.0019
     67  N         11.9280    5.1300   66.9340 N.3   277  PHE277     -0.1227
     68  CA        10.6480    4.4140   66.7050 C.3   277  PHE277      0.1736
     69  C         11.0570    3.1060   66.0300 C.2   277  PHE277      0.2596
     70  O         12.1360    3.0020   65.4720 O.2   277  PHE277     -0.2718
     71  CB         9.6660    5.2480   65.8540 C.3   277  PHE277      0.0547
     72  CG        10.2910    5.8330   64.5800 C.ar  277  PHE277     -0.0202
     73  CD1       10.3020    5.1030   63.3670 C.ar  277  PHE277     -0.0042
     74  CD2       10.9140    7.0800   64.5910 C.ar  277  PHE277     -0.0042
     75  CE1       10.8700    5.6270   62.2140 C.ar  277  PHE277     -0.0003
     76  CE2       11.5510    7.5730   63.4450 C.ar  277  PHE277     -0.0003
     77  CZ        11.4930    6.8600   62.2530 C.ar  277  PHE277     -0.0000
     78  N         10.1960    2.1100   66.0980 N.am  278  SER278     -0.1938
     79  CA        10.5450    0.7960   65.5890 C.3   278  SER278      0.2055
     80  C          9.2640    0.1310   65.1220 C.2   278  SER278      0.2644
     81  O          8.2150    0.4790   65.5790 O.2   278  SER278     -0.2714
     82  CB        11.2470   -0.0210   66.6820 C.3   278  SER278      0.2130
     83  OG        10.3650   -0.3900   67.7400 O.3   278  SER278     -0.2179
     84  N          9.3670   -0.7640   64.1480 N.am  279  GLY279     -0.1939
     85  CA         8.2640   -1.6380   63.7980 C.3   279  GLY279      0.2014
     86  C          8.9120   -2.9920   63.5530 C.2   279  GLY279      0.2639
     87  O          9.5120   -3.5730   64.4650 O.2   279  GLY279     -0.2714
     88  N          8.8200   -3.4840   62.3250 N.am  280  TRP280     -0.1959
     89  CA         9.5210   -4.7240   61.9630 C.3   280  TRP280      0.1771
     90  C         10.0150   -4.6550   60.5410 C.2   280  TRP280      0.2620
     91  O          9.5980   -3.7960   59.7770 O.2   280  TRP280     -0.2715
     92  CB         8.6410   -5.9380   62.1890 C.3   280  TRP280      0.0590
     93  CG         7.2970   -5.8620   61.5360 C.ar  280  TRP280      0.0006
     94  CD1        6.9810   -6.1480   60.2060 C.ar  280  TRP280      0.0946
     95  CD2        6.0160   -5.4550   62.1600 C.ar  280  TRP280      0.0152
     96  NE1        5.6250   -5.9470   59.9710 N.ar  280  TRP280     -0.2442
     97  CE2        4.9920   -5.5530   61.1120 C.ar  280  TRP280      0.0810
     98  CE3        5.6270   -5.0580   63.4380 C.ar  280  TRP280      0.0012
     99  CZ2        3.6470   -5.2470   61.3610 C.ar  280  TRP280      0.0191
    100  CZ3        4.2570   -4.7530   63.6750 C.ar  280  TRP280      0.0001
    101  CH2        3.3010   -4.8560   62.6550 C.ar  280  TRP280      0.0015
    102  N         10.9000   -5.5690   60.1740 N.am  281  TYR281     -0.1960
    103  CA        11.5880   -5.4790   58.8950 C.3   281  TYR281      0.1771
    104  C         10.7350   -6.0030   57.7590 C.2   281  TYR281      0.2619
    105  O         10.0430   -7.0220   57.9160 O.2   281  TYR281     -0.2715
    106  CB        12.8350   -6.3240   58.9090 C.3   281  TYR281      0.0574
    107  CG        14.0820   -5.6040   59.3180 C.ar  281  TYR281     -0.0198
    108  CD1       14.7540   -5.9620   60.4640 C.ar  281  TYR281     -0.0009
    109  CD2       14.6160   -4.5930   58.5200 C.ar  281  TYR281     -0.0009
    110  CE1       15.9220   -5.3340   60.8070 C.ar  281  TYR281      0.0417
    111  CE2       15.7660   -3.9480   58.8520 C.ar  281  TYR281      0.0417
    112  CZ        16.4190   -4.3300   59.9890 C.ar  281  TYR281      0.1957
    113  OH        17.5680   -3.7030   60.3100 O.3   281  TYR281     -0.2866
    114  N         10.8340   -5.3190   56.6090 N.am  282  MET282     -0.1977
    115  CA        10.5440   -5.9410   55.3030 C.3   282  MET282      0.1605
    116  C         11.7990   -6.6560   54.8880 C.2   282  MET282      0.2287
    117  O         12.8900   -6.0790   54.9850 O.2   282  MET282     -0.2864
    118  CB        10.2350   -4.8840   54.2300 C.3   282  MET282      0.0413
    119  CG         9.6510   -5.4970   52.9220 C.3   282  MET282      0.0598
    120  SD         8.8960   -4.2960   51.7790 S.3   282  MET282     -0.1393
    121  CE        10.3160   -3.2880   51.3180 C.3   282  MET282      0.0692
    122  N         15.0220   -5.1370   52.9730 N.3   285  GLU285     -0.1245
    123  CA        15.9510   -4.2780   53.7390 C.3   285  GLU285      0.1567
    124  C         17.2940   -4.9560   54.1160 C.2   285  GLU285      0.2260
    125  O         18.3700   -4.3750   53.9340 O.2   285  GLU285     -0.2867
    126  CB        15.2670   -3.7080   54.9750 C.3   285  GLU285      0.0388
    127  CG        14.0400   -2.8510   54.6590 C.3   285  GLU285      0.1160
    128  CD        13.4210   -2.2570   55.9230 C.2   285  GLU285      0.3649
    129  OE1       13.9760   -1.2330   56.4100 O.co2 285  GLU285     -0.2457
    130  OE2       12.3760   -2.7840   56.4120 O.co2 285  GLU285     -0.2457
    131  N         19.5620   -4.8020   50.5180 N.3   289  ARG289     -0.1231
    132  CA        20.3680   -3.6100   50.8170 C.3   289  ARG289      0.1694
    133  C         21.4790   -3.8620   51.8400 C.2   289  ARG289      0.2592
    134  O         22.6630   -3.6140   51.5570 O.2   289  ARG289     -0.2718
    135  CB        19.4510   -2.4500   51.2650 C.3   289  ARG289      0.0321
    136  CG        18.2480   -2.1210   50.3210 C.3   289  ARG289      0.0489
    137  CD        18.6490   -1.4720   48.9730 C.3   289  ARG289      0.2205
    138  NE        19.8130   -0.5750   49.0680 N.pl3 289  ARG289     -0.0865
    139  CZ        19.7100    0.7180   49.3880 C.cat 289  ARG289      0.5346
    140  NH1       18.5050    1.2120   49.5940 N.pl3 289  ARG289      0.1354
    141  NH2       20.7970    1.5160   49.4870 N.pl3 289  ARG289      0.1354
    142  N         21.1260   -4.3680   53.0240 N.am  290  ASP290     -0.1974
    143  CA        22.1500   -4.5190   54.0880 C.3   290  ASP290      0.1709
    144  C         23.1940   -5.5630   53.7040 C.2   290  ASP290      0.2293
    145  O         24.3830   -5.4180   53.9850 O.2   290  ASP290     -0.2864
    146  CB        21.5180   -4.7930   55.4790 C.3   290  ASP290      0.1436
    147  CG        20.4930   -3.7240   55.8800 C.2   290  ASP290      0.3671
    148  OD1       20.5830   -2.5930   55.3610 O.co2 290  ASP290     -0.2456
    149  OD2       19.5550   -3.9930   56.6800 O.co2 290  ASP290     -0.2456
    150  N         27.8740   -1.9790   51.6210 N.3   296  ARG296     -0.1245
    151  CA        27.4400   -2.5850   52.8700 C.3   296  ARG296      0.1563
    152  C         28.1940   -3.8960   53.0440 C.2   296  ARG296      0.2260
    153  O         29.4230   -3.9580   52.7910 O.2   296  ARG296     -0.2867
    154  CB        25.8960   -2.7290   52.9400 C.3   296  ARG296      0.0307
    155  CG        25.1610   -1.3780   52.8380 C.3   296  ARG296      0.0489
    156  CD        25.2980   -0.4460   54.0530 C.3   296  ARG296      0.2205
    157  NE        24.9120   -1.0930   55.3320 N.pl3 296  ARG296     -0.0865
    158  CZ        23.6620   -1.1470   55.8020 C.cat 296  ARG296      0.5346
    159  NH1       22.6760   -0.5500   55.1350 N.pl3 296  ARG296      0.1354
    160  NH2       23.4280   -1.7430   56.9560 N.pl3 296  ARG296      0.1354
@<TRIPOS>BOND
     1   137   138    1
     2   137   136    1
     3   138   139    2
     4   139   141    1
     5   139   140    1
     6   136   135    1
     7   131   132    1
     8   132   135    1
     9   132   133    1
    10   121   120    1
    11   134   133    2
    12   150   151    1
    13   120   119    1
    14   133   142   am
    15   153   152    2
    16   155   154    1
    17   155   156    1
    18   151   154    1
    19   151   152    1
    20   119   118    1
    21   122   123    1
    22   142   143    1
    23     4     3    2
    24   144   145    2
    25   144   143    1
    26   123   124    1
    27   123   126    1
    28     1     2    1
    29     3     2    1
    30   125   124    2
    31   156   157    1
    32   143   146    1
    33   118   115    1
    34     2     5    1
    35   127   126    1
    36   127   128    1
    37   116   117    2
    38   116   115    1
    39   159   158    1
    40   115   114    1
    41   157   158    2
    42   148   147   ar
    43   146   147    1
    44   158   160    1
    45   147   149   ar
    46   128   129   ar
    47   128   130   ar
    48     5     6    1
    49   114   104   am
    50   104   105    2
    51   104   103    1
    52    26    24    1
    53   109   111   ar
    54   109   107   ar
    55    40    39   ar
    56    40    38   ar
    57   111   112   ar
    58   103   106    1
    59   103   102    1
    60   106   107    1
    61    39    37   ar
    62    38    36   ar
    63   107   108   ar
    64    37    34   ar
    65    36    34   ar
    66    36    35   ar
    67    24    25    1
    68    24    23    2
    69    34    32   ar
    70    91    90    2
    71    35    33   ar
    72    96    94   ar
    73    96    97   ar
    74   112   113    1
    75   112   110   ar
    76    32    33   ar
    77    32    31    1
    78   102    90   am
    79    94    93   ar
    80    15    13   am
    81    31    28    1
    82   108   110   ar
    83    90    89    1
    84    23    22    1
    85    66    64    1
    86    97    99   ar
    87    97    95   ar
    88    99   101   ar
    89    93    95   ar
    90    93    92    1
    91    13    14    2
    92    13    12    1
    93    27    28    1
    94    52    51    1
    95    28    29    1
    96    57    58    1
    97    57    54    1
    98    58    59    1
    99    89    92    1
   100    89    88    1
   101    65    64    1
   102    22    21    1
   103    95    98   ar
   104    75    77   ar
   105    75    73   ar
   106    77    76   ar
   107    64    61    1
   108    88    86   am
   109    12    11    1
   110    51    50   ar
   111    51    49   ar
   112    21    20    1
   113   101   100   ar
   114    50    48   ar
   115    44    43    2
   116    29    41   am
   117    29    30    2
   118    49    47   ar
   119    54    53    1
   120    54    55    1
   121    59    53    1
   122    73    72   ar
   123    41    42    1
   124    98   100   ar
   125    76    74   ar
   126    61    60    1
   127    61    62    1
   128    86    85    1
   129    86    87    2
   130    48    46   ar
   131    85    84    1
   132    11     8    1
   133    55    56    2
   134    47    46   ar
   135    20    17    1
   136    43    42    1
   137    84    80   am
   138    46    45    1
   139     7     8    1
   140    42    45    1
   141    17    18    1
   142    17    16    1
   143    72    74   ar
   144    72    71    1
   145    62    63    2
   146     8     9    1
   147    18    19    2
   148    80    81    2
   149    80    79    1
   150    70    69    2
   151    79    78    1
   152    79    82    1
   153    71    68    1
   154    69    78   am
   155    69    68    1
   156     9    10    2
   157    82    83    1
   158    68    67    1
