@<TRIPOS>MOLECULE
tmp/4fw3C00.pdb
 186 176 0 0 0
SMALL
GASTEIGER

@<TRIPOS>ATOM
      1  N          3.2360  -16.0080   51.1330 N.3    20  LEU20      -0.1231
      2  CA         3.1780  -15.5310   52.5220 C.3    20  LEU20       0.1693
      3  C          2.2610  -16.3900   53.3960 C.2    20  LEU20       0.2592
      4  O          2.6520  -16.7420   54.5070 O.2    20  LEU20      -0.2718
      5  CB         2.7270  -14.0510   52.5920 C.3    20  LEU20       0.0284
      6  CG         2.5400  -13.4220   53.9940 C.3    20  LEU20       0.0019
      7  CD1        3.8760  -13.2000   54.7040 C.3    20  LEU20       0.0001
      8  CD2        1.7690  -12.1190   53.9100 C.3    20  LEU20       0.0001
      9  N          1.0640  -16.7280   52.9000 N.am   21  HIS21      -0.1976
     10  CA         0.0860  -17.4870   53.6780 C.3    21  HIS21       0.1656
     11  C          0.1440  -18.9920   53.4270 C.2    21  HIS21       0.2291
     12  O         -0.0790  -19.7560   54.3690 O.2    21  HIS21      -0.2864
     13  CB        -1.3280  -16.9530   53.4220 C.3    21  HIS21       0.0771
     14  CG        -1.4740  -15.5150   53.8090 C.ar   21  HIS21       0.0820
     15  ND1       -1.6410  -15.1360   55.1300 N.ar   21  HIS21      -0.2267
     16  CD2       -1.4220  -14.4040   53.0380 C.ar   21  HIS21       0.1154
     17  CE1       -1.7040  -13.8160   55.1180 C.ar   21  HIS21       0.1986
     18  NE2       -1.5830  -13.3310   53.8810 N.ar   21  HIS21      -0.2212
     19  N         -7.1960  -11.4560   54.3090 N.3    64  MET64      -0.1230
     20  CA        -5.8080  -11.0800   54.5850 C.3    64  MET64       0.1702
     21  C         -5.1630  -10.3830   53.3860 C.2    64  MET64       0.2593
     22  O         -4.4330   -9.4100   53.5740 O.2    64  MET64      -0.2718
     23  CB        -4.9750  -12.3090   55.0010 C.3    64  MET64       0.0401
     24  CG        -5.2780  -12.8170   56.4040 C.3    64  MET64       0.0596
     25  SD        -4.8030  -11.6650   57.7180 S.3    64  MET64      -0.1393
     26  CE        -6.4040  -11.2770   58.3920 C.3    64  MET64       0.0692
     27  N         -5.4250  -10.8820   52.1640 N.am   65  SER65      -0.1952
     28  CA        -4.8830  -10.3310   50.9260 C.3    65  SER65       0.1924
     29  C         -5.9440  -10.3130   49.8250 C.2    65  SER65       0.2314
     30  O         -7.0310  -10.8680   50.0050 O.2    65  SER65      -0.2863
     31  CB        -3.6640  -11.1360   50.4810 C.3    65  SER65       0.2116
     32  OG        -3.9990  -12.4270   50.0030 O.3    65  SER65      -0.2180
     33  N         -2.7350  -12.9840   46.9970 N.3    77  THR77      -0.1218
     34  CA        -1.8110  -11.8800   47.3050 C.3    77  THR77       0.1862
     35  C         -1.2500  -11.2390   46.0200 C.2    77  THR77       0.2287
     36  O         -0.0610  -11.3630   45.7230 O.2    77  THR77      -0.2866
     37  CB        -0.6930  -12.3460   48.2720 C.3    77  THR77       0.1770
     38  OG1       -1.2220  -13.2990   49.2000 O.3    77  THR77      -0.2211
     39  CG2       -0.0450  -11.1810   49.0270 C.3    77  THR77       0.0375
     40  N         -1.8200   -7.7630   45.3080 N.3    79  GLU79      -0.1231
     41  CA        -1.7050   -6.3240   45.5720 C.3    79  GLU79       0.1699
     42  C         -0.2740   -5.7460   45.5190 C.2    79  GLU79       0.2592
     43  O         -0.1340   -4.6120   45.0710 O.2    79  GLU79      -0.2718
     44  CB        -2.3750   -5.9340   46.9090 C.3    79  GLU79       0.0402
     45  CG        -1.8280   -6.6190   48.1540 C.3    79  GLU79       0.1161
     46  CD        -2.3670   -7.9980   48.4890 C.2    79  GLU79       0.3649
     47  OE1       -3.0640   -8.6110   47.6480 O.co2  79  GLU79      -0.2457
     48  OE2       -2.0650   -8.4760   49.6030 O.co2  79  GLU79      -0.2457
     49  N          0.7630   -6.4730   45.9810 N.am   80  HIS80      -0.1976
     50  CA         2.1290   -5.9200   45.9630 C.3    80  HIS80       0.1656
     51  C          2.6830   -5.9220   44.5400 C.2    80  HIS80       0.2291
     52  O          3.3590   -4.9730   44.1430 O.2    80  HIS80      -0.2864
     53  CB         3.0790   -6.6640   46.9220 C.3    80  HIS80       0.0771
     54  CG         2.6240   -6.7280   48.3530 C.ar   80  HIS80       0.0820
     55  ND1        3.2450   -7.5650   49.2630 N.ar   80  HIS80      -0.2267
     56  CD2        1.6250   -6.0650   48.9850 C.ar   80  HIS80       0.1154
     57  CE1        2.6060   -7.3900   50.4090 C.ar   80  HIS80       0.1986
     58  NE2        1.6160   -6.5050   50.2860 N.ar   80  HIS80      -0.2212
     59  N          5.2980   -5.3690   54.2560 N.3   192  THR192     -0.1203
     60  CA         4.0720   -5.7530   54.9550 C.3   192  THR192      0.1994
     61  C          4.3810   -5.9360   56.4550 C.2   192  THR192      0.2618
     62  O          5.5440   -6.1130   56.8310 O.2   192  THR192     -0.2717
     63  CB         3.4180   -6.9900   54.2980 C.3   192  THR192      0.1784
     64  OG1        2.0600   -7.0610   54.7160 O.3   192  THR192     -0.2211
     65  CG2        4.1400   -8.3000   54.6050 C.3   192  THR192      0.0376
     66  N          3.3410   -5.8550   57.3040 N.am  193  PHE193     -0.1961
     67  CA         3.5020   -5.9420   58.7480 C.3   193  PHE193      0.1771
     68  C          2.3730   -6.7220   59.4150 C.2   193  PHE193      0.2620
     69  O          1.2760   -6.8460   58.8680 O.2   193  PHE193     -0.2715
     70  CB         3.6050   -4.5280   59.3600 C.3   193  PHE193      0.0574
     71  CG         2.3800   -3.6550   59.1910 C.ar  193  PHE193     -0.0200
     72  CD1        2.1750   -2.9320   58.0190 C.ar  193  PHE193     -0.0042
     73  CD2        1.4530   -3.5230   60.2200 C.ar  193  PHE193     -0.0042
     74  CE1        1.0470   -2.1220   57.8670 C.ar  193  PHE193     -0.0003
     75  CE2        0.3240   -2.7100   60.0660 C.ar  193  PHE193     -0.0003
     76  CZ         0.1310   -2.0120   58.8940 C.ar  193  PHE193     -0.0000
     77  N          2.6620   -7.2110   60.6150 N.am  194  GLY194     -0.1954
     78  CA         1.7170   -7.9460   61.4390 C.3   194  GLY194      0.1869
     79  C          2.0620   -7.8770   62.9110 C.2   194  GLY194      0.2309
     80  O          3.2410   -7.8100   63.2800 O.2   194  GLY194     -0.2863
     81  N          2.4030   -9.5720   66.5340 N.3   196  MET196     -0.1245
     82  CA         2.8140  -10.8830   67.0560 C.3   196  MET196      0.1570
     83  C          1.6210  -11.8010   67.3970 C.2   196  MET196      0.2261
     84  O          1.6120  -12.9450   66.9500 O.2   196  MET196     -0.2867
     85  CB         3.7370  -10.7190   68.2830 C.3   196  MET196      0.0387
     86  CG         4.4440  -12.0030   68.7040 C.3   196  MET196      0.0595
     87  SD         5.5870  -12.6610   67.4590 S.3   196  MET196     -0.1393
     88  CE         6.0230  -14.2160   68.2230 C.3   196  MET196      0.0692
     89  N         -0.2990  -12.8290   64.1040 N.3   199  ILE199     -0.1245
     90  CA         0.5350  -13.7710   63.3460 C.3   199  ILE199      0.1561
     91  C          0.4110  -15.1790   63.9660 C.2   199  ILE199      0.2260
     92  O          0.2580  -16.1580   63.2310 O.2   199  ILE199     -0.2867
     93  CB         2.0140  -13.2740   63.2870 C.3   199  ILE199      0.0252
     94  CG1        2.1290  -11.9800   62.4440 C.3   199  ILE199      0.0019
     95  CG2        2.9700  -14.3690   62.7670 C.3   199  ILE199      0.0019
     96  CD1        3.4120  -11.1710   62.6500 C.3   199  ILE199      0.0001
     97  N         -2.9900  -16.6040   63.0460 N.3   202  LEU202     -0.1231
     98  CA        -2.9920  -17.0010   61.6340 C.3   202  LEU202      0.1693
     99  C         -2.2590  -18.3270   61.4390 C.2   202  LEU202      0.2591
    100  O         -2.7900  -19.2070   60.7620 O.2   202  LEU202     -0.2718
    101  CB        -2.3810  -15.9150   60.7290 C.3   202  LEU202      0.0284
    102  CG        -3.1510  -14.5950   60.5930 C.3   202  LEU202      0.0019
    103  CD1       -2.2970  -13.5390   59.9270 C.3   202  LEU202      0.0001
    104  CD2       -4.4630  -14.7760   59.8380 C.3   202  LEU202      0.0001
    105  N         -1.0790  -18.4930   62.0790 N.am  203  ARG203     -0.1980
    106  CA        -0.2720  -19.7180   62.0130 C.3   203  ARG203      0.1597
    107  C         -1.0410  -20.9200   62.5830 C.2   203  ARG203      0.2287
    108  O         -0.9240  -22.0190   62.0400 O.2   203  ARG203     -0.2864
    109  CB         1.0800  -19.5430   62.7260 C.3   203  ARG203      0.0334
    110  CG         2.0500  -18.6470   61.9560 C.3   203  ARG203      0.0492
    111  CD         3.4630  -18.6920   62.5090 C.3   203  ARG203      0.2205
    112  NE         4.2100  -19.8540   62.0190 N.pl3 203  ARG203     -0.0865
    113  CZ         4.9420  -19.8690   60.9080 C.cat 203  ARG203      0.5346
    114  NH1        5.5840  -20.9700   60.5460 N.pl3 203  ARG203      0.1354
    115  NH2        5.0340  -18.7820   60.1480 N.pl3 203  ARG203      0.1354
    116  N         -0.3050  -17.5460   57.1250 N.3   208  ALA208     -0.1245
    117  CA         0.9700  -16.8410   57.3590 C.3   208  ALA208      0.1562
    118  C          2.1700  -17.8290   57.4760 C.2   208  ALA208      0.2260
    119  O          3.1480  -17.5420   58.1710 O.2   208  ALA208     -0.2867
    120  CB         0.8730  -15.9600   58.6030 C.3   208  ALA208      0.0290
    121  N          5.5540  -16.6050   56.2600 N.3   211  GLY211     -0.1210
    122  CA         5.9360  -15.4260   57.0290 C.3   211  GLY211      0.1956
    123  C          7.2090  -15.5820   57.8300 C.2   211  GLY211      0.2613
    124  O          7.3890  -16.5820   58.5310 O.2   211  GLY211     -0.2717
    125  N          8.1050  -14.5830   57.7160 N.am  212  SER212     -0.1938
    126  CA         9.3930  -14.5110   58.4170 C.3   212  SER212      0.2055
    127  C          9.8280  -13.0430   58.5750 C.2   212  SER212      0.2642
    128  O          9.1390  -12.1460   58.0830 O.2   212  SER212     -0.2714
    129  CB        10.4630  -15.3250   57.6860 C.3   212  SER212      0.2130
    130  OG        10.7950  -14.7770   56.4210 O.3   212  SER212     -0.2179
    131  N         10.9690  -12.8000   59.2590 N.am  213  VAL213     -0.1977
    132  CA        11.5270  -11.4520   59.4590 C.3   213  VAL213      0.1596
    133  C         12.1060  -10.9090   58.1320 C.2   213  VAL213      0.2287
    134  O         12.3060   -9.6990   58.0000 O.2   213  VAL213     -0.2864
    135  CB        12.5740  -11.3750   60.6090 C.3   213  VAL213      0.0276
    136  CG1       11.9030  -11.4850   61.9750 C.3   213  VAL213      0.0022
    137  CG2       13.6840  -12.4180   60.4550 C.3   213  VAL213      0.0022
    138  N          8.4480   -9.7290   56.3750 N.3   216  ALA216     -0.1245
    139  CA         7.4250   -9.0470   57.1750 C.3   216  ALA216      0.1562
    140  C          8.0090   -8.3460   58.3890 C.2   216  ALA216      0.2260
    141  O          8.9560   -8.8520   59.0010 O.2   216  ALA216     -0.2867
    142  CB         6.3710  -10.0450   57.6360 C.3   216  ALA216      0.0290
    143  N          7.5690   -7.6590   62.0860 N.3   218  VAL218     -0.1245
    144  CA         6.8700   -8.2680   63.2190 C.3   218  VAL218      0.1561
    145  C          6.9520   -7.3070   64.3970 C.2   218  VAL218      0.2260
    146  O          8.0450   -6.9250   64.8150 O.2   218  VAL218     -0.2867
    147  CB         7.3930   -9.6900   63.5730 C.3   218  VAL218      0.0252
    148  CG1        6.5280  -10.3400   64.6510 C.3   218  VAL218      0.0019
    149  CG2        7.4490  -10.5790   62.3360 C.3   218  VAL218      0.0019
    150  N          3.0380    1.2600   53.5760 N.3   239  HIS239     -0.1226
    151  CA         2.6580   -0.0540   53.0500 C.3   239  HIS239      0.1752
    152  C          1.1540   -0.1040   52.7730 C.2   239  HIS239      0.2595
    153  O          0.7230   -0.8110   51.8570 O.2   239  HIS239     -0.2718
    154  CB         3.0780   -1.2180   53.9680 C.3   239  HIS239      0.0759
    155  CG         2.7860   -2.5450   53.3380 C.ar  239  HIS239      0.0818
    156  ND1        3.6030   -3.0650   52.3450 N.ar  239  HIS239     -0.2268
    157  CD2        1.7000   -3.3450   53.4730 C.ar  239  HIS239      0.1154
    158  CE1        3.0170   -4.1810   51.9480 C.ar  239  HIS239      0.1986
    159  NE2        1.8650   -4.3860   52.5940 N.ar  239  HIS239     -0.2212
    160  N          0.3630    0.6470   53.5550 N.am  240  LYS240     -0.1980
    161  CA        -1.0850    0.7340   53.3620 C.3   240  LYS240      0.1596
    162  C         -1.3790    1.5300   52.0840 C.2   240  LYS240      0.2287
    163  O         -2.3350    1.2060   51.3810 O.2   240  LYS240     -0.2864
    164  CB        -1.7780    1.3480   54.5920 C.3   240  LYS240      0.0298
    165  CG        -1.6840    0.4880   55.8670 C.3   240  LYS240      0.0038
    166  CD        -2.3800   -0.8860   55.7800 C.3   240  LYS240      0.0206
    167  CE        -3.8860   -0.8110   55.8650 C.3   240  LYS240      0.1093
    168  NZ        -4.5050   -2.1590   55.8710 N.3   240  LYS240     -0.1314
    169  N         -0.4900   -0.9320   49.2840 N.3   243  ASP243     -0.1239
    170  CA        -1.6090   -1.8680   49.1600 C.3   243  ASP243      0.1674
    171  C         -2.7810   -1.2400   48.4210 C.2   243  ASP243      0.2266
    172  O         -3.4130   -1.9200   47.6110 O.2   243  ASP243     -0.2867
    173  CB        -2.0770   -2.3490   50.5460 C.3   243  ASP243      0.1410
    174  CG        -1.2580   -3.4620   51.1670 C.2   243  ASP243      0.3668
    175  OD1       -0.3830   -4.0220   50.4670 O.co2 243  ASP243     -0.2456
    176  OD2       -1.5140   -3.7970   52.3410 O.co2 243  ASP243     -0.2456
    177  N         -8.1550   -4.3190   52.0270 N.3   266  HIS266     -0.1241
    178  CA        -8.4810   -4.9230   50.7290 C.3   266  HIS266      0.1621
    179  C        -10.0020   -5.0810   50.5010 C.2   266  HIS266      0.2264
    180  O        -10.4530   -4.9170   49.3670 O.2   266  HIS266     -0.2867
    181  CB        -7.7880   -6.2870   50.5710 C.3   266  HIS266      0.0745
    182  CG        -6.3210   -6.2560   50.8670 C.ar  266  HIS266      0.0817
    183  ND1       -5.4410   -5.5200   50.0900 N.ar  266  HIS266     -0.2268
    184  CD2       -5.6270   -6.8620   51.8580 C.ar  266  HIS266      0.1154
    185  CE1       -4.2500   -5.6970   50.6330 C.ar  266  HIS266      0.1986
    186  NE2       -4.3090   -6.4990   51.6960 N.ar  266  HIS266     -0.2212
@<TRIPOS>BOND
     1    52    51    2
     2    51    50    1
     3    43    42    2
     4    40    41    1
     5    42    41    1
     6    42    49   am
     7    41    44    1
     8    36    35    2
     9    50    49    1
    10    50    53    1
    11    35    34    1
    12    44    45    1
    13    53    54    1
    14    33    34    1
    15    34    37    1
    16   172   171    2
    17    47    46   ar
    18    45    46    1
    19    37    39    1
    20    37    38    1
    21    54    56   ar
    22    54    55   ar
    23   171   170    1
    24    46    48   ar
    25    56    58   ar
    26   170   169    1
    27   170   173    1
    28    55    57   ar
    29   180   179    2
    30    29    30    2
    31    29    28    1
    32    32    31    1
    33   183   185   ar
    34   183   182   ar
    35    58    57   ar
    36   175   174   ar
    37    31    28    1
    38   179   178    1
    39   173   174    1
    40   181   178    1
    41   181   182    1
    42   185   186   ar
    43   178   177    1
    44   182   184   ar
    45    28    27    1
    46     1     2    1
    47   174   176   ar
    48   163   162    2
    49   186   184   ar
    50   153   152    2
    51   158   156   ar
    52   158   159   ar
    53   162   161    1
    54    27    21   am
    55   156   155   ar
    56     2     5    1
    57     2     3    1
    58     5     6    1
    59   159   157   ar
    60   152   151    1
    61   152   160   am
    62     9     3   am
    63     9    10    1
    64    16    14   ar
    65    16    18   ar
    66   151   150    1
    67   151   154    1
    68   155   157   ar
    69   155   154    1
    70   161   160    1
    71   161   164    1
    72    21    22    2
    73    21    20    1
    74     3     4    2
    75    13    10    1
    76    13    14    1
    77    11    10    1
    78    11    12    2
    79    14    15   ar
    80    18    17   ar
    81     8     6    1
    82     6     7    1
    83    59    60    1
    84    63    65    1
    85    63    64    1
    86    63    60    1
    87    19    20    1
    88    20    23    1
    89   164   165    1
    90    60    61    1
    91    23    24    1
    92    17    15   ar
    93   166   167    1
    94   166   165    1
    95   167   168    1
    96   121   122    1
    97   138   139    1
    98    24    25    1
    99   130   129    1
   100    61    62    2
   101    61    66   am
   102   122   123    1
   103   116   117    1
   104   139   142    1
   105   139   140    1
   106    66    67    1
   107   117   118    1
   108   117   120    1
   109   118   119    2
   110   129   126    1
   111   125   123   am
   112   125   126    1
   113    25    26    1
   114   123   124    2
   115    74    72   ar
   116    74    76   ar
   117   134   133    2
   118    72    71   ar
   119   128   127    2
   120   133   132    1
   121   140   141    2
   122   126   127    1
   123   127   131   am
   124    67    70    1
   125    67    68    1
   126    69    68    2
   127    76    75   ar
   128    71    70    1
   129    71    73   ar
   130   131   132    1
   131    68    77   am
   132   132   135    1
   133   104   102    1
   134   103   102    1
   135    75    73   ar
   136   115   113    1
   137   137   135    1
   138   114   113    1
   139   102   101    1
   140   135   136    1
   141    77    78    1
   142   101    98    1
   143   100    99    2
   144   113   112    2
   145    99    98    1
   146    99   105   am
   147    78    79    1
   148    98    97    1
   149   110   111    1
   150   110   109    1
   151   106   105    1
   152   106   107    1
   153   106   109    1
   154   112   111    1
   155   108   107    2
   156   143   144    1
   157   149   147    1
   158    94    96    1
   159    94    93    1
   160    95    93    1
   161    79    80    2
   162   144   147    1
   163   144   145    1
   164    92    91    2
   165    93    90    1
   166    90    91    1
   167    90    89    1
   168   147   148    1
   169   145   146    2
   170    81    82    1
   171    84    83    2
   172    82    83    1
   173    82    85    1
   174    87    88    1
   175    87    86    1
   176    85    86    1
