@<TRIPOS>MOLECULE
tmp/4fw5C00.pdb
 190 182 0 0 0
SMALL
GASTEIGER

@<TRIPOS>ATOM
      1  N        -19.2260   -0.1490   68.6320 N.3    21  LEU21      -0.1231
      2  CA       -19.1660    0.3520   70.0250 C.3    21  LEU21       0.1693
      3  C        -18.2110    1.5380   70.1900 C.2    21  LEU21       0.2592
      4  O        -18.5950    2.5360   70.7940 O.2    21  LEU21      -0.2718
      5  CB       -18.7670   -0.7560   71.0140 C.3    21  LEU21       0.0284
      6  CG       -18.4540   -0.3250   72.4970 C.3    21  LEU21       0.0019
      7  CD1      -19.6840    0.2460   73.2130 C.3    21  LEU21       0.0001
      8  CD2      -17.8410   -1.4670   73.2870 C.3    21  LEU21       0.0001
      9  N        -16.9740    1.4360   69.6720 N.am   22  HIS22      -0.1976
     10  CA       -15.9900    2.4950   69.8920 C.3    22  HIS22       0.1656
     11  C        -16.0710    3.6230   68.8450 C.2    22  HIS22       0.2291
     12  O        -16.0230    4.7940   69.2380 O.2    22  HIS22      -0.2864
     13  CB       -14.5850    1.9000   70.0230 C.3    22  HIS22       0.0771
     14  CG       -14.4820    0.9860   71.2120 C.ar   22  HIS22       0.0820
     15  ND1      -14.5630    1.4780   72.5080 N.ar   22  HIS22      -0.2267
     16  CD2      -14.3710   -0.3640   71.2670 C.ar   22  HIS22       0.1154
     17  CE1      -14.4760    0.4210   73.3040 C.ar   22  HIS22       0.1986
     18  NE2      -14.3500   -0.7070   72.6100 N.ar   22  HIS22      -0.2212
     19  N         -9.0110   -1.4190   73.8980 N.3    65  MET65      -0.1230
     20  CA       -10.2590   -1.6770   74.6300 C.3    65  MET65       0.1702
     21  C        -10.9700   -2.9190   74.0910 C.2    65  MET65       0.2593
     22  O        -11.8440   -3.4790   74.7500 O.2    65  MET65      -0.2718
     23  CB       -11.1910   -0.4630   74.5410 C.3    65  MET65       0.0401
     24  CG       -10.5970    0.8000   75.1510 C.3    65  MET65       0.0596
     25  SD       -11.4050    1.2850   76.6790 S.3    65  MET65      -0.1393
     26  CE       -12.8160    2.0560   76.0420 C.3    65  MET65       0.0692
     27  N        -10.5980   -3.3280   72.8840 N.am   66  SER66      -0.1952
     28  CA       -11.1390   -4.4930   72.1770 C.3    66  SER66       0.1924
     29  C        -10.0150   -5.1780   71.4190 C.2    66  SER66       0.2314
     30  O         -8.9000   -4.6570   71.3850 O.2    66  SER66      -0.2863
     31  CB       -12.2270   -4.0360   71.2040 C.3    66  SER66       0.2116
     32  OG       -11.7340   -3.0230   70.3390 O.3    66  SER66      -0.2180
     33  N        -13.0530   -4.6980   67.3230 N.3    78  THR78      -0.1218
     34  CA       -13.9910   -5.4030   68.2180 C.3    78  THR78       0.1862
     35  C        -14.5180   -6.6880   67.5890 C.2    78  THR78       0.2287
     36  O        -15.7190   -6.8310   67.3500 O.2    78  THR78      -0.2866
     37  CB       -15.1470   -4.4600   68.6600 C.3    78  THR78       0.1770
     38  OG1      -14.6140   -3.1460   68.8650 O.3    78  THR78      -0.2211
     39  CG2      -15.8470   -4.9340   69.9540 C.3    78  THR78       0.0375
     40  N        -14.0100   -9.7660   69.0880 N.3    80  GLU80      -0.1231
     41  CA       -14.1610  -10.7620   70.1520 C.3    80  GLU80       0.1699
     42  C        -15.5820  -11.2990   70.4100 C.2    80  GLU80       0.2592
     43  O        -15.6940  -12.4760   70.7120 O.2    80  GLU80      -0.2718
     44  CB       -13.5630  -10.2700   71.4790 C.3    80  GLU80       0.0402
     45  CG       -14.1510   -8.9690   72.0040 C.3    80  GLU80       0.1161
     46  CD       -13.4710   -7.6670   71.6230 C.2    80  GLU80       0.3649
     47  OE1      -12.8650   -7.5710   70.5320 O.co2  80  GLU80      -0.2457
     48  OE2      -13.5790   -6.7200   72.4300 O.co2  80  GLU80      -0.2457
     49  N        -16.6390  -10.4740   70.3560 N.am   81  HIS81      -0.1976
     50  CA       -17.9900  -10.9880   70.6590 C.3    81  HIS81       0.1656
     51  C        -18.5170  -11.8400   69.5190 C.2    81  HIS81       0.2291
     52  O        -19.1220  -12.9000   69.7610 O.2    81  HIS81      -0.2864
     53  CB       -18.9670   -9.8530   70.9980 C.3    81  HIS81       0.0771
     54  CG       -18.4840   -8.9840   72.1170 C.ar   81  HIS81       0.0820
     55  ND1      -19.0060   -7.7280   72.3180 N.ar   81  HIS81      -0.2267
     56  CD2      -17.5030   -9.2020   73.0320 C.ar   81  HIS81       0.1154
     57  CE1      -18.3370   -7.2170   73.3440 C.ar   81  HIS81       0.1986
     58  NE2      -17.4350   -8.0810   73.8160 N.ar   81  HIS81      -0.2212
     59  N        -21.0710   -6.5340   77.7080 N.3   193  THR193     -0.1203
     60  CA       -19.8710   -5.7580   78.0210 C.3   193  THR193      0.1994
     61  C        -20.2530   -4.7020   79.0550 C.2   193  THR193      0.2618
     62  O        -21.4420   -4.4340   79.2840 O.2   193  THR193     -0.2717
     63  CB       -19.2450   -5.1640   76.7470 C.3   193  THR193      0.1784
     64  OG1      -17.9330   -4.6980   77.0790 O.3   193  THR193     -0.2211
     65  CG2      -20.0890   -4.0540   76.1210 C.3   193  THR193      0.0376
     66  N        -19.2480   -4.0920   79.6660 N.am  194  PHE194     -0.1961
     67  CA       -19.4930   -3.1610   80.7330 C.3   194  PHE194      0.1771
     68  C        -18.4670   -2.0280   80.7250 C.2   194  PHE194      0.2620
     69  O        -17.3210   -2.2200   80.3220 O.2   194  PHE194     -0.2715
     70  CB       -19.5040   -3.9250   82.0820 C.3   194  PHE194      0.0574
     71  CG       -18.2700   -4.7450   82.3780 C.ar  194  PHE194     -0.0200
     72  CD1      -18.2120   -6.0980   82.0410 C.ar  194  PHE194     -0.0042
     73  CD2      -17.1770   -4.1790   83.0290 C.ar  194  PHE194     -0.0042
     74  CE1      -17.0840   -6.8650   82.3370 C.ar  194  PHE194     -0.0003
     75  CE2      -16.0390   -4.9460   83.3100 C.ar  194  PHE194     -0.0003
     76  CZ       -16.0020   -6.2860   82.9650 C.ar  194  PHE194     -0.0000
     77  N        -18.9050   -0.8610   81.1600 N.am  195  GLY195     -0.1940
     78  CA       -18.0690    0.3320   81.2110 C.3   195  GLY195      0.2014
     79  C        -18.3540    1.2520   82.3730 C.2   195  GLY195      0.2639
     80  O        -19.3200    1.0480   83.1110 O.2   195  GLY195     -0.2714
     81  N        -17.5170    2.2880   82.5210 N.am  196  PHE196     -0.1959
     82  CA       -17.6070    3.2630   83.6060 C.3   196  PHE196      0.1771
     83  C        -17.8670    4.6690   83.0630 C.2   196  PHE196      0.2619
     84  O        -17.3190    5.0510   82.0260 O.2   196  PHE196     -0.2715
     85  CB       -16.3120    3.2470   84.4380 C.3   196  PHE196      0.0574
     86  CG       -15.9440    1.9020   85.0260 C.ar  196  PHE196     -0.0200
     87  CD1      -16.3970    1.5290   86.2830 C.ar  196  PHE196     -0.0042
     88  CD2      -15.1440    1.0090   84.3190 C.ar  196  PHE196     -0.0042
     89  CE1      -16.0370    0.3010   86.8380 C.ar  196  PHE196     -0.0003
     90  CE2      -14.8080   -0.2350   84.8600 C.ar  196  PHE196     -0.0003
     91  CZ       -15.2390   -0.5730   86.1270 C.ar  196  PHE196     -0.0000
     92  N        -18.7140    5.4280   83.7570 N.am  197  MET197     -0.1977
     93  CA       -19.0730    6.8090   83.3930 C.3   197  MET197      0.1605
     94  C        -17.9730    7.8120   83.7440 C.2   197  MET197      0.2287
     95  O        -18.0090    8.9380   83.2570 O.2   197  MET197     -0.2864
     96  CB       -20.3700    7.2190   84.0920 C.3   197  MET197      0.0413
     97  CG       -21.5890    6.5590   83.5230 C.3   197  MET197      0.0598
     98  SD       -22.3460    7.5160   82.1930 S.3   197  MET197     -0.1393
     99  CE       -23.2880    8.6860   83.1460 C.3   197  MET197      0.0692
    100  N        -15.5230    8.4710   80.4950 N.3   200  ILE200     -0.1245
    101  CA       -16.2220    8.6900   79.2140 C.3   200  ILE200      0.1561
    102  C        -15.6120    9.8140   78.3490 C.2   200  ILE200      0.2260
    103  O        -15.4160    9.5790   77.1570 O.2   200  ILE200     -0.2867
    104  CB       -17.7580    8.9170   79.3340 C.3   200  ILE200      0.0252
    105  CG1      -18.1500   10.1550   80.1650 C.3   200  ILE200      0.0019
    106  CG2      -18.4880    7.6750   79.7750 C.3   200  ILE200      0.0019
    107  CD1      -18.7660   11.2710   79.3490 C.3   200  ILE200      0.0001
    108  N        -12.2880    8.8160   76.8870 N.3   203  LEU203     -0.1231
    109  CA       -12.6320    7.7490   75.9440 C.3   203  LEU203      0.1693
    110  C        -13.0660    8.3300   74.6080 C.2   203  LEU203      0.2591
    111  O        -12.3960    8.0830   73.6100 O.2   203  LEU203     -0.2718
    112  CB       -13.7430    6.8320   76.5000 C.3   203  LEU203      0.0284
    113  CG       -13.4490    5.9920   77.7480 C.3   203  LEU203      0.0019
    114  CD1      -14.5960    5.0440   78.0360 C.3   203  LEU203      0.0001
    115  CD2      -12.1300    5.2460   77.6420 C.3   203  LEU203      0.0001
    116  N        -14.1400    9.1470   74.6070 N.am  204  ARG204     -0.1980
    117  CA       -14.7070    9.7980   73.4220 C.3   204  ARG204      0.1597
    118  C        -13.6550   10.6100   72.6460 C.2   204  ARG204      0.2287
    119  O        -13.5640   10.4420   71.4290 O.2   204  ARG204     -0.2864
    120  CB       -15.9060   10.6910   73.7990 C.3   204  ARG204      0.0334
    121  CG       -16.9990    9.9140   74.5300 C.3   204  ARG204      0.0492
    122  CD       -18.3710   10.0550   73.9250 C.3   204  ARG204      0.2205
    123  NE       -19.2420    8.9650   74.3680 N.pl3 204  ARG204     -0.0865
    124  CZ       -20.5130    8.8200   74.0060 C.cat 204  ARG204      0.5346
    125  NH1      -21.0850    9.7030   73.1920 N.pl3 204  ARG204      0.1354
    126  NH2      -21.2230    7.7920   74.4530 N.pl3 204  ARG204      0.1354
    127  N        -15.7950    4.2700   72.7720 N.3   209  ALA209     -0.1245
    128  CA       -17.1560    4.1790   73.3170 C.3   209  ALA209      0.1562
    129  C        -18.1480    5.2160   72.7210 C.2   209  ALA209      0.2260
    130  O        -19.1380    5.5410   73.3870 O.2   209  ALA209     -0.2867
    131  CB       -17.1230    4.3120   74.8450 C.3   209  ALA209      0.0290
    132  N        -21.4240    3.6580   72.6090 N.3   212  GLY212     -0.1210
    133  CA       -21.8000    3.1300   73.9210 C.3   212  GLY212      0.1956
    134  C        -22.9840    3.8060   74.5870 C.2   212  GLY212      0.2612
    135  O        -23.0770    5.0320   74.5900 O.2   212  GLY212     -0.2717
    136  N        -23.9040    2.9950   75.1500 N.am  213  SER213     -0.1952
    137  CA       -25.1000    3.3940   75.9100 C.3   213  SER213      0.1924
    138  C        -25.5880    2.2000   76.7730 C.2   213  SER213      0.2314
    139  O        -25.0570    1.1000   76.6370 O.2   213  SER213     -0.2863
    140  CB       -26.2110    3.8660   74.9660 C.3   213  SER213      0.2116
    141  OG       -26.9820    2.7660   74.5070 O.3   213  SER213     -0.2180
    142  N        -24.5590   -2.0380   76.7000 N.3   217  ALA217     -0.1245
    143  CA       -23.5440   -2.2200   77.7450 C.3   217  ALA217      0.1562
    144  C        -24.1090   -2.0800   79.1320 C.2   217  ALA217      0.2260
    145  O        -25.0560   -1.3140   79.3300 O.2   217  ALA217     -0.2867
    146  CB       -22.4330   -1.1790   77.5780 C.3   217  ALA217      0.0290
    147  N        -23.7680   -0.1870   82.1450 N.3   219  VAL219     -0.1245
    148  CA       -23.1450    1.0950   82.4420 C.3   219  VAL219      0.1561
    149  C        -23.1360    1.2650   83.9460 C.2   219  VAL219      0.2260
    150  O        -24.1800    1.1820   84.5930 O.2   219  VAL219     -0.2867
    151  CB       -23.8040    2.2870   81.7070 C.3   219  VAL219      0.0252
    152  CG1      -23.0000    3.5600   81.9420 C.3   219  VAL219      0.0019
    153  CG2      -23.9230    2.0060   80.2130 C.3   219  VAL219      0.0019
    154  N        -18.8730  -12.1080   81.1790 N.3   240  HIS240     -0.1226
    155  CA       -18.5010  -11.3900   79.9530 C.3   240  HIS240      0.1752
    156  C        -17.0040  -11.5310   79.7260 C.2   240  HIS240      0.2595
    157  O        -16.5650  -11.5880   78.5800 O.2   240  HIS240     -0.2718
    158  CB       -18.8960   -9.8960   79.9500 C.3   240  HIS240      0.0759
    159  CG       -18.6490   -9.2710   78.5950 C.ar  240  HIS240      0.0818
    160  ND1      -19.5080   -9.4990   77.5360 N.ar  240  HIS240     -0.2268
    161  CD2      -17.5760   -8.5720   78.1400 C.ar  240  HIS240      0.1154
    162  CE1      -18.9710   -8.8940   76.4850 C.ar  240  HIS240      0.1986
    163  NE2      -17.8050   -8.3260   76.7910 N.ar  240  HIS240     -0.2212
    164  N        -16.2120  -11.5890   80.8040 N.am  241  LYS241     -0.1980
    165  CA       -14.7570  -11.7470   80.6260 C.3   241  LYS241      0.1596
    166  C        -14.4540  -13.1230   80.0060 C.2   241  LYS241      0.2287
    167  O        -13.5480  -13.2420   79.1910 O.2   241  LYS241     -0.2864
    168  CB       -14.0090  -11.5520   81.9530 C.3   241  LYS241      0.0298
    169  CG       -14.0750  -10.1120   82.4870 C.3   241  LYS241      0.0038
    170  CD       -13.4010   -9.0400   81.5850 C.3   241  LYS241      0.0206
    171  CE       -11.8920   -9.0830   81.6070 C.3   241  LYS241      0.1093
    172  NZ       -11.3100   -7.9120   80.9080 N.3   241  LYS241     -0.1314
    173  N        -15.3330  -12.8620   76.2690 N.3   244  ASP244     -0.1239
    174  CA       -14.2100  -12.1970   75.6050 C.3   244  ASP244      0.1674
    175  C        -13.0500  -13.1520   75.4040 C.2   244  ASP244      0.2266
    176  O        -12.4790  -13.1850   74.3170 O.2   244  ASP244     -0.2867
    177  CB       -13.7020  -11.0230   76.4280 C.3   244  ASP244      0.1410
    178  CG       -14.5240   -9.7770   76.3130 C.2   244  ASP244      0.3668
    179  OD1      -15.3520   -9.6950   75.3670 O.co2 244  ASP244     -0.2456
    180  OD2      -14.2970   -8.8520   77.1220 O.co2 244  ASP244     -0.2456
    181  N         -7.5780   -8.4220   76.6200 N.3   267  HIS267     -0.1241
    182  CA        -7.3090   -8.7020   75.2050 C.3   267  HIS267      0.1621
    183  C         -5.8170   -8.8370   74.9110 C.2   267  HIS267      0.2264
    184  O         -5.4270   -9.7870   74.2260 O.2   267  HIS267     -0.2867
    185  CB        -7.9200   -7.6230   74.3350 C.3   267  HIS267      0.0745
    186  CG        -9.3890   -7.4940   74.5510 C.ar  267  HIS267      0.0817
    187  ND1      -10.2450   -8.5660   74.3500 N.ar  267  HIS267     -0.2268
    188  CD2      -10.1050   -6.4330   74.9860 C.ar  267  HIS267      0.1154
    189  CE1      -11.4530   -8.1160   74.6400 C.ar  267  HIS267      0.1986
    190  NE2      -11.4210   -6.8330   75.0120 N.ar  267  HIS267     -0.2212
@<TRIPOS>BOND
     1    33    34    1
     2    36    35    2
     3    35    34    1
     4    34    37    1
     5     1     2    1
     6    37    38    1
     7    37    39    1
     8    11    12    2
     9    11    10    1
    10    40    41    1
    11    51    52    2
    12    51    50    1
    13     9    10    1
    14     9     3   am
    15    10    13    1
    16    13    14    1
    17     2     3    1
    18     2     5    1
    19    41    42    1
    20    41    44    1
    21     3     4    2
    22    32    31    1
    23    49    42   am
    24    49    50    1
    25    42    43    2
    26    47    46   ar
    27    50    53    1
    28    53    54    1
    29     5     6    1
    30    31    28    1
    31    14    16   ar
    32    14    15   ar
    33    16    18   ar
    34    30    29    2
    35    29    28    1
    36   119   118    2
    37    44    45    1
    38    46    45    1
    39    46    48   ar
    40    54    55   ar
    41    54    56   ar
    42    28    27    1
    43    55    57   ar
    44     6     7    1
    45     6     8    1
    46    15    17   ar
    47   132   133    1
    48    18    17   ar
    49   118   117    1
    50   129   128    1
    51   129   130    2
    52   127   128    1
    53    27    21   am
    54    56    58   ar
    55   125   124    1
    56   128   131    1
    57    57    58   ar
    58   117   120    1
    59   117   116    1
    60   111   110    2
    61   120   121    1
    62    19    20    1
    63   133   134    1
    64   122   123    1
    65   122   121    1
    66   124   123    2
    67   124   126    1
    68    21    20    1
    69    21    22    2
    70   184   183    2
    71   176   175    2
    72   185   186    1
    73   185   182    1
    74   187   186   ar
    75   187   189   ar
    76   141   140    1
    77    23    20    1
    78    23    24    1
    79   186   188   ar
    80   134   135    2
    81   134   136   am
    82   116   110   am
    83   110   109    1
    84   189   190   ar
    85   183   182    1
    86   140   137    1
    87   188   190   ar
    88   136   137    1
    89    24    25    1
    90   182   181    1
    91   179   178   ar
    92   175   174    1
    93   174   173    1
    94   174   177    1
    95   137   138    1
    96   109   112    1
    97   109   108    1
    98    26    25    1
    99    65    63    1
   100   178   177    1
   101   178   180   ar
   102   162   163   ar
   103   162   160   ar
   104   112   113    1
   105   139   138    2
   106   142   143    1
   107    63    64    1
   108    63    60    1
   109   163   161   ar
   110   103   102    2
   111   160   159   ar
   112   146   143    1
   113   115   113    1
   114    59    60    1
   115   143   144    1
   116   113   114    1
   117    60    61    1
   118   161   159   ar
   119   102   101    1
   120   157   156    2
   121   159   158    1
   122    61    62    2
   123    61    66   am
   124   144   145    2
   125   167   166    2
   126   101   104    1
   127   101   100    1
   128   104   106    1
   129   104   105    1
   130   107   105    1
   131    66    67    1
   132   156   155    1
   133   156   164   am
   134   158   155    1
   135   155   154    1
   136   166   165    1
   137   153   151    1
   138    69    68    2
   139   165   164    1
   140   165   168    1
   141    68    67    1
   142    68    77   am
   143    67    70    1
   144   172   171    1
   145    77    78    1
   146    78    79    1
   147   170   171    1
   148   170   169    1
   149   151   152    1
   150   151   148    1
   151   168   169    1
   152    84    83    2
   153    72    74   ar
   154    72    71   ar
   155    70    71    1
   156   147   148    1
   157    98    99    1
   158    98    97    1
   159    74    76   ar
   160    79    81   am
   161    79    80    2
   162    71    73   ar
   163   148   149    1
   164    81    82    1
   165    76    75   ar
   166    73    75   ar
   167    83    82    1
   168    83    92   am
   169    95    94    2
   170    93    94    1
   171    93    92    1
   172    93    96    1
   173    97    96    1
   174    82    85    1
   175   149   150    2
   176    88    90   ar
   177    88    86   ar
   178    85    86    1
   179    90    91   ar
   180    86    87   ar
   181    91    89   ar
   182    87    89   ar
