@<TRIPOS>MOLECULE
tmp/4fw6C00.pdb
 190 181 0 0 0
SMALL
GASTEIGER

@<TRIPOS>ATOM
      1  N         36.2940   77.6330   15.8610 N.3    21  LEU21      -0.1231
      2  CA        36.2680   78.1260   14.4810 C.3    21  LEU21       0.1693
      3  C         35.2940   79.3170   14.3180 C.2    21  LEU21       0.2592
      4  O         35.6460   80.3000   13.6640 O.2    21  LEU21      -0.2718
      5  CB        35.8910   76.9820   13.5080 C.3    21  LEU21       0.0284
      6  CG        35.6010   77.3550   12.0360 C.3    21  LEU21       0.0019
      7  CD1       36.8330   77.8940   11.3440 C.3    21  LEU21       0.0001
      8  CD2       35.0920   76.1470   11.2610 C.3    21  LEU21       0.0001
      9  N         34.0800   79.2150   14.8960 N.am   22  HIS22      -0.1976
     10  CA        33.0350   80.2230   14.7370 C.3    22  HIS22       0.1656
     11  C         33.0710   81.3220   15.7800 C.2    22  HIS22       0.2291
     12  O         32.7840   82.4770   15.4460 O.2    22  HIS22      -0.2864
     13  CB        31.6560   79.5510   14.7170 C.3    22  HIS22       0.0771
     14  CG        31.5160   78.6510   13.5270 C.ar   22  HIS22       0.0820
     15  ND1       31.5740   79.1550   12.2390 N.ar   22  HIS22      -0.2267
     16  CD2       31.4520   77.3030   13.4650 C.ar   22  HIS22       0.1154
     17  CE1       31.4900   78.1020   11.4420 C.ar   22  HIS22       0.1986
     18  NE2       31.4120   76.9710   12.1360 N.ar   22  HIS22      -0.2212
     19  N         26.1610   76.0060   10.5240 N.3    65  MET65      -0.1230
     20  CA        27.4240   75.7340    9.8520 C.3    65  MET65       0.1702
     21  C         28.1270   74.5380   10.4900 C.2    65  MET65       0.2593
     22  O         29.0500   73.9800    9.8990 O.2    65  MET65      -0.2718
     23  CB        28.3330   76.9840    9.8720 C.3    65  MET65       0.0401
     24  CG        27.8820   78.1020    8.9370 C.3    65  MET65       0.0596
     25  SD        27.6920   77.5740    7.2000 S.3    65  MET65      -0.1393
     26  CE        25.9270   77.7310    6.9660 C.3    65  MET65       0.0692
     27  N         27.6830   74.1400   11.6870 N.am   66  SER66      -0.1952
     28  CA        28.2660   73.0470   12.4510 C.3    66  SER66       0.1924
     29  C         27.2160   72.3740   13.3040 C.2    66  SER66       0.2314
     30  O         26.1050   72.9030   13.4370 O.2    66  SER66      -0.2863
     31  CB        29.3950   73.5700   13.3400 C.3    66  SER66       0.2116
     32  OG        28.9040   74.4950   14.3000 O.3    66  SER66      -0.2180
     33  N         31.3310   67.8810   15.6000 N.3    80  GLU80      -0.1231
     34  CA        31.4670   66.8710   14.5560 C.3    80  GLU80       0.1699
     35  C         32.8780   66.3360   14.3430 C.2    80  GLU80       0.2592
     36  O         32.9970   65.1360   14.1020 O.2    80  GLU80      -0.2718
     37  CB        30.8820   67.3230   13.1950 C.3    80  GLU80       0.0402
     38  CG        31.4190   68.6210   12.6170 C.3    80  GLU80       0.1161
     39  CD        30.7510   69.9190   13.0320 C.2    80  GLU80       0.3649
     40  OE1       30.1520   69.9700   14.1320 O.co2  80  GLU80      -0.2457
     41  OE2       30.8520   70.9010   12.2580 O.co2  80  GLU80      -0.2457
     42  N         33.9300   67.1820   14.3480 N.am   81  HIS81      -0.1976
     43  CA        35.2500   66.6210   14.0140 C.3    81  HIS81       0.1656
     44  C         35.7700   65.7550   15.1430 C.2    81  HIS81       0.2291
     45  O         36.3640   64.7030   14.9000 O.2    81  HIS81      -0.2864
     46  CB        36.2680   67.7350   13.6710 C.3    81  HIS81       0.0771
     47  CG        35.8090   68.6030   12.5450 C.ar   81  HIS81       0.0820
     48  ND1       36.4040   69.8190   12.2850 N.ar   81  HIS81      -0.2267
     49  CD2       34.8280   68.3930   11.6350 C.ar   81  HIS81       0.1154
     50  CE1       35.7330   70.3270   11.2500 C.ar   81  HIS81       0.1986
     51  NE2       34.7560   69.5170   10.8610 N.ar   81  HIS81      -0.2212
     52  N         29.1730   71.4440   -5.7580 N.3   163  PHE163     -0.1241
     53  CA        29.3870   72.8790   -5.5190 C.3   163  PHE163      0.1605
     54  C         29.6150   73.5750   -6.8580 C.2   163  PHE163      0.2264
     55  O         30.4340   73.1190   -7.6620 O.2   163  PHE163     -0.2867
     56  CB        30.5380   73.1470   -4.5280 C.3   163  PHE163      0.0534
     57  CG        30.3240   72.6000   -3.1320 C.ar  163  PHE163     -0.0203
     58  CD1       30.9920   71.4600   -2.7060 C.ar  163  PHE163     -0.0042
     59  CD2       29.4790   73.2440   -2.2350 C.ar  163  PHE163     -0.0042
     60  CE1       30.7990   70.9570   -1.4130 C.ar  163  PHE163     -0.0003
     61  CE2       29.2840   72.7410   -0.9450 C.ar  163  PHE163     -0.0003
     62  CZ        29.9490   71.6030   -0.5400 C.ar  163  PHE163     -0.0000
     63  N         38.3260   71.0090    6.9430 N.3   193  THR193     -0.1203
     64  CA        37.1340   71.7820    6.6090 C.3   193  THR193      0.1994
     65  C         37.4960   72.7890    5.5050 C.2   193  THR193      0.2618
     66  O         38.6720   73.0770    5.3160 O.2   193  THR193     -0.2717
     67  CB        36.5230   72.4550    7.8290 C.3   193  THR193      0.1784
     68  OG1       35.2710   72.9910    7.4190 O.3   193  THR193     -0.2211
     69  CG2       37.4110   73.5300    8.4430 C.3   193  THR193      0.0376
     70  N         36.4960   73.3190    4.8020 N.am  194  PHE194     -0.1961
     71  CA        36.7300   74.2280    3.6850 C.3   194  PHE194      0.1771
     72  C         35.6000   75.2370    3.5440 C.2   194  PHE194      0.2620
     73  O         34.4680   74.9930    3.9570 O.2   194  PHE194     -0.2715
     74  CB        36.8780   73.4120    2.3700 C.3   194  PHE194      0.0574
     75  CG        35.6700   72.5530    2.0480 C.ar  194  PHE194     -0.0200
     76  CD1       35.5630   71.2550    2.5400 C.ar  194  PHE194     -0.0042
     77  CD2       34.6510   73.0340    1.2350 C.ar  194  PHE194     -0.0042
     78  CE1       34.4560   70.4600    2.2360 C.ar  194  PHE194     -0.0003
     79  CE2       33.5190   72.2370    0.9480 C.ar  194  PHE194     -0.0003
     80  CZ        33.4260   70.9600    1.4630 C.ar  194  PHE194     -0.0000
     81  N         35.9130   76.3340    2.8870 N.am  195  GLY195     -0.1954
     82  CA        34.9420   77.3670    2.5900 C.3   195  GLY195      0.1869
     83  C         35.3470   78.1920    1.3880 C.2   195  GLY195      0.2309
     84  O         36.5400   78.3520    1.1060 O.2   195  GLY195     -0.2863
     85  N         35.6970   81.7550   -0.3060 N.3   197  MET197     -0.1245
     86  CA        36.0640   83.0910    0.1940 C.3   197  MET197      0.1570
     87  C         34.8690   84.0630    0.2980 C.2   197  MET197      0.2261
     88  O         34.7570   84.7470    1.3130 O.2   197  MET197     -0.2867
     89  CB        37.1760   83.7140   -0.6730 C.3   197  MET197      0.0387
     90  CG        37.8490   84.9340   -0.0480 C.3   197  MET197      0.0595
     91  SD        38.5380   84.6550    1.6130 S.3   197  MET197     -0.1393
     92  CE        39.4190   86.1980    1.8480 C.3   197  MET197      0.0692
     93  N         32.6140   82.8880    3.1300 N.3   200  ILE200     -0.1245
     94  CA        33.3810   83.1660    4.3540 C.3   200  ILE200      0.1561
     95  C         33.2180   84.6530    4.7570 C.2   200  ILE200      0.2260
     96  O         33.0600   84.9500    5.9410 O.2   200  ILE200     -0.2867
     97  CB        34.8790   82.7690    4.1600 C.3   200  ILE200      0.0252
     98  CG1       35.0640   81.2380    4.2420 C.3   200  ILE200      0.0019
     99  CG2       35.8070   83.4830    5.1590 C.3   200  ILE200      0.0019
    100  CD1       36.3980   80.7030    3.6680 C.3   200  ILE200      0.0001
    101  N         29.7180   85.0940    6.0470 N.3   203  LEU203     -0.1231
    102  CA        29.6430   84.4580    7.3650 C.3   203  LEU203      0.1693
    103  C         30.2200   85.3590    8.4480 C.2   203  LEU203      0.2591
    104  O         29.5820   85.5250    9.4860 O.2   203  LEU203     -0.2718
    105  CB        30.3740   83.1020    7.3870 C.3   203  LEU203      0.0284
    106  CG        29.7310   81.9460    6.6390 C.3   203  LEU203      0.0019
    107  CD1       30.6810   80.7710    6.5760 C.3   203  LEU203      0.0001
    108  CD2       28.4000   81.5310    7.2760 C.3   203  LEU203      0.0001
    109  N         31.4100   85.9540    8.2080 N.am  204  ARG204     -0.1980
    110  CA        32.0550   86.8470    9.1780 C.3   204  ARG204      0.1597
    111  C         31.2590   88.1540    9.3800 C.2   204  ARG204      0.2287
    112  O         31.3170   88.7290   10.4690 O.2   204  ARG204     -0.2864
    113  CB        33.5100   87.1390    8.7910 C.3   204  ARG204      0.0334
    114  CG        34.4940   86.3810    9.6760 C.3   204  ARG204      0.0492
    115  CD        35.7680   86.0170    8.9470 C.3   204  ARG204      0.2205
    116  NE        36.8690   86.9180    9.2870 N.pl3 204  ARG204     -0.0865
    117  CZ        37.7540   86.6870   10.2520 C.cat 204  ARG204      0.5346
    118  NH1       38.7250   87.5570   10.4900 N.pl3 204  ARG204      0.1354
    119  NH2       37.6740   85.5840   10.9860 N.pl3 204  ARG204      0.1354
    120  N         32.5510   82.2260   11.8610 N.3   209  ALA209     -0.1245
    121  CA        33.9260   81.9560   11.3570 C.3   209  ALA209      0.1562
    122  C         35.0170   82.9010   11.9290 C.2   209  ALA209      0.2260
    123  O         36.0790   83.0700   11.3140 O.2   209  ALA209     -0.2867
    124  CB        33.9520   82.0210    9.8310 C.3   209  ALA209      0.0290
    125  N         38.5240   81.3320   12.1260 N.3   212  GLY212     -0.1210
    126  CA        39.0010   80.7880   10.8610 C.3   212  GLY212      0.1956
    127  C         40.2630   81.4260   10.3190 C.2   212  GLY212      0.2613
    128  O         40.5040   82.6210   10.5250 O.2   212  GLY212     -0.2717
    129  N         41.0830   80.6020    9.6310 N.am  213  SER213     -0.1938
    130  CA        42.3270   80.9910    8.9580 C.3   213  SER213      0.2055
    131  C         42.7940   79.8750    8.0150 C.2   213  SER213      0.2642
    132  O         42.3640   78.7210    8.1510 O.2   213  SER213     -0.2714
    133  CB        43.4300   81.3100    9.9600 C.3   213  SER213      0.2130
    134  OG        44.0680   80.1190   10.3910 O.3   213  SER213     -0.2179
    135  N         43.7660   80.1940    7.1390 N.am  214  VAL214     -0.1977
    136  CA        44.3400   79.2040    6.2210 C.3   214  VAL214      0.1596
    137  C         45.0470   78.0750    7.0110 C.2   214  VAL214      0.2287
    138  O         45.3700   77.0490    6.4260 O.2   214  VAL214     -0.2864
    139  CB        45.2760   79.8350    5.1550 C.3   214  VAL214      0.0276
    140  CG1       44.4700   80.5850    4.0950 C.3   214  VAL214      0.0022
    141  CG2       46.3380   80.7370    5.7870 C.3   214  VAL214      0.0022
    142  N         41.6820   75.8200    7.8820 N.3   217  ALA217     -0.1245
    143  CA        40.6640   75.6760    6.8510 C.3   217  ALA217      0.1562
    144  C         41.1840   75.9090    5.4580 C.2   217  ALA217      0.2260
    145  O         42.0180   76.8030    5.2390 O.2   217  ALA217     -0.2867
    146  CB        39.5260   76.6550    7.1150 C.3   217  ALA217      0.0290
    147  N         40.7700   77.5410    2.1830 N.3   219  VAL219     -0.1245
    148  CA        40.0970   78.7260    1.6710 C.3   219  VAL219      0.1561
    149  C         40.2080   78.6480    0.1690 C.2   219  VAL219      0.2260
    150  O         41.2920   78.4190   -0.3780 O.2   219  VAL219     -0.2867
    151  CB        40.6510   80.0490    2.2510 C.3   219  VAL219      0.0252
    152  CG1       39.7830   81.2280    1.8320 C.3   219  VAL219      0.0019
    153  CG2       40.7440   79.9770    3.7660 C.3   219  VAL219      0.0019
    154  N         36.2130   65.2980    3.5320 N.3   240  HIS240     -0.1226
    155  CA        35.8300   66.0630    4.7220 C.3   240  HIS240      0.1752
    156  C         34.3250   65.9130    4.9610 C.2   240  HIS240      0.2595
    157  O         33.8970   65.8040    6.1150 O.2   240  HIS240     -0.2718
    158  CB        36.2110   67.5530    4.6700 C.3   240  HIS240      0.0759
    159  CG        35.9570   68.1900    6.0120 C.ar  240  HIS240      0.0818
    160  ND1       36.8440   68.0230    7.0590 N.ar  240  HIS240     -0.2268
    161  CD2       34.8520   68.8210    6.4800 C.ar  240  HIS240      0.1154
    162  CE1       36.2830   68.6090    8.1130 C.ar  240  HIS240      0.1986
    163  NE2       35.0940   69.1130    7.8080 N.ar  240  HIS240     -0.2212
    164  N         33.5140   65.9130    3.8950 N.am  241  LYS241     -0.1980
    165  CA        32.0590   65.7270    4.1060 C.3   241  LYS241      0.1596
    166  C         31.7730   64.3500    4.7310 C.2   241  LYS241      0.2287
    167  O         30.8860   64.2260    5.5660 O.2   241  LYS241     -0.2864
    168  CB        31.3070   65.9060    2.7910 C.3   241  LYS241      0.0298
    169  CG        31.4510   67.3430    2.2390 C.3   241  LYS241      0.0038
    170  CD        30.8080   68.3990    3.1770 C.3   241  LYS241      0.0206
    171  CE        29.2960   68.4040    3.1240 C.3   241  LYS241      0.1093
    172  NZ        28.7180   69.5890    3.8150 N.3   241  LYS241     -0.1314
    173  N         32.6630   64.6450    8.3910 N.3   244  ASP244     -0.1239
    174  CA        31.5190   65.3030    9.0580 C.3   244  ASP244      0.1674
    175  C         30.3690   64.3260    9.2730 C.2   244  ASP244      0.2266
    176  O         29.7890   64.2930   10.3750 O.2   244  ASP244     -0.2867
    177  CB        31.0060   66.4940    8.2220 C.3   244  ASP244      0.1410
    178  CG        31.8520   67.7390    8.3580 C.2   244  ASP244      0.3668
    179  OD1       32.6710   67.7940    9.2920 O.co2 244  ASP244     -0.2456
    180  OD2       31.7300   68.6450    7.4900 O.co2 244  ASP244     -0.2456
    181  N         24.9850   69.0750    8.0910 N.3   267  HIS267     -0.1241
    182  CA        24.6600   68.7610    9.4930 C.3   267  HIS267      0.1621
    183  C         23.1760   68.6660    9.7690 C.2   267  HIS267      0.2264
    184  O         22.7790   67.8040   10.5510 O.2   267  HIS267     -0.2867
    185  CB        25.2620   69.8040   10.4260 C.3   267  HIS267      0.0745
    186  CG        26.7290   69.9240   10.2180 C.ar  267  HIS267      0.0817
    187  ND1       27.5630   68.8250   10.3670 N.ar  267  HIS267     -0.2268
    188  CD2       27.4560   70.9780    9.7800 C.ar  267  HIS267      0.1154
    189  CE1       28.7800   69.2590   10.0700 C.ar  267  HIS267      0.1986
    190  NE2       28.7690   70.5500    9.7200 N.ar  267  HIS267     -0.2212
@<TRIPOS>BOND
     1    55    54    2
     2    54    53    1
     3    52    53    1
     4    53    56    1
     5    56    57    1
     6    57    58   ar
     7    57    59   ar
     8    58    60   ar
     9    59    61   ar
    10    60    62   ar
    11    61    62   ar
    12    89    90    1
    13    89    86    1
    14   150   149    2
    15    85    86    1
    16    90    91    1
    17   149   148    1
    18    86    87    1
    19    87    88    2
    20    79    77   ar
    21    79    80   ar
    22    84    83    2
    23    77    75   ar
    24    83    82    1
    25    80    78   ar
    26    91    92    1
    27   148   147    1
    28   148   151    1
    29   152   151    1
    30    75    74    1
    31    75    76   ar
    32    78    76   ar
    33   169   168    1
    34   169   170    1
    35   151   153    1
    36    74    71    1
    37    82    81    1
    38   168   165    1
    39    81    72   am
    40   171   170    1
    41   171   172    1
    42    93    94    1
    43   154   155    1
    44    72    71    1
    45    72    73    2
    46   100    98    1
    47    71    70    1
    48   164   165    1
    49   164   156   am
    50   140   139    1
    51   165   166    1
    52    97    98    1
    53    97    94    1
    54    97    99    1
    55    94    95    1
    56   158   155    1
    57   158   159    1
    58   155   156    1
    59   166   167    2
    60    95    96    2
    61    70    65   am
    62   156   157    2
    63   139   141    1
    64   139   136    1
    65   145   144    2
    66    66    65    2
    67   144   143    1
    68    65    64    1
    69   159   161   ar
    70   159   160   ar
    71   101   102    1
    72   136   137    1
    73   136   135    1
    74   138   137    2
    75   161   163   ar
    76   107   106    1
    77    64    63    1
    78    64    67    1
    79   106   108    1
    80   106   105    1
    81   143   146    1
    82   143   142    1
    83    26    25    1
    84   160   162   ar
    85   135   131   am
    86    25    24    1
    87   102   105    1
    88   102   103    1
    89    68    67    1
    90   180   178   ar
    91   163   162   ar
    92    67    69    1
    93   131   132    2
    94   131   130    1
    95   181   182    1
    96   109   103   am
    97   109   110    1
    98   177   178    1
    99   177   174    1
   100   178   179   ar
   101   173   174    1
   102   103   104    2
   103   113   110    1
   104   113   114    1
   105    24    23    1
   106   115   116    1
   107   115   114    1
   108   130   129    1
   109   130   133    1
   110   174   175    1
   111   110   111    1
   112   175   176    2
   113   116   117    2
   114   111   112    2
   115   182   183    1
   116   182   185    1
   117   129   127   am
   118   190   188   ar
   119   190   189   ar
   120   183   184    2
   121   188   186   ar
   122   124   121    1
   123    20    23    1
   124    20    21    1
   125    20    19    1
   126    22    21    2
   127   133   134    1
   128   189   187   ar
   129   186   187   ar
   130   186   185    1
   131   117   118    1
   132   117   119    1
   133   127   128    2
   134   127   126    1
   135    21    27   am
   136    51    50   ar
   137    51    49   ar
   138   126   125    1
   139    50    48   ar
   140     8     6    1
   141   123   122    2
   142     7     6    1
   143   121   120    1
   144   121   122    1
   145    17    18   ar
   146    17    15   ar
   147    49    47   ar
   148    27    28    1
   149     6     5    1
   150    18    16   ar
   151    15    14   ar
   152    41    39   ar
   153    48    47   ar
   154    28    29    1
   155    28    31    1
   156    47    46    1
   157    38    39    1
   158    38    37    1
   159    39    40   ar
   160    37    34    1
   161    29    30    2
   162    31    32    1
   163    16    14   ar
   164     5     2    1
   165    14    13    1
   166     4     3    2
   167    46    43    1
   168    43    42    1
   169    43    44    1
   170    36    35    2
   171     3     2    1
   172     3     9   am
   173    35    42   am
   174    35    34    1
   175     2     1    1
   176    34    33    1
   177    13    10    1
   178    10     9    1
   179    10    11    1
   180    45    44    2
   181    12    11    2
