@<TRIPOS>MOLECULE
tmp/4fw8A01.pdb
 97 89 0 0 0
SMALL
GASTEIGER

@<TRIPOS>ATOM
      1  N         12.8230   -2.6730   -1.3320 N.3   321  ILE321     -0.1231
      2  CA        13.7090   -1.4990   -1.2810 C.3   321  ILE321      0.1692
      3  C         14.9310   -1.6790   -2.2110 C.2   321  ILE321      0.2591
      4  O         15.4410   -0.7420   -2.8380 O.2   321  ILE321     -0.2718
      5  CB        14.0060   -1.0780    0.2060 C.3   321  ILE321      0.0266
      6  CG1       13.2180    0.1940    0.5370 C.3   321  ILE321      0.0019
      7  CG2       15.4510   -0.8250    0.4800 C.3   321  ILE321      0.0020
      8  CD1       11.8340   -0.1060    0.9570 C.3   321  ILE321      0.0001
      9  N         15.3280   -2.9260   -2.3430 N.am  322  ALA322     -0.1980
     10  CA        16.4200   -3.2930   -3.1950 C.3   322  ALA322      0.1597
     11  C         16.1670   -2.8780   -4.6430 C.2   322  ALA322      0.2287
     12  O         17.1330   -2.5910   -5.3790 O.2   322  ALA322     -0.2864
     13  CB        16.6390   -4.7990   -3.1000 C.3   322  ALA322      0.0319
     14  N         21.2680   -3.1580   -4.3130 N.3   327  ASN327     -0.1240
     15  CA        21.8640   -3.8620   -3.2010 C.3   327  ASN327      0.1653
     16  C         23.0110   -4.7770   -3.6290 C.2   327  ASN327      0.2266
     17  O         22.9180   -5.4770   -4.6480 O.2   327  ASN327     -0.2867
     18  CB        20.7960   -4.7090   -2.5200 C.3   327  ASN327      0.1155
     19  CG        21.0940   -4.9410   -1.0810 C.2   327  ASN327      0.2627
     20  OD1       21.5650   -4.0390   -0.3850 O.2   327  ASN327     -0.2716
     21  ND2       20.8230   -6.1400   -0.6120 N.am  327  ASN327     -0.0877
     22  N         10.5780   -2.6030    3.5080 N.3   364  GLY364     -0.1210
     23  CA        11.9650   -2.3500    3.9030 C.3   364  GLY364      0.1956
     24  C         12.4470   -3.4830    4.7800 C.2   364  GLY364      0.2611
     25  O         12.5080   -4.6220    4.3410 O.2   364  GLY364     -0.2717
     26  N         12.7690   -3.1600    6.0300 N.am  365  PHE365     -0.1976
     27  CA        13.2100   -4.1530    6.9900 C.3   365  PHE365      0.1639
     28  C         12.0420   -4.7710    7.7330 C.2   365  PHE365      0.2290
     29  O         11.3320   -4.0940    8.4930 O.2   365  PHE365     -0.2864
     30  CB        14.2230   -3.5860    7.9710 C.3   365  PHE365      0.0560
     31  CG        14.9430   -4.6420    8.7360 C.ar  365  PHE365     -0.0200
     32  CD1       14.3360   -5.2750    9.8200 C.ar  365  PHE365     -0.0042
     33  CD2       16.2220   -5.0440    8.3590 C.ar  365  PHE365     -0.0042
     34  CE1       14.9980   -6.2700   10.5260 C.ar  365  PHE365     -0.0003
     35  CE2       16.8840   -6.0630    9.0700 C.ar  365  PHE365     -0.0003
     36  CZ        16.2670   -6.6670   10.1460 C.ar  365  PHE365     -0.0000
     37  N         14.7840  -14.6450    7.1550 N.3   370  MET370     -0.1245
     38  CA        15.3690  -14.0190    5.9590 C.3   370  MET370      0.1570
     39  C         16.0340  -12.7500    6.3990 C.2   370  MET370      0.2261
     40  O         17.1870  -12.5090    6.0180 O.2   370  MET370     -0.2867
     41  CB        14.3800  -13.7560    4.8280 C.3   370  MET370      0.0387
     42  CG        14.5680  -12.4330    4.0370 C.3   370  MET370      0.0595
     43  SD        16.2000  -11.7470    3.5340 S.3   370  MET370     -0.1393
     44  CE        16.0140  -10.0050    3.9780 C.3   370  MET370      0.0692
     45  N         20.5820  -12.9620    8.7530 N.3   374  ILE374     -0.1245
     46  CA        21.6680  -12.0150    8.4880 C.3   374  ILE374      0.1561
     47  C         22.5300  -11.8070    9.7280 C.2   374  ILE374      0.2260
     48  O         21.9870  -11.6390   10.8270 O.2   374  ILE374     -0.2867
     49  CB        21.1420  -10.6310    8.0180 C.3   374  ILE374      0.0252
     50  CG1       20.3900  -10.7670    6.6880 C.3   374  ILE374      0.0019
     51  CG2       22.3090   -9.6240    7.9130 C.3   374  ILE374      0.0019
     52  CD1       19.3210   -9.6790    6.4340 C.3   374  ILE374      0.0001
     53  N         25.1560   -6.7650   11.3250 N.3   378  THR378     -0.1203
     54  CA        24.6550   -6.1960   10.0820 C.3   378  THR378      0.1994
     55  C         23.1320   -6.0660   10.1950 C.2   378  THR378      0.2617
     56  O         22.5530   -5.0330    9.8340 O.2   378  THR378     -0.2717
     57  CB        25.1290   -6.9690    8.8340 C.3   378  THR378      0.1784
     58  OG1       26.4820   -6.5890    8.5510 O.3   378  THR378     -0.2211
     59  CG2       24.3090   -6.6060    7.6130 C.3   378  THR378      0.0376
     60  N         22.5200   -7.1110   10.7560 N.am  379  ARG379     -0.1979
     61  CA        21.0770   -7.2160   10.9220 C.3   379  ARG379      0.1597
     62  C         20.5200   -6.1470   11.8830 C.2   379  ARG379      0.2287
     63  O         19.5820   -5.4350   11.5380 O.2   379  ARG379     -0.2864
     64  CB        20.7220   -8.6370   11.3950 C.3   379  ARG379      0.0334
     65  CG        19.2450   -8.8550   11.7220 C.3   379  ARG379      0.0492
     66  CD        18.8490  -10.3150   11.6230 C.3   379  ARG379      0.2205
     67  NE        18.8930  -11.0280   12.8990 N.pl3 379  ARG379     -0.0865
     68  CZ        19.6030  -12.1230   13.1060 C.cat 379  ARG379      0.5346
     69  NH1       20.3300  -12.6370   12.1380 N.pl3 379  ARG379      0.1354
     70  NH2       19.5910  -12.7010   14.2770 N.pl3 379  ARG379      0.1354
     71  N         21.7690   -3.3000   12.7790 N.3   381  VAL381     -0.1231
     72  CA        21.9800   -1.9550   12.2930 C.3   381  VAL381      0.1692
     73  C         20.9040   -1.6990   11.2840 C.2   381  VAL381      0.2592
     74  O         20.2050   -0.6800   11.3520 O.2   381  VAL381     -0.2718
     75  CB        23.3400   -1.7750   11.6080 C.3   381  VAL381      0.0266
     76  CG1       23.6210   -0.2820   11.3580 C.3   381  VAL381      0.0020
     77  CG2       24.4650   -2.4000   12.4430 C.3   381  VAL381      0.0020
     78  N         20.7510   -2.6390   10.3620 N.am  382  GLY382     -0.1957
     79  CA        19.7500   -2.5140    9.3130 C.3   382  GLY382      0.1869
     80  C         18.3690   -2.2030    9.8670 C.2   382  GLY382      0.2309
     81  O         17.6490   -1.3400    9.3590 O.2   382  GLY382     -0.2863
     82  N         18.1480    1.4940   11.2300 N.3   385  LEU385     -0.1245
     83  CA        18.4750    2.6180   10.3590 C.3   385  LEU385      0.1561
     84  C         17.2700    3.2210    9.6540 C.2   385  LEU385      0.2260
     85  O         17.1850    3.2060    8.4180 O.2   385  LEU385     -0.2867
     86  CB        19.5140    2.2030    9.3310 C.3   385  LEU385      0.0270
     87  CG        20.9590    2.3570    9.8120 C.3   385  LEU385      0.0019
     88  CD1       21.8910    2.5300    8.5830 C.3   385  LEU385      0.0001
     89  CD2       21.1160    3.5220   10.8350 C.3   385  LEU385      0.0001
     90  N         17.7310    4.5080    3.4850 N.3   425  ILE425     -0.1245
     91  CA        18.2070    4.1400    2.1620 C.3   425  ILE425      0.1561
     92  C         17.1580    4.4590    1.0290 C.2   425  ILE425      0.2260
     93  O         15.9540    4.3000    1.2230 O.2   425  ILE425     -0.2867
     94  CB        18.7090    2.6780    2.1930 C.3   425  ILE425      0.0252
     95  CG1       19.2060    2.2240    0.8110 C.3   425  ILE425      0.0019
     96  CG2       17.6330    1.7880    2.7660 C.3   425  ILE425      0.0019
     97  CD1       19.6700    0.7970    0.7470 C.3   425  ILE425      0.0001
@<TRIPOS>BOND
     1    12    11    2
     2    17    16    2
     3    11    10    1
     4    14    15    1
     5    16    15    1
     6    15    18    1
     7    10    13    1
     8    10     9    1
     9     4     3    2
    10    18    19    1
    11     9     3   am
    12     3     2    1
    13     1     2    1
    14     2     5    1
    15    19    21   am
    16    19    20    2
    17     5     7    1
    18     5     6    1
    19     6     8    1
    20    97    95    1
    21    95    94    1
    22    92    93    2
    23    92    91    1
    24    91    94    1
    25    91    90    1
    26    94    96    1
    27    22    23    1
    28    43    44    1
    29    43    42    1
    30    23    24    1
    31    42    41    1
    32    25    24    2
    33    24    26   am
    34    41    38    1
    35    38    39    1
    36    38    37    1
    37    40    39    2
    38    26    27    1
    39    52    50    1
    40    50    49    1
    41    27    28    1
    42    27    30    1
    43    59    57    1
    44    28    29    2
    45    51    49    1
    46    30    31    1
    47    49    46    1
    48    33    31   ar
    49    33    35   ar
    50    85    84    2
    51    46    45    1
    52    46    47    1
    53    58    57    1
    54    88    87    1
    55    31    32   ar
    56    57    54    1
    57    35    36   ar
    58    79    80    1
    59    79    78    1
    60    86    87    1
    61    86    83    1
    62    81    80    2
    63    84    83    1
    64    47    48    2
    65    87    89    1
    66    32    34   ar
    67    56    55    2
    68    54    55    1
    69    54    53    1
    70    36    34   ar
    71    55    60   am
    72    83    82    1
    73    78    73   am
    74    60    61    1
    75    61    64    1
    76    61    62    1
    77    73    74    2
    78    73    72    1
    79    76    75    1
    80    64    65    1
    81    63    62    2
    82    75    72    1
    83    75    77    1
    84    66    65    1
    85    66    67    1
    86    69    68    1
    87    72    71    1
    88    67    68    2
    89    68    70    1
