@<TRIPOS>MOLECULE
tmp/4fwdA00.pdb
 140 135 0 0 0
SMALL
GASTEIGER

@<TRIPOS>ATOM
      1  N        -32.1140   -3.7640   46.8400 N.3   376  SER376     -0.1202
      2  CA       -31.7540   -2.4800   46.2030 C.3   376  SER376      0.2020
      3  C        -32.1890   -2.7210   44.7840 C.2   376  SER376      0.2619
      4  O        -32.7950   -3.7890   44.4830 O.2   376  SER376     -0.2717
      5  CB       -30.1990   -2.2370   46.2720 C.3   376  SER376      0.2103
      6  OG       -29.5410   -2.5450   45.1210 O.3   376  SER376     -0.2182
      7  N        -31.9660   -1.7570   43.8950 N.am  377  LEU377     -0.1965
      8  CA       -32.5770   -1.8240   42.5570 C.3   377  LEU377      0.1728
      9  C        -31.5360   -1.3520   41.5510 C.2   377  LEU377      0.2616
     10  O        -30.9770   -0.2800   41.7360 O.2   377  LEU377     -0.2715
     11  CB       -33.7360   -0.7780   42.5160 C.3   377  LEU377      0.0311
     12  CG       -35.0140   -1.1270   43.4190 C.3   377  LEU377      0.0022
     13  CD1      -36.0930   -0.0060   43.4980 C.3   377  LEU377      0.0001
     14  CD2      -35.7410   -2.3090   42.8470 C.3   377  LEU377      0.0001
     15  N        -31.3700   -2.0780   40.4580 N.am  378  VAL378     -0.1963
     16  CA       -30.3260   -1.7880   39.4720 C.3   378  VAL378      0.1727
     17  C        -30.9470   -1.8600   38.1250 C.2   378  VAL378      0.2616
     18  O        -31.9780   -2.5620   37.8570 O.2   378  VAL378     -0.2715
     19  CB       -29.2270   -2.8890   39.4500 C.3   378  VAL378      0.0290
     20  CG1      -28.7200   -3.0330   40.8420 C.3   378  VAL378      0.0023
     21  CG2      -29.7360   -4.2720   39.0800 C.3   378  VAL378      0.0023
     22  N        -30.2740   -1.2250   37.2150 N.am  379  VAL379     -0.1963
     23  CA       -30.7490   -1.1980   35.8570 C.3   379  VAL379      0.1727
     24  C        -29.7370   -1.8150   34.9650 C.2   379  VAL379      0.2616
     25  O        -28.5530   -1.6230   35.1250 O.2   379  VAL379     -0.2715
     26  CB       -31.2470    0.1830   35.3940 C.3   379  VAL379      0.0290
     27  CG1      -32.4120    0.5890   36.3590 C.3   379  VAL379      0.0023
     28  CG2      -30.1450    1.1920   35.3620 C.3   379  VAL379      0.0023
     29  N        -30.2550   -2.6150   34.0780 N.am  380  VAL380     -0.1963
     30  CA       -29.4090   -3.5430   33.3610 C.3   380  VAL380      0.1727
     31  C        -28.7890   -2.6700   32.2950 C.2   380  VAL380      0.2616
     32  O        -29.4020   -1.7490   31.7830 O.2   380  VAL380     -0.2715
     33  CB       -30.2130   -4.6740   32.7010 C.3   380  VAL380      0.0290
     34  CG1      -29.3370   -5.3600   31.6830 C.3   380  VAL380      0.0023
     35  CG2      -30.6810   -5.6730   33.7520 C.3   380  VAL380      0.0023
     36  N        -27.5410   -2.9670   32.0460 N.am  381  GLU381     -0.1977
     37  CA       -26.6290   -2.1510   31.3060 C.3   381  GLU381      0.1602
     38  C        -27.1240   -1.9530   29.8420 C.2   381  GLU381      0.2287
     39  O        -27.2860   -0.8000   29.3970 O.2   381  GLU381     -0.2864
     40  CB       -25.2650   -2.8220   31.4820 C.3   381  GLU381      0.0415
     41  CG       -24.0640   -2.1370   30.8780 C.3   381  GLU381      0.1163
     42  CD       -23.5740   -2.9220   29.6610 C.2   381  GLU381      0.3649
     43  OE1      -22.5570   -3.6590   29.7780 O.co2 381  GLU381     -0.2457
     44  OE2      -24.2340   -2.8450   28.5950 O.co2 381  GLU381     -0.2457
     45  N        -32.8090   -1.2400   28.9980 N.3   385  TYR385     -0.1241
     46  CA       -32.6360   -0.7880   30.4230 C.3   385  TYR385      0.1605
     47  C        -33.7620   -1.3340   31.3270 C.2   385  TYR385      0.2264
     48  O        -34.6080   -0.5660   31.8850 O.2   385  TYR385     -0.2867
     49  CB       -32.4900    0.7620   30.5070 C.3   385  TYR385      0.0534
     50  CG       -31.6570    1.2880   29.3140 C.ar  385  TYR385     -0.0201
     51  CD1      -32.2190    2.1180   28.3120 C.ar  385  TYR385     -0.0009
     52  CD2      -30.3380    0.8710   29.1590 C.ar  385  TYR385     -0.0009
     53  CE1      -31.4650    2.4950   27.2160 C.ar  385  TYR385      0.0417
     54  CE2      -29.5800    1.2430   28.0790 C.ar  385  TYR385      0.0417
     55  CZ       -30.1320    2.0510   27.1200 C.ar  385  TYR385      0.1957
     56  OH       -29.3120    2.4030   26.0990 O.3   385  TYR385     -0.2866
     57  N        -19.7510    4.5540   42.5460 N.3   417  PHE417     -0.1241
     58  CA       -20.1790    3.5490   43.5570 C.3   417  PHE417      0.1605
     59  C        -19.3020    3.6620   44.8020 C.2   417  PHE417      0.2264
     60  O        -19.7840    3.6680   45.8960 O.2   417  PHE417     -0.2867
     61  CB       -20.0150    2.1660   42.9180 C.3   417  PHE417      0.0534
     62  CG       -20.3890    0.9970   43.8070 C.ar  417  PHE417     -0.0203
     63  CD1      -21.7220    0.6120   43.9070 C.ar  417  PHE417     -0.0042
     64  CD2      -19.4520    0.3490   44.5410 C.ar  417  PHE417     -0.0042
     65  CE1      -22.0650   -0.4650   44.7470 C.ar  417  PHE417     -0.0003
     66  CE2      -19.7520   -0.7340   45.3500 C.ar  417  PHE417     -0.0003
     67  CZ       -21.0760   -1.1410   45.4730 C.ar  417  PHE417     -0.0000
     68  N        -23.4590   -7.1170   47.4640 N.3   446  PHE446     -0.1298
     69  CA       -24.5500   -7.3760   46.5550 C.3   446  PHE446      0.1290
     70  C        -24.5410   -8.8290   46.1900 C.3   446  PHE446      0.2013
     71  O        -23.6930   -9.2870   45.3180 O.3   446  PHE446     -0.2188
     72  CB       -24.4000   -6.4840   45.3130 C.3   446  PHE446      0.0480
     73  CG       -24.7440   -5.0600   45.5800 C.ar  446  PHE446     -0.0206
     74  CD1      -25.9740   -4.5930   45.2610 C.ar  446  PHE446     -0.0042
     75  CD2      -23.8310   -4.2100   46.1040 C.ar  446  PHE446     -0.0042
     76  CE1      -26.3260   -3.2370   45.4800 C.ar  446  PHE446     -0.0003
     77  CE2      -24.1630   -2.8950   46.3460 C.ar  446  PHE446     -0.0003
     78  CZ       -25.4210   -2.4100   46.0280 C.ar  446  PHE446     -0.0000
     79  N        -24.1330  -10.7140   42.5730 N.3   449  ASN449     -0.1240
     80  CA       -23.7030   -9.8640   41.5490 C.3   449  ASN449      0.1653
     81  C        -22.3970  -10.3790   41.0290 C.2   449  ASN449      0.2266
     82  O        -21.4320  -10.4780   41.8150 O.2   449  ASN449     -0.2867
     83  CB       -23.4900   -8.3910   42.0690 C.3   449  ASN449      0.1155
     84  CG       -22.8600   -7.5200   41.0240 C.2   449  ASN449      0.2627
     85  OD1      -23.4130   -7.4860   39.8950 O.2   449  ASN449     -0.2716
     86  ND2      -21.6060   -6.9160   41.3080 N.am  449  ASN449     -0.0877
     87  N        -21.0030   -8.9420   37.9610 N.3   451  VAL451     -0.1231
     88  CA       -20.5210   -7.9730   36.9790 C.3   451  VAL451      0.1692
     89  C        -20.1710   -6.6070   37.5870 C.2   451  VAL451      0.2593
     90  O        -20.4080   -6.3800   38.7880 O.2   451  VAL451     -0.2718
     91  CB       -21.5330   -7.8590   35.7670 C.3   451  VAL451      0.0266
     92  CG1      -21.7860   -9.2550   35.1240 C.3   451  VAL451      0.0020
     93  CG2      -22.8840   -7.2120   36.1630 C.3   451  VAL451      0.0020
     94  N        -19.5790   -5.6790   36.8220 N.am  452  SER452     -0.1938
     95  CA       -19.2270   -4.4350   37.4210 C.3   452  SER452      0.2055
     96  C        -20.5190   -3.6080   37.5610 C.2   452  SER452      0.2643
     97  O        -21.5110   -3.8000   36.7630 O.2   452  SER452     -0.2714
     98  CB       -18.1120   -3.7470   36.6150 C.3   452  SER452      0.2130
     99  OG       -18.6220   -3.4490   35.3240 O.3   452  SER452     -0.2179
    100  N        -20.6030   -2.8530   38.6620 N.am  453  ILE453     -0.1963
    101  CA       -21.8210   -2.0530   38.9350 C.3   453  ILE453      0.1727
    102  C        -21.3440   -0.6340   39.1570 C.2   453  ILE453      0.2616
    103  O        -20.1890   -0.4390   39.5740 O.2   453  ILE453     -0.2715
    104  CB       -22.5990   -2.6000   40.1400 C.3   453  ILE453      0.0290
    105  CG1      -21.6900   -2.8850   41.3080 C.3   453  ILE453      0.0022
    106  CG2      -23.1600   -3.9800   39.7910 C.3   453  ILE453      0.0023
    107  CD1      -22.4370   -3.4330   42.5150 C.3   453  ILE453      0.0001
    108  N        -22.1570    0.3710   38.8890 N.am  454  GLU454     -0.1963
    109  CA       -21.6450    1.7380   39.1130 C.3   454  GLU454      0.1733
    110  C        -22.7710    2.6660   39.4470 C.2   454  GLU454      0.2616
    111  O        -23.9420    2.4610   39.0560 O.2   454  GLU454     -0.2715
    112  CB       -20.8360    2.1980   37.7770 C.3   454  GLU454      0.0429
    113  CG       -20.5600    3.7070   37.6110 C.3   454  GLU454      0.1163
    114  CD       -19.5860    4.1570   38.6930 C.2   454  GLU454      0.3649
    115  OE1      -18.7690    5.0390   38.4600 O.co2 454  GLU454     -0.2457
    116  OE2      -19.6840    3.6540   39.8410 O.co2 454  GLU454     -0.2457
    117  N        -22.5110    3.7140   40.1630 N.am  455  GLY455     -0.1955
    118  CA       -23.6450    4.6230   40.3560 C.3   455  GLY455      0.1869
    119  C        -23.7230    4.8290   41.8460 C.2   455  GLY455      0.2309
    120  O        -23.2160    3.9710   42.6290 O.2   455  GLY455     -0.2863
    121  N        -26.7200    5.1340   43.4700 N.3   457  SER457     -0.1202
    122  CA       -28.1690    5.1450   43.7950 C.3   457  SER457      0.2020
    123  C        -28.4310    4.0200   44.7500 C.2   457  SER457      0.2618
    124  O        -29.6070    3.8160   45.1820 O.2   457  SER457     -0.2717
    125  CB       -29.0510    5.0310   42.5260 C.3   457  SER457      0.2103
    126  OG       -28.8200    3.7690   41.9280 O.3   457  SER457     -0.2182
    127  N        -27.3720    3.2760   45.1510 N.am  458  ALA458     -0.1979
    128  CA       -27.6690    2.2970   46.1540 C.3   458  ALA458      0.1597
    129  C        -27.2100    2.8100   47.5170 C.2   458  ALA458      0.2287
    130  O        -27.2120    2.0500   48.5140 O.2   458  ALA458     -0.2864
    131  CB       -27.0630    0.9070   45.7640 C.3   458  ALA458      0.0319
    132  N        -36.7650    1.1110   37.6840 N.3   500  LYS500     -0.1245
    133  CA       -36.4530    0.4810   39.0040 C.3   500  LYS500      0.1561
    134  C        -37.7520    0.0470   39.6320 C.2   500  LYS500      0.2260
    135  O        -37.8960   -1.1020   40.0710 O.2   500  LYS500     -0.2867
    136  CB       -35.7170    1.4990   39.8580 C.3   500  LYS500      0.0271
    137  CG       -34.2310    1.6120   39.4300 C.3   500  LYS500      0.0035
    138  CD       -33.6100    2.8240   40.0570 C.3   500  LYS500      0.0206
    139  CE       -32.1250    2.8620   39.7070 C.3   500  LYS500      0.1093
    140  NZ       -31.6380    4.0850   40.3830 N.3   500  LYS500     -0.1314
@<TRIPOS>BOND
     1    56    55    1
     2    55    53   ar
     3    55    54   ar
     4    53    51   ar
     5    54    52   ar
     6    51    50   ar
     7    44    42   ar
     8    45    46    1
     9    52    50   ar
    10    50    49    1
    11    39    38    2
    12    42    43   ar
    13    42    41    1
    14    38    37    1
    15    46    49    1
    16    46    47    1
    17    41    40    1
    18    37    40    1
    19    37    36    1
    20    47    48    2
    21    34    33    1
    22    32    31    2
    23    36    31   am
    24    31    30    1
    25    33    30    1
    26    33    35    1
    27    30    29    1
    28    29    24   am
    29    24    25    2
    30    24    23    1
    31    92    91    1
    32    99    98    1
    33    28    26    1
    34    26    23    1
    35    26    27    1
    36    91    93    1
    37    91    88    1
    38    23    22    1
    39    98    95    1
    40    97    96    2
    41    94    95    1
    42    94    89   am
    43    88    89    1
    44    88    87    1
    45    22    17   am
    46    95    96    1
    47    96   100   am
    48    89    90    2
    49   113   112    1
    50   113   114    1
    51   132   133    1
    52   112   109    1
    53    18    17    2
    54    17    16    1
    55   115   114   ar
    56   100   101    1
    57   114   116   ar
    58   108   109    1
    59   108   102   am
    60   101   102    1
    61   101   104    1
    62   133   134    1
    63   133   136    1
    64   111   110    2
    65    21    19    1
    66   109   110    1
    67   102   103    2
    68   137   136    1
    69   137   138    1
    70   110   117   am
    71    19    16    1
    72    19    20    1
    73    16    15    1
    74   134   135    2
    75   139   138    1
    76   139   140    1
    77   106   104    1
    78    85    84    2
    79   104   105    1
    80   117   118    1
    81   118   119    1
    82    15     9   am
    83    84    86   am
    84    84    83    1
    85    81    80    1
    86    81    82    2
    87   105   107    1
    88    80    83    1
    89    80    79    1
    90     9    10    2
    91     9     8    1
    92   119   120    2
    93   126   125    1
    94    11     8    1
    95    11    12    1
    96   125   122    1
    97    57    58    1
    98     8     7    1
    99    14    12    1
   100    61    58    1
   101    61    62    1
   102    12    13    1
   103   121   122    1
   104    58    59    1
   105   122   123    1
   106    62    63   ar
   107    62    64   ar
   108     7     3   am
   109    63    65   ar
   110     4     3    2
   111    64    66   ar
   112    65    67   ar
   113   123   127   am
   114   123   124    2
   115     3     2    1
   116    59    60    2
   117     6     5    1
   118   127   128    1
   119    74    76   ar
   120    74    73   ar
   121    72    73    1
   122    72    69    1
   123    71    70    1
   124    66    67   ar
   125    76    78   ar
   126    73    75   ar
   127   131   128    1
   128    78    77   ar
   129    75    77   ar
   130   128   129    1
   131    70    69    1
   132     2     5    1
   133     2     1    1
   134    69    68    1
   135   129   130    2
