@<TRIPOS>MOLECULE
tmp/4fweA01.pdb
 87 87 0 0 0
SMALL
GASTEIGER

@<TRIPOS>ATOM
      1  N         -8.9590  -20.5840  -35.8440 N.3   201  TYR201     -0.1241
      2  CA        -7.7260  -20.5550  -36.5970 C.3   201  TYR201      0.1605
      3  C         -6.9030  -21.7670  -36.2380 C.2   201  TYR201      0.2264
      4  O         -6.8910  -22.1970  -35.0730 O.2   201  TYR201     -0.2867
      5  CB        -6.9240  -19.3090  -36.2550 C.3   201  TYR201      0.0534
      6  CG        -7.1650  -18.1290  -37.1690 C.ar  201  TYR201     -0.0201
      7  CD1       -7.3770  -16.8520  -36.6400 C.ar  201  TYR201     -0.0009
      8  CD2       -7.1670  -18.2790  -38.5610 C.ar  201  TYR201     -0.0009
      9  CE1       -7.5930  -15.7580  -37.4660 C.ar  201  TYR201      0.0417
     10  CE2       -7.3810  -17.1900  -39.3900 C.ar  201  TYR201      0.0417
     11  CZ        -7.5870  -15.9340  -38.8330 C.ar  201  TYR201      0.1957
     12  OH        -7.8010  -14.8470  -39.6420 O.3   201  TYR201     -0.2866
     13  N         -3.5760  -17.2240  -40.3260 N.3   206  CYS206     -0.1221
     14  CA        -4.2770  -15.9500  -40.4000 C.3   206  CYS206      0.1808
     15  C         -5.0260  -15.8120  -41.7210 C.2   206  CYS206      0.2602
     16  O         -5.0940  -16.7610  -42.5060 O.2   206  CYS206     -0.2717
     17  CB        -3.3250  -14.7780  -40.1430 C.3   206  CYS206      0.0970
     18  SG        -2.1340  -14.4670  -41.4560 S.3   206  CYS206     -0.0800
     19  N         -5.6240  -14.6470  -41.9420 N.am  207  GLY207     -0.1942
     20  CA        -6.2740  -14.3610  -43.2140 C.3   207  GLY207      0.2014
     21  C         -7.5740  -15.0970  -43.5030 C.2   207  GLY207      0.2639
     22  O         -7.9200  -15.3140  -44.6690 O.2   207  GLY207     -0.2714
     23  N         -8.3030  -15.4780  -42.4550 N.am  208  LYS208     -0.1963
     24  CA        -9.6080  -16.1240  -42.6180 C.3   208  LYS208      0.1728
     25  C        -10.6580  -15.4290  -41.7400 C.2   208  LYS208      0.2616
     26  O        -10.5650  -15.4310  -40.5100 O.2   208  LYS208     -0.2715
     27  CB        -9.4990  -17.6190  -42.3170 C.3   208  LYS208      0.0311
     28  CG       -10.6830  -18.4340  -42.7940 C.3   208  LYS208      0.0038
     29  CD       -10.2750  -19.8570  -43.1370 C.3   208  LYS208      0.0206
     30  CE       -10.0290  -20.6890  -41.8990 C.3   208  LYS208      0.1093
     31  NZ       -10.2970  -22.1310  -42.1580 N.3   208  LYS208     -0.1314
     32  N        -11.6400  -14.8100  -42.3860 N.am  209  ALA209     -0.1963
     33  CA       -12.6070  -13.9780  -41.6880 C.3   209  ALA209      0.1728
     34  C        -13.3250  -14.7280  -40.5780 C.2   209  ALA209      0.2616
     35  O        -13.7370  -15.8830  -40.7550 O.2   209  ALA209     -0.2715
     36  CB       -13.6270  -13.4030  -42.6620 C.3   209  ALA209      0.0334
     37  N        -13.4700  -14.0360  -39.4530 N.am  210  LEU210     -0.1963
     38  CA       -14.2690  -14.4770  -38.2880 C.3   210  LEU210      0.1728
     39  C        -13.7700  -15.7160  -37.5350 C.2   210  LEU210      0.2616
     40  O        -14.4320  -16.1770  -36.6080 O.2   210  LEU210     -0.2715
     41  CB       -15.7690  -14.5850  -38.6210 C.3   210  LEU210      0.0311
     42  CG       -16.4860  -13.3180  -39.1040 C.3   210  LEU210      0.0022
     43  CD1      -17.9890  -13.5440  -39.1110 C.3   210  LEU210      0.0001
     44  CD2      -16.1430  -12.0930  -38.2650 C.3   210  LEU210      0.0001
     45  N        -12.6080  -16.2360  -37.9230 N.am  211  CYS211     -0.1968
     46  CA       -11.8860  -17.2000  -37.1050 C.3   211  CYS211      0.1712
     47  C        -11.3770  -16.5590  -35.8250 C.2   211  CYS211      0.2296
     48  O        -11.0010  -15.3790  -35.8080 O.2   211  CYS211     -0.2864
     49  CB       -10.6960  -17.7830  -37.8630 C.3   211  CYS211      0.0983
     50  SG       -11.1850  -18.9030  -39.1760 S.3   211  CYS211     -0.0798
     51  N         -6.7410   -5.7770  -46.9590 N.3   492  PHE492     -0.1227
     52  CA        -5.7580   -5.7490  -45.8780 C.3   492  PHE492      0.1736
     53  C         -6.1920   -6.6510  -44.7200 C.2   492  PHE492      0.2595
     54  O         -5.3550   -7.2080  -44.0270 O.2   492  PHE492     -0.2718
     55  CB        -5.5990   -4.2890  -45.3970 C.3   492  PHE492      0.0547
     56  CG        -4.7310   -4.1030  -44.1610 C.ar  492  PHE492     -0.0202
     57  CD1       -3.3360   -4.0220  -44.2660 C.ar  492  PHE492     -0.0042
     58  CD2       -5.3130   -3.9460  -42.8920 C.ar  492  PHE492     -0.0042
     59  CE1       -2.5450   -3.8350  -43.1320 C.ar  492  PHE492     -0.0003
     60  CE2       -4.5240   -3.7540  -41.7590 C.ar  492  PHE492     -0.0003
     61  CZ        -3.1390   -3.7030  -41.8810 C.ar  492  PHE492     -0.0000
     62  N         -7.5030   -6.7590  -44.5060 N.am  493  PHE493     -0.1962
     63  CA        -8.0520   -7.5280  -43.4050 C.3   493  PHE493      0.1771
     64  C         -8.4300   -8.9010  -43.8910 C.2   493  PHE493      0.2619
     65  O         -8.6840   -9.0820  -45.0860 O.2   493  PHE493     -0.2715
     66  CB        -9.3000   -6.8410  -42.8620 C.3   493  PHE493      0.0574
     67  CG        -9.0600   -5.4410  -42.3930 C.ar  493  PHE493     -0.0200
     68  CD1       -8.4830   -5.2010  -41.1450 C.ar  493  PHE493     -0.0042
     69  CD2       -9.4060   -4.3560  -43.1990 C.ar  493  PHE493     -0.0042
     70  CE1       -8.2710   -3.9050  -40.7020 C.ar  493  PHE493     -0.0003
     71  CE2       -9.1860   -3.0600  -42.7610 C.ar  493  PHE493     -0.0003
     72  CZ        -8.6190   -2.8350  -41.5160 C.ar  493  PHE493     -0.0000
     73  N         -8.4970   -9.8610  -42.9690 N.am  494  ALA494     -0.1977
     74  CA        -8.9510  -11.2160  -43.3090 C.3   494  ALA494      0.1597
     75  C        -10.3390  -11.1770  -43.9530 C.2   494  ALA494      0.2287
     76  O        -11.2670  -10.5750  -43.4210 O.2   494  ALA494     -0.2864
     77  CB        -8.9590  -12.1200  -42.0720 C.3   494  ALA494      0.0319
     78  N        -13.9120   -3.7550  -42.7860 N.3   728  HIS728     -0.1241
     79  CA       -13.3890   -5.0760  -43.1240 C.3   728  HIS728      0.1621
     80  C        -14.1400   -5.6490  -44.2800 C.2   728  HIS728      0.2264
     81  O        -13.5440   -6.2570  -45.1770 O.2   728  HIS728     -0.2867
     82  CB       -13.5490   -6.0420  -41.9490 C.3   728  HIS728      0.0745
     83  CG       -12.5360   -5.8720  -40.8380 C.ar  728  HIS728      0.0817
     84  ND1      -12.1890   -4.6600  -40.3270 N.ar  728  HIS728     -0.2268
     85  CD2      -11.8290   -6.8160  -40.1070 C.ar  728  HIS728      0.1154
     86  CE1      -11.2990   -4.8280  -39.3320 C.ar  728  HIS728      0.1986
     87  NE2      -11.0700   -6.1430  -39.2030 N.ar  728  HIS728     -0.2212
@<TRIPOS>BOND
     1    51    52    1
     2    52    55    1
     3    52    53    1
     4    55    56    1
     5    81    80    2
     6    65    64    2
     7    53    62   am
     8    53    54    2
     9    22    21    2
    10    62    63    1
    11    80    79    1
    12    57    56   ar
    13    57    59   ar
    14    56    58   ar
    15    75    76    2
    16    75    74    1
    17    64    63    1
    18    64    73   am
    19    21    20    1
    20    21    23   am
    21    63    66    1
    22    74    73    1
    23    74    77    1
    24    20    19    1
    25    69    71   ar
    26    69    67   ar
    27    29    28    1
    28    29    30    1
    29    59    61   ar
    30    79    78    1
    31    79    82    1
    32    58    60   ar
    33    66    67    1
    34    28    27    1
    35    71    72   ar
    36    36    33    1
    37    24    23    1
    38    24    27    1
    39    24    25    1
    40    16    15    2
    41    67    68   ar
    42    32    25   am
    43    32    33    1
    44    31    30    1
    45    82    83    1
    46    19    15   am
    47    61    60   ar
    48    25    26    2
    49    15    14    1
    50    33    34    1
    51    72    70   ar
    52    18    17    1
    53    68    70   ar
    54    83    84   ar
    55    83    85   ar
    56    35    34    2
    57    34    37   am
    58    14    13    1
    59    14    17    1
    60    84    86   ar
    61    85    87   ar
    62    12    11    1
    63    37    38    1
    64    10    11   ar
    65    10     8   ar
    66    86    87   ar
    67    50    49    1
    68    43    42    1
    69    42    41    1
    70    42    44    1
    71    11     9   ar
    72    41    38    1
    73     8     6   ar
    74    38    39    1
    75    45    39   am
    76    45    46    1
    77    49    46    1
    78    39    40    2
    79     9     7   ar
    80     6     7   ar
    81     6     5    1
    82    46    47    1
    83     2     5    1
    84     2     3    1
    85     2     1    1
    86     3     4    2
    87    47    48    2
