@<TRIPOS>MOLECULE
tmp/4fwgA00.pdb
 102 98 0 0 0
SMALL
GASTEIGER

@<TRIPOS>ATOM
      1  N         14.5550  -28.8320  -43.3010 N.3   379  LEU379     -0.1231
      2  CA        14.6800  -29.3610  -41.9150 C.3   379  LEU379      0.1693
      3  C         14.4980  -28.2590  -40.9420 C.2   379  LEU379      0.2592
      4  O         15.0310  -27.1770  -41.1590 O.2   379  LEU379     -0.2718
      5  CB        16.1410  -29.9010  -41.7260 C.3   379  LEU379      0.0284
      6  CG        16.4100  -31.1760  -42.5730 C.3   379  LEU379      0.0019
      7  CD1       17.8620  -31.6530  -42.5450 C.3   379  LEU379      0.0001
      8  CD2       15.5020  -32.2360  -41.9130 C.3   379  LEU379      0.0001
      9  N         13.8720  -28.5060  -39.7980 N.am  380  VAL380     -0.1966
     10  CA        13.4860  -27.3360  -38.9930 C.3   380  VAL380      0.1727
     11  C         13.6970  -27.7520  -37.5910 C.2   380  VAL380      0.2616
     12  O         13.8000  -28.9430  -37.3190 O.2   380  VAL380     -0.2715
     13  CB        11.9790  -26.8870  -39.1460 C.3   380  VAL380      0.0290
     14  CG1       11.6600  -26.5840  -40.6360 C.3   380  VAL380      0.0023
     15  CG2       10.9650  -27.9510  -38.7310 C.3   380  VAL380      0.0023
     16  N         13.7920  -26.7690  -36.6970 N.am  381  VAL381     -0.1977
     17  CA        13.8240  -27.0000  -35.2190 C.3   381  VAL381      0.1596
     18  C         12.6570  -26.3000  -34.6580 C.2   381  VAL381      0.2287
     19  O         12.4890  -25.1140  -34.8530 O.2   381  VAL381     -0.2864
     20  CB        15.1370  -26.4850  -34.5790 C.3   381  VAL381      0.0276
     21  CG1       15.1630  -26.6370  -33.0670 C.3   381  VAL381      0.0022
     22  CG2       16.3120  -27.2780  -35.1550 C.3   381  VAL381      0.0022
     23  N         13.6750  -14.5630  -41.4950 N.3   419  PHE419     -0.1241
     24  CA        13.1670  -15.4020  -42.5800 C.3   419  PHE419      0.1605
     25  C         12.7900  -14.6450  -43.8300 C.2   419  PHE419      0.2264
     26  O         12.9430  -15.1210  -44.9750 O.2   419  PHE419     -0.2867
     27  CB        11.9040  -16.1070  -41.9780 C.3   419  PHE419      0.0534
     28  CG        11.2110  -17.0480  -42.9380 C.ar  419  PHE419     -0.0203
     29  CD1       11.5900  -18.4220  -42.9770 C.ar  419  PHE419     -0.0042
     30  CD2       10.0960  -16.6150  -43.7170 C.ar  419  PHE419     -0.0042
     31  CE1       10.8910  -19.3400  -43.8780 C.ar  419  PHE419     -0.0003
     32  CE2        9.3990  -17.5240  -44.5800 C.ar  419  PHE419     -0.0003
     33  CZ         9.8130  -18.8740  -44.6900 C.ar  419  PHE419     -0.0000
     34  N          5.6500  -23.8490  -46.4750 N.3   447  PHE447     -0.1298
     35  CA         5.8720  -24.9480  -45.6380 C.3   447  PHE447      0.1290
     36  C          4.5340  -25.6290  -45.2810 C.3   447  PHE447      0.2013
     37  O          3.7470  -25.0500  -44.4320 O.3   447  PHE447     -0.2188
     38  CB         6.5330  -24.5180  -44.3320 C.3   447  PHE447      0.0480
     39  CG         7.9950  -24.0330  -44.5760 C.ar  447  PHE447     -0.0206
     40  CD1        9.0630  -24.8630  -44.3340 C.ar  447  PHE447     -0.0042
     41  CD2        8.2150  -22.7680  -45.0920 C.ar  447  PHE447     -0.0042
     42  CE1       10.3760  -24.4350  -44.5740 C.ar  447  PHE447     -0.0003
     43  CE2        9.5230  -22.3230  -45.3540 C.ar  447  PHE447     -0.0003
     44  CZ        10.6010  -23.1590  -45.0690 C.ar  447  PHE447     -0.0000
     45  N          7.8450  -19.0920  -37.8160 N.3   454  ILE454     -0.1231
     46  CA         9.1330  -19.6210  -38.1530 C.3   454  ILE454      0.1692
     47  C         10.0690  -18.4070  -38.3740 C.2   454  ILE454      0.2592
     48  O          9.6430  -17.3630  -38.9140 O.2   454  ILE454     -0.2718
     49  CB         9.0890  -20.4790  -39.3840 C.3   454  ILE454      0.0266
     50  CG1        8.5020  -19.7710  -40.5560 C.3   454  ILE454      0.0019
     51  CG2        8.1660  -21.6730  -39.1370 C.3   454  ILE454      0.0020
     52  CD1        8.1300  -20.8070  -41.6320 C.3   454  ILE454      0.0001
     53  N         11.2790  -18.5210  -37.8740 N.am  455  GLU455     -0.1966
     54  CA        12.2820  -17.4310  -38.0570 C.3   455  GLU455      0.1733
     55  C         13.6420  -18.0320  -38.3950 C.2   455  GLU455      0.2617
     56  O         13.9010  -19.2140  -38.0290 O.2   455  GLU455     -0.2715
     57  CB        12.3330  -16.6330  -36.7010 C.3   455  GLU455      0.0429
     58  CG        13.3170  -15.4450  -36.5930 C.3   455  GLU455      0.1163
     59  CD        13.2380  -14.3830  -37.7230 C.2   455  GLU455      0.3649
     60  OE1       12.9630  -14.7060  -38.9250 O.co2 455  GLU455     -0.2457
     61  OE2       13.6510  -13.1830  -37.4500 O.co2 455  GLU455     -0.2457
     62  N         14.5500  -17.2560  -39.0180 N.am  456  GLY456     -0.1940
     63  CA        15.9420  -17.7660  -39.3080 C.3   456  GLY456      0.2014
     64  C         16.0330  -17.7820  -40.8060 C.2   456  GLY456      0.2639
     65  O         15.0210  -17.7410  -41.5040 O.2   456  GLY456     -0.2714
     66  N         17.2430  -17.8690  -41.2960 N.am  457  ASP457     -0.1957
     67  CA        17.4540  -17.9120  -42.7730 C.3   457  ASP457      0.1840
     68  C         17.8140  -19.3690  -43.1400 C.2   457  ASP457      0.2623
     69  O         18.1230  -19.6830  -44.3200 O.2   457  ASP457     -0.2715
     70  CB        18.6190  -16.9690  -43.1400 C.3   457  ASP457      0.1450
     71  CG        19.9810  -17.3510  -42.4770 C.2   457  ASP457      0.3671
     72  OD1       20.0770  -18.1370  -41.4340 O.co2 457  ASP457     -0.2456
     73  OD2       20.9970  -16.7600  -43.0090 O.co2 457  ASP457     -0.2456
     74  N         17.6950  -20.2410  -42.1620 N.am  458  SER458     -0.1936
     75  CA        18.2250  -21.6520  -42.4200 C.3   458  SER458      0.2055
     76  C         17.3950  -22.4500  -43.4020 C.2   458  SER458      0.2642
     77  O         17.7410  -23.6410  -43.6500 O.2   458  SER458     -0.2714
     78  CB        18.3910  -22.5100  -41.1650 C.3   458  SER458      0.2130
     79  OG        17.1930  -22.7630  -40.4340 O.3   458  SER458     -0.2179
     80  N         16.3460  -21.8550  -44.0250 N.am  459  ALA459     -0.1977
     81  CA        15.5520  -22.6980  -45.0170 C.3   459  ALA459      0.1597
     82  C         15.7960  -22.1510  -46.3660 C.2   459  ALA459      0.2287
     83  O         15.1870  -22.5870  -47.3680 O.2   459  ALA459     -0.2864
     84  CB        14.0740  -22.7030  -44.7340 C.3   459  ALA459      0.0319
     85  N         22.4470  -23.1830  -37.7550 N.3   496  GLY496     -0.1210
     86  CA        22.6330  -23.5790  -36.3470 C.3   496  GLY496      0.1956
     87  C         21.9870  -25.0310  -36.2380 C.2   496  GLY496      0.2611
     88  O         21.4660  -25.5590  -37.2110 O.2   496  GLY496     -0.2717
     89  N         22.1410  -25.6350  -35.0760 N.am  497  ALA497     -0.1979
     90  CA        21.4260  -26.9150  -34.6780 C.3   497  ALA497      0.1597
     91  C         21.6400  -28.0390  -35.7030 C.2   497  ALA497      0.2287
     92  O         20.7430  -28.8550  -35.9840 O.2   497  ALA497     -0.2864
     93  CB        19.9200  -26.6680  -34.3830 C.3   497  ALA497      0.0319
     94  N         19.1470  -31.2960  -36.7190 N.3   501  LYS501     -0.1245
     95  CA        18.5470  -31.4120  -37.9730 C.3   501  LYS501      0.1561
     96  C         18.8200  -32.7780  -38.5290 C.2   501  LYS501      0.2260
     97  O         17.9010  -33.4900  -39.0100 O.2   501  LYS501     -0.2867
     98  CB        19.0380  -30.3420  -38.9100 C.3   501  LYS501      0.0271
     99  CG        18.3900  -28.9760  -38.4090 C.3   501  LYS501      0.0035
    100  CD        19.1620  -27.7650  -38.8670 C.3   501  LYS501      0.0206
    101  CE        18.3560  -26.4430  -38.6070 C.3   501  LYS501      0.1093
    102  NZ        19.1080  -25.3790  -39.2740 N.3   501  LYS501     -0.1314
@<TRIPOS>BOND
     1    83    82    2
     2    34    35    1
     3    82    81    1
     4    35    36    1
     5    35    38    1
     6    43    41   ar
     7    43    44   ar
     8    36    37    1
     9    41    39   ar
    10    44    42   ar
    11    81    84    1
    12    81    80    1
    13    26    25    2
    14    33    32   ar
    15    33    31   ar
    16    32    30   ar
    17    39    40   ar
    18    39    38    1
    19    42    40   ar
    20    69    68    2
    21    80    76   am
    22    31    29   ar
    23    25    24    1
    24    30    28   ar
    25    77    76    2
    26    76    75    1
    27     1     2    1
    28    70    67    1
    29    70    71    1
    30    68    67    1
    31    68    74   am
    32    73    71   ar
    33    29    28   ar
    34    28    27    1
    35    67    66    1
    36    24    27    1
    37    24    23    1
    38     6     7    1
    39     6     8    1
    40     6     5    1
    41    71    72   ar
    42    75    74    1
    43    75    78    1
    44     2     5    1
    45     2     3    1
    46    52    50    1
    47    65    64    2
    48    66    64   am
    49    78    79    1
    50     4     3    2
    51     3     9   am
    52    64    63    1
    53    14    13    1
    54    50    49    1
    55     9    10    1
    56    49    51    1
    57    49    46    1
    58    63    62    1
    59   102   101    1
    60    13    10    1
    61    13    15    1
    62    62    55   am
    63    97    96    2
    64    10    11    1
    65    60    59   ar
    66    48    47    2
    67    98    99    1
    68    98    95    1
    69   100   101    1
    70   100    99    1
    71    96    95    1
    72    55    54    1
    73    55    56    2
    74    47    46    1
    75    47    53   am
    76    46    45    1
    77    54    53    1
    78    54    57    1
    79    95    94    1
    80    85    86    1
    81    59    61   ar
    82    59    58    1
    83    11    12    2
    84    11    16   am
    85    88    87    2
    86    57    58    1
    87    16    17    1
    88    86    87    1
    89    87    89   am
    90    92    91    2
    91    91    90    1
    92    17    18    1
    93    17    20    1
    94    22    20    1
    95    89    90    1
    96    19    18    2
    97    90    93    1
    98    20    21    1
