@<TRIPOS>MOLECULE
tmp/4fwhA00.pdb
 149 142 0 0 0
SMALL
GASTEIGER

@<TRIPOS>ATOM
      1  N         12.8930  -29.7030  -45.9260 N.3   370  SER370     -0.1202
      2  CA        13.8240  -28.7740  -45.2370 C.3   370  SER370      0.2020
      3  C         13.8570  -29.2610  -43.7900 C.2   370  SER370      0.2619
      4  O         13.1830  -30.2480  -43.4330 O.2   370  SER370     -0.2717
      5  CB        13.3530  -27.3020  -45.3300 C.3   370  SER370      0.2103
      6  OG        12.1120  -27.1920  -44.7370 O.3   370  SER370     -0.2182
      7  N         14.6910  -28.6590  -42.9740 N.am  371  LEU371     -0.1965
      8  CA        14.8960  -29.1010  -41.5940 C.3   371  LEU371      0.1728
      9  C         14.7810  -27.9220  -40.6490 C.2   371  LEU371      0.2616
     10  O         15.4380  -26.9120  -40.7940 O.2   371  LEU371     -0.2715
     11  CB        16.3130  -29.7130  -41.4290 C.3   371  LEU371      0.0311
     12  CG        16.4640  -30.9450  -42.4250 C.3   371  LEU371      0.0022
     13  CD1       17.9300  -31.1690  -42.8740 C.3   371  LEU371      0.0001
     14  CD2       15.9290  -32.1910  -41.7790 C.3   371  LEU371      0.0001
     15  N         14.0680  -28.1680  -39.5710 N.am  372  VAL372     -0.1963
     16  CA        13.7020  -27.1060  -38.6620 C.3   372  VAL372      0.1727
     17  C         14.0280  -27.6170  -37.3450 C.2   372  VAL372      0.2616
     18  O         14.1770  -28.8330  -37.1370 O.2   372  VAL372     -0.2715
     19  CB        12.2010  -26.7470  -38.7940 C.3   372  VAL372      0.0290
     20  CG1       11.8680  -26.4810  -40.2700 C.3   372  VAL372      0.0023
     21  CG2       11.2660  -27.8910  -38.3320 C.3   372  VAL372      0.0023
     22  N         14.0320  -26.7300  -36.3790 N.am  373  VAL373     -0.1963
     23  CA        14.0970  -27.1580  -35.0150 C.3   373  VAL373      0.1727
     24  C         12.9890  -26.5940  -34.2150 C.2   373  VAL373      0.2616
     25  O         12.6130  -25.4430  -34.4150 O.2   373  VAL373     -0.2715
     26  CB        15.5250  -26.9660  -34.3690 C.3   373  VAL373      0.0290
     27  CG1       16.5930  -26.6190  -35.3580 C.3   373  VAL373      0.0023
     28  CG2       15.5640  -26.1640  -33.0880 C.3   373  VAL373      0.0023
     29  N         12.5060  -27.3050  -33.2130 N.am  374  VAL374     -0.1963
     30  CA        11.3610  -26.7280  -32.5860 C.3   374  VAL374      0.1727
     31  C         11.8410  -26.1090  -31.3340 C.2   374  VAL374      0.2616
     32  O         12.6060  -26.6820  -30.6520 O.2   374  VAL374     -0.2715
     33  CB        10.2300  -27.7410  -32.3130 C.3   374  VAL374      0.0290
     34  CG1       10.2840  -28.8890  -33.3100 C.3   374  VAL374      0.0023
     35  CG2       10.2230  -28.1170  -30.8710 C.3   374  VAL374      0.0023
     36  N         11.3440  -24.9430  -31.0590 N.am  375  GLU375     -0.1963
     37  CA        11.9880  -24.0710  -30.1420 C.3   375  GLU375      0.1733
     38  C         11.5830  -24.2590  -28.6680 C.2   375  GLU375      0.2616
     39  O         11.0480  -23.3500  -28.0230 O.2   375  GLU375     -0.2715
     40  CB        11.5280  -22.7090  -30.5340 C.3   375  GLU375      0.0429
     41  CG        12.5630  -21.9770  -31.2610 C.3   375  GLU375      0.1163
     42  CD        13.5470  -21.4080  -30.2840 C.2   375  GLU375      0.3649
     43  OE1       13.2740  -20.2500  -29.8900 O.co2 375  GLU375     -0.2457
     44  OE2       14.5770  -22.1060  -29.9610 O.co2 375  GLU375     -0.2457
     45  N         11.8350  -25.4160  -28.1200 N.am  376  ALA376     -0.1977
     46  CA        11.7220  -25.5860  -26.6990 C.3   376  ALA376      0.1597
     47  C         12.7960  -26.6310  -26.4080 C.2   376  ALA376      0.2287
     48  O         13.1270  -27.4420  -27.2920 O.2   376  ALA376     -0.2864
     49  CB        10.3360  -26.1050  -26.3240 C.3   376  ALA376      0.0319
     50  N         13.3860  -31.6560  -36.9220 N.3   382  ARG382     -0.1245
     51  CA        12.5060  -32.4370  -37.7580 C.3   382  ARG382      0.1563
     52  C         12.5680  -31.9730  -39.1780 C.2   382  ARG382      0.2260
     53  O         12.9080  -30.8520  -39.4600 O.2   382  ARG382     -0.2867
     54  CB        11.0620  -32.2840  -37.3370 C.3   382  ARG382      0.0307
     55  CG        10.7020  -32.7210  -35.8890 C.3   382  ARG382      0.0489
     56  CD         9.2430  -32.1290  -35.4490 C.3   382  ARG382      0.2205
     57  NE         9.0020  -32.3860  -34.0180 N.pl3 382  ARG382     -0.0865
     58  CZ         7.8660  -32.1150  -33.4020 C.cat 382  ARG382      0.5346
     59  NH1        6.8770  -31.4710  -34.0800 N.pl3 382  ARG382      0.1354
     60  NH2        7.7500  -32.4040  -32.1040 N.pl3 382  ARG382      0.1354
     61  N         10.5880  -30.7880  -42.5370 N.3   384  ALA384     -0.1245
     62  CA         9.3000  -30.0580  -42.7050 C.3   384  ALA384      0.1562
     63  C          9.1530  -29.9440  -44.2140 C.2   384  ALA384      0.2260
     64  O         10.0960  -29.5290  -44.8740 O.2   384  ALA384     -0.2867
     65  CB         9.4760  -28.7000  -42.1130 C.3   384  ALA384      0.0290
     66  N         13.6160  -14.7120  -41.5720 N.3   411  PHE411     -0.1241
     67  CA        13.0170  -15.5880  -42.6200 C.3   411  PHE411      0.1605
     68  C         12.6910  -14.8220  -43.8430 C.2   411  PHE411      0.2264
     69  O         12.9270  -15.2520  -45.0010 O.2   411  PHE411     -0.2867
     70  CB        11.7420  -16.1690  -42.0480 C.3   411  PHE411      0.0534
     71  CG        11.0230  -17.0700  -42.9450 C.ar  411  PHE411     -0.0203
     72  CD1       11.3610  -18.4270  -43.0050 C.ar  411  PHE411     -0.0042
     73  CD2        9.9640  -16.6180  -43.6700 C.ar  411  PHE411     -0.0042
     74  CE1       10.6440  -19.3340  -43.7590 C.ar  411  PHE411     -0.0003
     75  CE2        9.2470  -17.5140  -44.4940 C.ar  411  PHE411     -0.0003
     76  CZ         9.5770  -18.8830  -44.5420 C.ar  411  PHE411     -0.0000
     77  N          5.7170  -23.8560  -46.4070 N.3   440  PHE440     -0.1241
     78  CA         6.0730  -24.9510  -45.5020 C.3   440  PHE440      0.1605
     79  C          4.8050  -25.6390  -45.1010 C.2   440  PHE440      0.2264
     80  O          4.0360  -25.1660  -44.1990 O.2   440  PHE440     -0.2867
     81  CB         6.7880  -24.4120  -44.3060 C.3   440  PHE440      0.0534
     82  CG         8.2180  -24.0650  -44.5950 C.ar  440  PHE440     -0.0203
     83  CD1        9.2340  -24.9150  -44.2620 C.ar  440  PHE440     -0.0042
     84  CD2        8.5220  -22.8420  -45.1890 C.ar  440  PHE440     -0.0042
     85  CE1       10.5760  -24.5630  -44.5720 C.ar  440  PHE440     -0.0003
     86  CE2        9.8000  -22.4880  -45.5080 C.ar  440  PHE440     -0.0003
     87  CZ        10.8290  -23.3590  -45.1510 C.ar  440  PHE440     -0.0000
     88  N          2.8510  -26.1650  -41.5840 N.3   443  ASN443     -0.1240
     89  CA         3.2790  -25.3640  -40.4940 C.3   443  ASN443      0.1653
     90  C          2.1790  -24.3530  -40.0290 C.2   443  ASN443      0.2266
     91  O          1.6450  -23.6500  -40.8130 O.2   443  ASN443     -0.2867
     92  CB         4.5830  -24.6000  -40.9050 C.3   443  ASN443      0.1155
     93  CG         4.9190  -23.5400  -39.8990 C.2   443  ASN443      0.2627
     94  OD1        5.0540  -23.8720  -38.6990 O.2   443  ASN443     -0.2716
     95  ND2        5.0700  -22.2360  -40.3420 N.am  443  ASN443     -0.0877
     96  N          2.8190  -22.3960  -37.1890 N.3   445  VAL445     -0.1231
     97  CA         3.5310  -21.8040  -36.0660 C.3   445  VAL445      0.1692
     98  C          4.5840  -20.8410  -36.6520 C.2   445  VAL445      0.2593
     99  O          4.8010  -20.8270  -37.8790 O.2   445  VAL445     -0.2718
    100  CB         3.9240  -23.0320  -35.1870 C.3   445  VAL445      0.0266
    101  CG1        5.3980  -23.4620  -35.1920 C.3   445  VAL445      0.0020
    102  CG2        3.0730  -23.1980  -33.8560 C.3   445  VAL445      0.0020
    103  N          5.1280  -19.9500  -35.8560 N.am  446  SER446     -0.1938
    104  CA         6.1430  -19.0350  -36.3800 C.3   446  SER446      0.2055
    105  C          7.3890  -19.8040  -36.7560 C.2   446  SER446      0.2643
    106  O          7.7050  -20.7480  -36.1150 O.2   446  SER446     -0.2714
    107  CB         6.5060  -17.9990  -35.4010 C.3   446  SER446      0.2130
    108  OG         6.8800  -18.5820  -34.1660 O.3   446  SER446     -0.2179
    109  N          8.0040  -19.4280  -37.8770 N.am  447  ILE447     -0.1963
    110  CA         9.1980  -20.0790  -38.3340 C.3   447  ILE447      0.1727
    111  C         10.0550  -18.8810  -38.4400 C.2   447  ILE447      0.2616
    112  O          9.6200  -17.8290  -38.9720 O.2   447  ILE447     -0.2715
    113  CB         9.0610  -20.6190  -39.7920 C.3   447  ILE447      0.0290
    114  CG1        7.7410  -20.2810  -40.2560 C.3   447  ILE447      0.0022
    115  CG2        9.4890  -22.0710  -40.0400 C.3   447  ILE447      0.0023
    116  CD1        7.7330  -19.1610  -41.1960 C.3   447  ILE447      0.0001
    117  N         11.3090  -19.0500  -38.0810 N.am  448  GLU448     -0.1963
    118  CA        12.2500  -17.9060  -38.1380 C.3   448  GLU448      0.1733
    119  C         13.6680  -18.4330  -38.3590 C.2   448  GLU448      0.2616
    120  O         14.0360  -19.4770  -37.8160 O.2   448  GLU448     -0.2715
    121  CB        12.1570  -17.1190  -36.8050 C.3   448  GLU448      0.0429
    122  CG        13.1870  -15.9970  -36.5950 C.3   448  GLU448      0.1163
    123  CD        13.2070  -14.8710  -37.6360 C.2   448  GLU448      0.3649
    124  OE1       13.5730  -13.7940  -37.1740 O.co2 448  GLU448     -0.2457
    125  OE2       12.9550  -15.0170  -38.8970 O.co2 448  GLU448     -0.2457
    126  N         14.4400  -17.7110  -39.1380 N.am  449  GLY449     -0.1955
    127  CA        15.8120  -18.0000  -39.4000 C.3   449  GLY449      0.1869
    128  C         16.0540  -18.0830  -40.8970 C.2   449  GLY449      0.2309
    129  O         15.1450  -18.0960  -41.6220 O.2   449  GLY449     -0.2863
    130  N         18.0660  -20.4320  -42.2540 N.3   451  SER451     -0.1202
    131  CA        18.5710  -21.7910  -42.6790 C.3   451  SER451      0.2020
    132  C         17.7460  -22.5820  -43.6160 C.2   451  SER451      0.2618
    133  O         18.1490  -23.6800  -43.8810 O.2   451  SER451     -0.2717
    134  CB        18.8660  -22.7020  -41.4840 C.3   451  SER451      0.2103
    135  OG        17.7020  -22.8750  -40.7280 O.3   451  SER451     -0.2182
    136  N         16.6880  -22.0340  -44.1940 N.am  452  ALA452     -0.1979
    137  CA        15.8780  -22.7970  -45.1430 C.3   452  ALA452      0.1597
    138  C         16.1020  -22.1770  -46.5260 C.2   452  ALA452      0.2287
    139  O         15.5050  -22.6660  -47.4720 O.2   452  ALA452     -0.2864
    140  CB        14.4070  -22.7570  -44.7090 C.3   452  ALA452      0.0319
    141  N         19.4100  -31.1750  -36.6520 N.3   494  LYS494     -0.1245
    142  CA        18.7610  -31.3040  -37.9790 C.3   494  LYS494      0.1561
    143  C         18.9930  -32.6720  -38.5790 C.2   494  LYS494      0.2260
    144  O         18.0620  -33.3260  -38.9510 O.2   494  LYS494     -0.2867
    145  CB        19.2350  -30.2320  -38.8920 C.3   494  LYS494      0.0271
    146  CG        18.5980  -28.8120  -38.5080 C.3   494  LYS494      0.0035
    147  CD        19.4500  -27.7250  -39.1280 C.3   494  LYS494      0.0206
    148  CE        18.7560  -26.3960  -39.0180 C.3   494  LYS494      0.1093
    149  NZ        19.6240  -25.2640  -39.2170 N.3   494  LYS494     -0.1314
@<TRIPOS>BOND
     1   139   138    2
     2   138   137    1
     3    77    78    1
     4     1     2    1
     5    86    84   ar
     6    86    87   ar
     7    78    79    1
     8    78    81    1
     9     5     2    1
    10     5     6    1
    11     2     3    1
    12    84    82   ar
    13    87    85   ar
    14   137   140    1
    15   137   136    1
    16    79    80    2
    17    69    68    2
    18    64    63    2
    19    82    81    1
    20    82    83   ar
    21    85    83   ar
    22    76    75   ar
    23    76    74   ar
    24    75    73   ar
    25    63    62    1
    26   136   132   am
    27   133   132    2
    28    68    67    1
    29     3     4    2
    30     3     7   am
    31    74    72   ar
    32    73    71   ar
    33   132   131    1
    34    72    71   ar
    35     7     8    1
    36    71    70    1
    37    13    12    1
    38    62    61    1
    39    62    65    1
    40   131   130    1
    41   131   134    1
    42    67    70    1
    43    67    66    1
    44    12    14    1
    45    12    11    1
    46   129   128    2
    47     8    11    1
    48     8     9    1
    49    88    89    1
    50   134   135    1
    51   116   114    1
    52    92    89    1
    53    92    93    1
    54   128   127    1
    55    91    90    2
    56    10     9    2
    57     9    15   am
    58    89    90    1
    59    95    93   am
    60    20    19    1
    61   114   113    1
    62   115   113    1
    63    93    94    2
    64   113   110    1
    65    15    16    1
    66    53    52    2
    67   127   126    1
    68   149   148    1
    69    52    51    1
    70   126   119   am
    71   147   148    1
    72   147   146    1
    73   112   111    2
    74   144   143    2
    75   125   123   ar
    76   145   146    1
    77   145   142    1
    78    19    16    1
    79    19    21    1
    80    16    17    1
    81   143   142    1
    82   111   110    1
    83   111   117   am
    84   119   118    1
    85   119   120    2
    86   110   109    1
    87   118   117    1
    88   118   121    1
    89   142   141    1
    90    99    98    2
    91   109   105   am
    92    51    54    1
    93    51    50    1
    94   123   124   ar
    95   123   122    1
    96    17    18    2
    97    17    22   am
    98    54    55    1
    99    96    97    1
   100   121   122    1
   101   105   104    1
   102   105   106    2
   103    98    97    1
   104    98   103   am
   105   104   103    1
   106   104   107    1
   107    22    23    1
   108    97   100    1
   109    55    56    1
   110    56    57    1
   111   107   108    1
   112    27    26    1
   113   101   100    1
   114   100   102    1
   115    23    26    1
   116    23    24    1
   117    25    24    2
   118    26    28    1
   119    24    29   am
   120    59    58    1
   121    57    58    2
   122    58    60    1
   123    34    33    1
   124    29    30    1
   125    30    33    1
   126    30    31    1
   127    33    35    1
   128    31    36   am
   129    31    32    2
   130    41    40    1
   131    41    42    1
   132    36    37    1
   133    40    37    1
   134    42    44   ar
   135    42    43   ar
   136    37    38    1
   137    38    45   am
   138    38    39    2
   139    45    46    1
   140    48    47    2
   141    46    47    1
   142    46    49    1
