@<TRIPOS>MOLECULE
tmp/4fwiA00.pdb
 116 108 0 0 0
SMALL
GASTEIGER

@<TRIPOS>ATOM
      1  N          3.9680    0.8930    6.1740 N.3    13  TYR13      -0.1241
      2  CA         2.9810    1.5350    5.3100 C.3    13  TYR13       0.1605
      3  C          3.4940    1.5920    3.8770 C.2    13  TYR13       0.2264
      4  O          4.4880    2.2630    3.5970 O.2    13  TYR13      -0.2867
      5  CB         2.6410    2.9490    5.7900 C.3    13  TYR13       0.0534
      6  CG         1.8660    2.9810    7.0900 C.ar   13  TYR13      -0.0201
      7  CD1        0.6220    2.3710    7.1920 C.ar   13  TYR13      -0.0009
      8  CD2        2.3790    3.6230    8.2170 C.ar   13  TYR13      -0.0009
      9  CE1       -0.0830    2.3900    8.3730 C.ar   13  TYR13       0.0417
     10  CE2        1.6770    3.6510    9.4050 C.ar   13  TYR13       0.0417
     11  CZ         0.4430    3.0320    9.4880 C.ar   13  TYR13       0.1957
     12  OH        -0.2780    3.0540   10.6830 O.3    13  TYR13      -0.2866
     13  N          3.8500    3.0110    0.4590 N.3    15  VAL15      -0.1245
     14  CA         3.6400    4.3500   -0.0540 C.3    15  VAL15       0.1561
     15  C          4.3280    4.4770   -1.4310 C.2    15  VAL15       0.2260
     16  O          5.1570    3.6350   -1.7880 O.2    15  VAL15      -0.2867
     17  CB         4.0650    5.4040    1.0150 C.3    15  VAL15       0.0252
     18  CG1        5.2290    6.2800    0.5420 C.3    15  VAL15       0.0019
     19  CG2        2.8760    6.2270    1.4370 C.3    15  VAL15       0.0019
     20  N          7.0870    2.8600    4.6680 N.3    20  ILE20      -0.1245
     21  CA         7.2070    3.5520    5.9510 C.3    20  ILE20       0.1561
     22  C          7.3490    2.5940    7.1170 C.2    20  ILE20       0.2260
     23  O          6.4230    1.8560    7.4750 O.2    20  ILE20      -0.2867
     24  CB         6.0590    4.4880    6.2480 C.3    20  ILE20       0.0252
     25  CG1        5.8840    5.4480    5.0740 C.3    20  ILE20       0.0019
     26  CG2        6.3680    5.2560    7.5470 C.3    20  ILE20       0.0019
     27  CD1        7.1930    6.0500    4.6750 C.3    20  ILE20       0.0001
     28  N          7.4320    2.4040   10.3120 N.3    22  ALA22      -0.1245
     29  CA         6.9100    2.5350   11.6590 C.3    22  ALA22       0.1562
     30  C          6.8920    1.0970   12.1490 C.2    22  ALA22       0.2260
     31  O          7.1420    0.1810   11.3530 O.2    22  ALA22      -0.2867
     32  CB         5.5230    3.1150   11.6170 C.3    22  ALA22       0.0290
     33  N          5.2200   12.4320   18.9060 N.3    42  SER42      -0.1202
     34  CA         4.3390   12.3980   17.7400 C.3    42  SER42       0.2020
     35  C          4.9450   11.6190   16.5730 C.2    42  SER42       0.2619
     36  O          6.1720   11.5830   16.3600 O.2    42  SER42      -0.2717
     37  CB         3.9720   13.8100   17.2880 C.3    42  SER42       0.2103
     38  OG         3.6240   14.6200   18.3960 O.3    42  SER42      -0.2182
     39  N          4.0630   10.9700   15.8350 N.am   43  ALA43      -0.1965
     40  CA         4.4630   10.2530   14.6420 C.3    43  ALA43       0.1728
     41  C          5.6710    9.3280   14.8440 C.2    43  ALA43       0.2617
     42  O          6.5950    9.3260   14.0450 O.2    43  ALA43      -0.2715
     43  CB         4.7260   11.2380   13.5260 C.3    43  ALA43       0.0334
     44  N          5.6510    8.5120   15.8830 N.am   44  SER44      -0.1936
     45  CA         6.7800    7.6160   16.1140 C.3    44  SER44       0.2055
     46  C          6.4460    6.1360   15.9840 C.2    44  SER44       0.2644
     47  O          7.3190    5.3080   16.1920 O.2    44  SER44      -0.2714
     48  CB         7.4700    7.8930   17.4700 C.3    44  SER44       0.2130
     49  OG         6.5470    8.0400   18.5550 O.3    44  SER44      -0.2179
     50  N          5.1980    5.8040   15.6530 N.am   45  GLY45      -0.1939
     51  CA         4.8050    4.4120   15.4930 C.3    45  GLY45       0.2014
     52  C          3.8420    3.8350   16.5330 C.2    45  GLY45       0.2639
     53  O          3.4040    2.6860   16.3980 O.2    45  GLY45      -0.2714
     54  N          3.5110    4.6110   17.5640 N.am   46  LYS46      -0.1963
     55  CA         2.6340    4.1330   18.6270 C.3    46  LYS46       0.1728
     56  C          1.3190    3.5230   18.0930 C.2    46  LYS46       0.2617
     57  O          0.9900    2.3310   18.3390 O.2    46  LYS46      -0.2715
     58  CB         2.3070    5.2830   19.5860 C.3    46  LYS46       0.0311
     59  CG         3.4400    5.7500   20.5010 C.3    46  LYS46       0.0038
     60  CD         3.0970    7.1210   21.1200 C.3    46  LYS46       0.0206
     61  CE         3.1900    8.2510   20.0810 C.3    46  LYS46       0.1093
     62  NZ         2.4240    9.5070   20.4040 N.3    46  LYS46      -0.1314
     63  N          0.5610    4.3440   17.3700 N.am   47  SER47      -0.1936
     64  CA        -0.7440    3.9010   16.8810 C.3    47  SER47       0.2055
     65  C         -0.5610    2.7730   15.8940 C.2    47  SER47       0.2643
     66  O         -1.4470    1.9180   15.7580 O.2    47  SER47      -0.2714
     67  CB        -1.5190    5.0230   16.2260 C.3    47  SER47       0.2130
     68  OG        -1.3570    6.2700   16.8920 O.3    47  SER47      -0.2179
     69  N          0.5960    2.7690   15.2230 N.am   48  THR48      -0.1950
     70  CA         0.9000    1.7410   14.2270 C.3    48  THR48       0.1897
     71  C          1.1350    0.3690   14.8650 C.2    48  THR48       0.2313
     72  O          0.7090   -0.6670   14.3450 O.2    48  THR48      -0.2863
     73  CB         2.1230    2.1080   13.3760 C.3    48  THR48       0.1794
     74  OG1        1.9430    3.4090   12.8140 O.3    48  THR48      -0.2208
     75  CG2        2.3350    1.0900   12.2610 C.3    48  THR48       0.0378
     76  N         -4.6620    0.1330    8.2770 N.3    58  PRO58      -0.2116
     77  CA        -5.4170    0.6440    7.1230 C.3    58  PRO58       0.1372
     78  C         -5.2220   -0.2290    5.8590 C.2    58  PRO58       0.2244
     79  O         -4.5100   -1.2530    5.9090 O.2    58  PRO58      -0.2868
     80  CB        -4.8490    2.0600    6.9180 C.3    58  PRO58       0.0268
     81  CG        -3.9630    2.3480    8.1070 C.3    58  PRO58       0.0207
     82  CD        -3.5300    1.0080    8.6260 C.3    58  PRO58       0.0892
     83  N         -3.8080    0.6490    3.3310 N.3    60  ASN60      -0.1240
     84  CA        -2.4260    1.0430    3.2020 C.3    60  ASN60       0.1653
     85  C         -1.4060    0.1580    3.9390 C.2    60  ASN60       0.2266
     86  O         -0.4330   -0.2910    3.3620 O.2    60  ASN60      -0.2867
     87  CB        -2.3360    2.4570    3.7520 C.3    60  ASN60       0.1155
     88  CG        -1.1210    3.1410    3.3200 C.2    60  ASN60       0.2627
     89  OD1       -1.0630    4.3640    3.2780 O.2    60  ASN60      -0.2716
     90  ND2       -0.1280    2.3610    2.9470 N.am   60  ASN60      -0.0877
     91  N         -7.3280    5.8270   18.0090 N.3    96  GLN96      -0.1245
     92  CA        -7.0510    7.2710   17.9970 C.3    96  GLN96       0.1566
     93  C         -8.2340    8.0300   17.4250 C.2    96  GLN96       0.2260
     94  O         -8.7380    7.6920   16.3500 O.2    96  GLN96      -0.2867
     95  CB        -5.7480    7.6210   17.2550 C.3    96  GLN96       0.0367
     96  CG        -4.4950    7.5660   18.1440 C.3    96  GLN96       0.0905
     97  CD        -3.4220    8.6050   17.7870 C.2    96  GLN96       0.2608
     98  OE1       -2.3960    8.2890   17.1470 O.2    96  GLN96      -0.2717
     99  NE2       -3.6480    9.8520   18.2240 N.am   96  GLN96      -0.0878
    100  N         -4.0770    7.2220   22.5620 N.3   179  GLU179     -0.1245
    101  CA        -4.1510    8.6590   22.8550 C.3   179  GLU179      0.1567
    102  C         -5.4950    9.0140   23.4800 C.2   179  GLU179      0.2260
    103  O         -6.1990    9.9120   22.9970 O.2   179  GLU179     -0.2867
    104  CB        -3.9090    9.4860   21.5920 C.3   179  GLU179      0.0388
    105  CG        -2.8930   10.6200   21.7570 C.3   179  GLU179      0.1160
    106  CD        -1.4750   10.1240   21.9090 C.2   179  GLU179      0.3649
    107  OE1       -1.1120    9.7600   23.0410 O.co2 179  GLU179     -0.2457
    108  OE2       -0.7260   10.0990   20.9060 O.co2 179  GLU179     -0.2457
    109  N         10.9500    8.2780    8.3930 N.3   267  LEU267     -0.1245
    110  CA        10.6200    6.8740    8.6040 C.3   267  LEU267      0.1561
    111  C         10.6420    6.1160    7.2880 C.2   267  LEU267      0.2260
    112  O         10.6370    4.8650    7.2730 O.2   267  LEU267     -0.2867
    113  CB         9.2770    6.7050    9.3330 C.3   267  LEU267      0.0270
    114  CG         9.3660    6.7110   10.8680 C.3   267  LEU267      0.0019
    115  CD1        8.0540    6.2450   11.5210 C.3   267  LEU267      0.0001
    116  CD2       10.5310    5.8530   11.3460 C.3   267  LEU267      0.0001
@<TRIPOS>BOND
     1    16    15    2
     2    15    14    1
     3    14    13    1
     4    14    17    1
     5    18    17    1
     6    17    19    1
     7    90    88   am
     8    84    83    1
     9    84    87    1
    10    84    85    1
    11    89    88    2
    12    88    87    1
    13    86    85    2
    14     4     3    2
    15     3     2    1
    16    20    21    1
    17    27    25    1
    18    25    24    1
    19     2     5    1
    20     2     1    1
    21     5     6    1
    22    78    79    2
    23    78    77    1
    24    21    24    1
    25    21    22    1
    26    24    26    1
    27    80    77    1
    28    80    81    1
    29     6     7   ar
    30     6     8   ar
    31    22    23    2
    32    77    76    1
    33     7     9   ar
    34   112   111    2
    35   111   110    1
    36    81    82    1
    37     8    10   ar
    38    76    82    1
    39     9    11   ar
    40   109   110    1
    41   110   113    1
    42   113   114    1
    43    10    11   ar
    44    11    12    1
    45    28    29    1
    46   114   116    1
    47   114   115    1
    48    31    30    2
    49    32    29    1
    50    29    30    1
    51    75    73    1
    52    74    73    1
    53    73    70    1
    54    43    40    1
    55    42    41    2
    56    70    71    1
    57    70    69    1
    58    72    71    2
    59    40    41    1
    60    40    39    1
    61    41    44   am
    62    69    65   am
    63    51    50    1
    64    51    52    1
    65    50    46   am
    66    66    65    2
    67    39    35   am
    68    44    45    1
    69    65    64    1
    70    46    45    1
    71    46    47    2
    72    45    48    1
    73    67    64    1
    74    67    68    1
    75    94    93    2
    76    36    35    2
    77    53    52    2
    78    52    54   am
    79    35    34    1
    80    64    63    1
    81    98    97    2
    82    95    92    1
    83    95    96    1
    84    37    34    1
    85    37    38    1
    86    63    56   am
    87    93    92    1
    88    48    49    1
    89    54    55    1
    90    34    33    1
    91    97    96    1
    92    97    99   am
    93    92    91    1
    94    56    57    2
    95    56    55    1
    96    55    58    1
    97    58    59    1
    98    61    62    1
    99    61    60    1
   100    59    60    1
   101   108   106   ar
   102   104   105    1
   103   104   101    1
   104   105   106    1
   105   106   107   ar
   106   100   101    1
   107   101   102    1
   108   103   102    2
