@<TRIPOS>MOLECULE
tmp/4fwkA00.pdb
 94 89 0 0 0
SMALL
GASTEIGER

@<TRIPOS>ATOM
      1  N         51.7070    7.5970    1.6210 N.3   200  HIS200     -0.1241
      2  CA        50.8580    7.9450    2.7530 C.3   200  HIS200      0.1621
      3  C         49.9560    6.7730    3.1050 C.2   200  HIS200      0.2264
      4  O         48.9570    6.5160    2.4320 O.2   200  HIS200     -0.2867
      5  CB        50.0310    9.2020    2.4790 C.3   200  HIS200      0.0745
      6  CG        49.2810    9.6950    3.6790 C.ar  200  HIS200      0.0817
      7  ND1       48.0200    9.2440    4.0070 N.ar  200  HIS200     -0.2268
      8  CD2       49.6230   10.5840    4.6400 C.ar  200  HIS200      0.1154
      9  CE1       47.6160    9.8390    5.1150 C.ar  200  HIS200      0.1986
     10  NE2       48.5690   10.6600    5.5170 N.ar  200  HIS200     -0.2212
     11  N         47.6660    5.0410    6.0570 N.3   202  GLY202     -0.1210
     12  CA        46.9570    5.2290    7.3180 C.3   202  GLY202      0.1956
     13  C         45.4550    5.1200    7.1620 C.2   202  GLY202      0.2611
     14  O         44.9450    4.0910    6.7100 O.2   202  GLY202     -0.2717
     15  N         44.7550    6.1870    7.5490 N.am  203  ASN203     -0.1974
     16  CA        43.3040    6.3020    7.3790 C.3   203  ASN203      0.1688
     17  C         42.8850    5.8900    5.9670 C.2   203  ASN203      0.2292
     18  O         42.3040    4.8200    5.7650 O.2   203  ASN203     -0.2864
     19  CB        42.8300    7.7300    7.7100 C.3   203  ASN203      0.1181
     20  CG        43.7010    8.8150    7.0650 C.2   203  ASN203      0.2629
     21  OD1       44.8950    8.9350    7.3570 O.2   203  ASN203     -0.2716
     22  ND2       43.0960    9.6160    6.1920 N.am  203  ASN203     -0.0877
     23  N         39.5370   -3.3970   10.6270 N.3   274  SER274     -0.1202
     24  CA        40.1530   -2.4360    9.7190 C.3   274  SER274      0.2020
     25  C         41.4570   -1.9100   10.3180 C.2   274  SER274      0.2619
     26  O         42.2960   -1.3530    9.6090 O.2   274  SER274     -0.2717
     27  CB        39.1990   -1.2750    9.4310 C.3   274  SER274      0.2103
     28  OG        38.9750   -0.4950   10.5920 O.3   274  SER274     -0.2182
     29  N         41.6130   -2.0940   11.6280 N.am  275  ASP275     -0.1959
     30  CA        42.8110   -1.6680   12.3480 C.3   275  ASP275      0.1840
     31  C         43.9530   -2.6550   12.1180 C.2   275  ASP275      0.2622
     32  O         43.7750   -3.8670   12.2550 O.2   275  ASP275     -0.2715
     33  CB        42.5110   -1.5270   13.8450 C.3   275  ASP275      0.1450
     34  CG        43.6060   -0.7920   14.5980 C.2   275  ASP275      0.3671
     35  OD1       44.7250   -1.3320   14.7180 O.co2 275  ASP275     -0.2456
     36  OD2       43.3410    0.3250   15.0880 O.co2 275  ASP275     -0.2456
     37  N         45.1230   -2.1210   11.7750 N.am  276  LEU276     -0.1963
     38  CA        46.2880   -2.9400   11.4510 C.3   276  LEU276      0.1728
     39  C         46.9160   -3.6020   12.6830 C.2   276  LEU276      0.2616
     40  O         47.4140   -4.7290   12.5940 O.2   276  LEU276     -0.2715
     41  CB        47.3370   -2.1100   10.7080 C.3   276  LEU276      0.0311
     42  CG        47.9570   -2.6900    9.4280 C.3   276  LEU276      0.0022
     43  CD1       49.0330   -1.7570    8.9120 C.3   276  LEU276      0.0001
     44  CD2       48.5270   -4.0920    9.6080 C.3   276  LEU276      0.0001
     45  N         46.8910   -2.9050   13.8210 N.am  277  ARG277     -0.1977
     46  CA        47.4380   -3.4320   15.0790 C.3   277  ARG277      0.1597
     47  C         46.7510   -4.7290   15.5060 C.2   277  ARG277      0.2287
     48  O         47.3930   -5.6240   16.0610 O.2   277  ARG277     -0.2864
     49  CB        47.3420   -2.3940   16.2020 C.3   277  ARG277      0.0334
     50  CG        48.3810   -1.2870   16.1290 C.3   277  ARG277      0.0492
     51  CD        48.1400   -0.2140   17.1870 C.3   277  ARG277      0.2205
     52  NE        47.0820    0.7250   16.8060 N.pl3 277  ARG277     -0.0865
     53  CZ        45.8630    0.7610   17.3410 C.cat 277  ARG277      0.5346
     54  NH1       45.5180   -0.0880   18.3020 N.pl3 277  ARG277      0.1354
     55  NH2       44.9830    1.6580   16.9160 N.pl3 277  ARG277      0.1354
     56  N         47.8960   -7.4780   12.8410 N.3   280  GLU280     -0.1245
     57  CA        49.2820   -7.8710   13.1130 C.3   280  GLU280      0.1567
     58  C         49.3450   -8.8860   14.2520 C.2   280  GLU280      0.2260
     59  O         50.0830   -9.8710   14.1750 O.2   280  GLU280     -0.2867
     60  CB        50.1510   -6.6510   13.4450 C.3   280  GLU280      0.0388
     61  CG        50.5880   -5.8320   12.2330 C.3   280  GLU280      0.1160
     62  CD        51.7510   -4.8920   12.5290 C.2   280  GLU280      0.3649
     63  OE1       51.6520   -3.6990   12.1750 O.co2 280  GLU280     -0.2457
     64  OE2       52.7640   -5.3410   13.1100 O.co2 280  GLU280     -0.2457
     65  N         52.1870    8.7960    7.4010 N.3   322  GLY322     -0.1210
     66  CA        50.8440    8.4580    7.8720 C.3   322  GLY322      0.1956
     67  C         50.8730    7.5250    9.0690 C.2   322  GLY322      0.2612
     68  O         51.9380    7.0560    9.4730 O.2   322  GLY322     -0.2717
     69  N         49.6970    7.2520    9.6320 N.am  323  GLY323     -0.1942
     70  CA        49.5640    6.3880   10.8110 C.3   323  GLY323      0.2014
     71  C         50.2820    5.0570   10.6850 C.2   323  GLY323      0.2638
     72  O         51.0480    4.6690   11.5720 O.2   323  GLY323     -0.2714
     73  N         50.0380    4.3680    9.5730 N.am  324  ILE324     -0.1977
     74  CA        50.6750    3.0830    9.2870 C.3   324  ILE324      0.1596
     75  C         52.1520    3.2640    8.9290 C.2   324  ILE324      0.2287
     76  O         53.0190    2.5980    9.4980 O.2   324  ILE324     -0.2864
     77  CB        49.9360    2.3240    8.1550 C.3   324  ILE324      0.0276
     78  CG1       48.5300    1.9210    8.6130 C.3   324  ILE324      0.0022
     79  CG2       50.7380    1.1050    7.7040 C.3   324  ILE324      0.0022
     80  CD1       47.5790    1.5440    7.4890 C.3   324  ILE324      0.0001
     81  N         54.5340    4.1030   11.9230 N.3   327  ASN327     -0.1225
     82  CA        54.5440    3.2180   13.0910 C.3   327  ASN327      0.1785
     83  C         54.7870    1.7350   12.8050 C.2   327  ASN327      0.2597
     84  O         55.4540    1.0540   13.5880 O.2   327  ASN327     -0.2718
     85  CB        53.2500    3.3940   13.8880 C.3   327  ASN327      0.1169
     86  CG        53.0880    4.8000   14.4310 C.2   327  ASN327      0.2627
     87  OD1       53.9420    5.2970   15.1660 O.2   327  ASN327     -0.2716
     88  ND2       51.9850    5.4480   14.0740 N.am  327  ASN327     -0.0877
     89  N         54.2480    1.2400   11.6920 N.am  328  SER328     -0.1952
     90  CA        54.3320   -0.1830   11.3660 C.3   328  SER328      0.1924
     91  C         55.7110   -0.5970   10.8520 C.2   328  SER328      0.2314
     92  O         56.0510   -0.3680    9.6890 O.2   328  SER328     -0.2863
     93  CB        53.2450   -0.5750   10.3630 C.3   328  SER328      0.2116
     94  OG        53.1880   -1.9810   10.2140 O.3   328  SER328     -0.2180
@<TRIPOS>BOND
     1     1     2    1
     2     4     3    2
     3     5     2    1
     4     5     6    1
     5     2     3    1
     6     6     7   ar
     7     6     8   ar
     8     7     9   ar
     9     8    10   ar
    10     9    10   ar
    11    18    17    2
    12    17    16    1
    13    11    12    1
    14    22    20   am
    15    14    13    2
    16    20    21    2
    17    20    19    1
    18    13    12    1
    19    13    15   am
    20    16    15    1
    21    16    19    1
    22    65    66    1
    23    80    78    1
    24    79    77    1
    25    66    67    1
    26    77    78    1
    27    77    74    1
    28    43    42    1
    29    75    74    1
    30    75    76    2
    31    67    68    2
    32    67    69   am
    33    74    73    1
    34    42    44    1
    35    42    41    1
    36    27    24    1
    37    27    28    1
    38    73    71   am
    39    26    25    2
    40    69    70    1
    41    92    91    2
    42    24    25    1
    43    24    23    1
    44    94    93    1
    45    25    29   am
    46    93    90    1
    47    71    70    1
    48    71    72    2
    49    41    38    1
    50    91    90    1
    51    90    89    1
    52    38    37    1
    53    38    39    1
    54    29    30    1
    55    89    83   am
    56    37    31   am
    57    81    82    1
    58    31    32    2
    59    31    30    1
    60    63    62   ar
    61    61    62    1
    62    61    60    1
    63    30    33    1
    64    62    64   ar
    65    40    39    2
    66    39    45   am
    67    83    82    1
    68    83    84    2
    69    56    57    1
    70    82    85    1
    71    57    60    1
    72    57    58    1
    73    45    46    1
    74    33    34    1
    75    85    86    1
    76    88    86   am
    77    59    58    2
    78    86    87    2
    79    34    35   ar
    80    34    36   ar
    81    46    47    1
    82    46    49    1
    83    47    48    2
    84    50    49    1
    85    50    51    1
    86    52    51    1
    87    52    53    2
    88    55    53    1
    89    53    54    1
