@<TRIPOS>MOLECULE
tmp/4fwmA00.pdb
 125 118 0 0 0
SMALL
GASTEIGER

@<TRIPOS>ATOM
      1  N         45.1350   13.5630   -0.2410 N.3   172  HIS172     -0.1241
      2  CA        46.2790   13.6680    0.6750 C.3   172  HIS172      0.1621
      3  C         47.3130   14.6890    0.1900 C.2   172  HIS172      0.2264
      4  O         48.4590   14.6850    0.6510 O.2   172  HIS172     -0.2867
      5  CB        46.9580   12.3070    0.9010 C.3   172  HIS172      0.0745
      6  CG        46.1110   11.3180    1.6360 C.ar  172  HIS172      0.0817
      7  ND1       45.8030   10.0780    1.1210 N.ar  172  HIS172     -0.2268
      8  CD2       45.5050   11.3850    2.8450 C.ar  172  HIS172      0.1154
      9  CE1       45.0440    9.4230    1.9810 C.ar  172  HIS172      0.1986
     10  NE2       44.8470   10.1950    3.0340 N.ar  172  HIS172     -0.2212
     11  N         51.6410    7.6510    1.5650 N.3   200  HIS200     -0.1241
     12  CA        50.7820    8.0160    2.6740 C.3   200  HIS200      0.1621
     13  C         49.9490    6.8080    3.0550 C.2   200  HIS200      0.2264
     14  O         49.0130    6.4440    2.3490 O.2   200  HIS200     -0.2867
     15  CB        49.8770    9.1920    2.3190 C.3   200  HIS200      0.0745
     16  CG        49.0710    9.6910    3.4770 C.ar  200  HIS200      0.0817
     17  ND1       49.4630   10.7630    4.2500 N.ar  200  HIS200     -0.2268
     18  CD2       47.9070    9.2480    4.0100 C.ar  200  HIS200      0.1154
     19  CE1       48.5670   10.9680    5.2000 C.ar  200  HIS200      0.1986
     20  NE2       47.6140   10.0620    5.0770 N.ar  200  HIS200     -0.2212
     21  N         47.5850    5.3950    5.8730 N.3   202  GLY202     -0.1210
     22  CA        46.7190    5.4900    7.0440 C.3   202  GLY202      0.1956
     23  C         45.4420    4.7160    6.7690 C.2   202  GLY202      0.2612
     24  O         45.4280    3.8270    5.9120 O.2   202  GLY202     -0.2717
     25  N         44.3660    5.0420    7.4860 N.am  203  ASN203     -0.1960
     26  CA        43.0510    4.4640    7.1930 C.3   203  ASN203      0.1819
     27  C         42.6290    4.8080    5.7710 C.2   203  ASN203      0.2621
     28  O         41.8760    4.0670    5.1340 O.2   203  ASN203     -0.2715
     29  CB        41.9960    4.9390    8.1980 C.3   203  ASN203      0.1195
     30  CG        42.1510    4.2860    9.5670 C.2   203  ASN203      0.2630
     31  OD1       42.1290    4.9660   10.6010 O.2   203  ASN203     -0.2716
     32  ND2       42.3060    2.9590    9.5810 N.am  203  ASN203     -0.0877
     33  N         43.1140    5.9530    5.3010 N.am  204  GLY204     -0.1954
     34  CA        43.0970    6.3020    3.8940 C.3   204  GLY204      0.1869
     35  C         44.5320    6.2360    3.4040 C.2   204  GLY204      0.2309
     36  O         45.4440    6.7610    4.0520 O.2   204  GLY204     -0.2863
     37  N         40.9590   -3.9520    4.2550 N.3   266  LEU266     -0.1245
     38  CA        41.4800   -4.8020    5.3250 C.3   266  LEU266      0.1561
     39  C         40.3520   -5.4470    6.1230 C.2   266  LEU266      0.2260
     40  O         40.4170   -6.6320    6.4500 O.2   266  LEU266     -0.2867
     41  CB        42.3820   -3.9970    6.2660 C.3   266  LEU266      0.0270
     42  CG        43.7620   -3.5390    5.7840 C.3   266  LEU266      0.0019
     43  CD1       44.3350   -2.5150    6.7530 C.3   266  LEU266      0.0001
     44  CD2       44.7270   -4.7140    5.6120 C.3   266  LEU266      0.0001
     45  N         39.2860   -3.1460   10.7470 N.3   274  SER274     -0.1202
     46  CA        39.8460   -2.0810    9.9270 C.3   274  SER274      0.2020
     47  C         41.2360   -1.7000   10.4400 C.2   274  SER274      0.2619
     48  O         42.1050   -1.3090    9.6630 O.2   274  SER274     -0.2717
     49  CB        38.9260   -0.8630    9.9610 C.3   274  SER274      0.2103
     50  OG        39.5620    0.2790    9.4220 O.3   274  SER274     -0.2182
     51  N         41.4340   -1.8310   11.7510 N.am  275  ASP275     -0.1959
     52  CA        42.6880   -1.4580   12.4080 C.3   275  ASP275      0.1840
     53  C         43.8100   -2.4800   12.2020 C.2   275  ASP275      0.2622
     54  O         43.6100   -3.6890   12.3520 O.2   275  ASP275     -0.2715
     55  CB        42.4530   -1.2100   13.9030 C.3   275  ASP275      0.1450
     56  CG        43.6780   -0.6490   14.6030 C.2   275  ASP275      0.3671
     57  OD1       44.5820   -1.4390   14.9480 O.co2 275  ASP275     -0.2456
     58  OD2       43.7350    0.5820   14.8160 O.co2 275  ASP275     -0.2456
     59  N         44.9950   -1.9650   11.8860 N.am  276  LEU276     -0.1963
     60  CA        46.1640   -2.7810   11.5770 C.3   276  LEU276      0.1728
     61  C         46.8070   -3.4510   12.7960 C.2   276  LEU276      0.2616
     62  O         47.2540   -4.5980   12.7000 O.2   276  LEU276     -0.2715
     63  CB        47.2010   -1.9400   10.8300 C.3   276  LEU276      0.0311
     64  CG        48.3170   -2.6710   10.0820 C.3   276  LEU276      0.0022
     65  CD1       47.7900   -3.3070    8.8040 C.3   276  LEU276      0.0001
     66  CD2       49.4500   -1.7080    9.7710 C.3   276  LEU276      0.0001
     67  N         46.8650   -2.7420   13.9260 N.am  277  ARG277     -0.1977
     68  CA        47.4360   -3.2950   15.1680 C.3   277  ARG277      0.1597
     69  C         46.7670   -4.6050   15.5730 C.2   277  ARG277      0.2287
     70  O         47.4250   -5.5060   16.0890 O.2   277  ARG277     -0.2864
     71  CB        47.3480   -2.2910   16.3230 C.3   277  ARG277      0.0334
     72  CG        48.4900   -1.2860   16.3890 C.3   277  ARG277      0.0492
     73  CD        48.1970   -0.1610   17.3870 C.3   277  ARG277      0.2205
     74  NE        47.2950    0.8540   16.8350 N.pl3 277  ARG277     -0.0865
     75  CZ        46.0340    1.0560   17.2200 C.cat 277  ARG277      0.5346
     76  NH1       45.4880    0.3210   18.1840 N.pl3 277  ARG277      0.1354
     77  NH2       45.3150    2.0080   16.6380 N.pl3 277  ARG277      0.1354
     78  N         47.8860   -7.3220   12.9260 N.3   280  GLU280     -0.1245
     79  CA        49.2760   -7.6970   13.2000 C.3   280  GLU280      0.1567
     80  C         49.3550   -8.6680   14.3750 C.2   280  GLU280      0.2260
     81  O         50.1810   -9.5820   14.3770 O.2   280  GLU280     -0.2867
     82  CB        50.1410   -6.4610   13.4730 C.3   280  GLU280      0.0388
     83  CG        50.4130   -5.6000   12.2460 C.3   280  GLU280      0.1160
     84  CD        51.5300   -4.5900   12.4550 C.2   280  GLU280      0.3649
     85  OE1       52.6200   -4.9720   12.9350 O.co2 280  GLU280     -0.2457
     86  OE2       51.3230   -3.4070   12.1210 O.co2 280  GLU280     -0.2457
     87  N         52.1260    8.8300    7.3750 N.3   322  GLY322     -0.1210
     88  CA        50.7800    8.4320    7.7850 C.3   322  GLY322      0.1956
     89  C         50.8240    7.5110    8.9900 C.2   322  GLY322      0.2612
     90  O         51.9020    7.1000    9.4270 O.2   322  GLY322     -0.2717
     91  N         49.6540    7.1850    9.5330 N.am  323  GLY323     -0.1942
     92  CA        49.5650    6.3490   10.7350 C.3   323  GLY323      0.2014
     93  C         50.3370    5.0500   10.6170 C.2   323  GLY323      0.2638
     94  O         51.1710    4.7300   11.4710 O.2   323  GLY323     -0.2714
     95  N         50.0580    4.3150    9.5410 N.am  324  ILE324     -0.1977
     96  CA        50.7040    3.0390    9.2570 C.3   324  ILE324      0.1596
     97  C         52.1550    3.2440    8.8420 C.2   324  ILE324      0.2287
     98  O         53.0560    2.5750    9.3610 O.2   324  ILE324     -0.2864
     99  CB        49.9590    2.2750    8.1490 C.3   324  ILE324      0.0276
    100  CG1       48.5420    1.9110    8.6080 C.3   324  ILE324      0.0022
    101  CG2       50.7430    1.0340    7.7360 C.3   324  ILE324      0.0022
    102  CD1       47.5110    1.8580    7.4930 C.3   324  ILE324      0.0001
    103  N         54.4030    4.1460   11.9550 N.3   327  ASN327     -0.1225
    104  CA        54.3730    3.3060   13.1530 C.3   327  ASN327      0.1785
    105  C         54.4550    1.7870   12.9460 C.2   327  ASN327      0.2597
    106  O         54.5370    1.0360   13.9240 O.2   327  ASN327     -0.2718
    107  CB        53.1270    3.6390   13.9680 C.3   327  ASN327      0.1169
    108  CG        53.1420    5.0450   14.4870 C.2   327  ASN327      0.2627
    109  OD1       54.0260    5.4240   15.2550 O.2   327  ASN327     -0.2716
    110  ND2       52.1550    5.8360   14.0770 N.am  327  ASN327     -0.0877
    111  N         54.4290    1.3330   11.6950 N.am  328  SER328     -0.1952
    112  CA        54.4690   -0.1000   11.4220 C.3   328  SER328      0.1924
    113  C         55.8050   -0.5580   10.8500 C.2   328  SER328      0.2314
    114  O         56.0700   -0.4100    9.6550 O.2   328  SER328     -0.2863
    115  CB        53.3200   -0.5170   10.5080 C.3   328  SER328      0.2116
    116  OG        53.3990   -1.9020   10.2310 O.3   328  SER328     -0.2180
    117  N         49.7740   17.8630    8.6440 N.3   378  GLU378     -0.1245
    118  CA        48.8620   18.6180    7.8030 C.3   378  GLU378      0.1567
    119  C         48.5700   19.9590    8.4410 C.2   378  GLU378      0.2260
    120  O         48.4940   20.9720    7.7530 O.2   378  GLU378     -0.2867
    121  CB        47.5750   17.8280    7.5680 C.3   378  GLU378      0.0388
    122  CG        47.8340   16.4030    7.0880 C.3   378  GLU378      0.1160
    123  CD        46.6520   15.7870    6.3660 C.2   378  GLU378      0.3649
    124  OE1       46.7310   14.5790    6.0380 O.co2 378  GLU378     -0.2457
    125  OE2       45.6490   16.5020    6.1230 O.co2 378  GLU378     -0.2457
@<TRIPOS>BOND
     1     1     2    1
     2     3     4    2
     3     3     2    1
     4     2     5    1
     5     5     6    1
     6     7     6   ar
     7     7     9   ar
     8    11    12    1
     9     6     8   ar
    10     9    10   ar
    11    15    12    1
    12    15    16    1
    13    14    13    2
    14    12    13    1
    15     8    10   ar
    16    35    34    1
    17    35    36    2
    18    16    18   ar
    19    16    17   ar
    20    34    33    1
    21    18    20   ar
    22    17    19   ar
    23    37    38    1
    24    20    19   ar
    25    28    27    2
    26    33    27   am
    27    38    39    1
    28    38    41    1
    29    44    42    1
    30    27    26    1
    31    42    41    1
    32    42    43    1
    33    21    22    1
    34    24    23    2
    35   124   123   ar
    36   125   123   ar
    37    39    40    2
    38   123   122    1
    39    23    22    1
    40    23    25   am
    41   122   121    1
    42    26    25    1
    43    26    29    1
    44    87    88    1
    45   102   100    1
    46   121   118    1
    47   101    99    1
    48   120   119    2
    49    88    89    1
    50   118   119    1
    51   118   117    1
    52    99   100    1
    53    99    96    1
    54    29    30    1
    55    65    64    1
    56    97    96    1
    57    97    98    2
    58    89    90    2
    59    89    91   am
    60    96    95    1
    61    50    49    1
    62    91    92    1
    63    95    93   am
    64    30    32   am
    65    30    31    2
    66   114   113    2
    67    48    47    2
    68    66    64    1
    69    46    49    1
    70    46    47    1
    71    46    45    1
    72    64    63    1
    73   116   115    1
    74    47    51   am
    75   115   112    1
    76    93    92    1
    77    93    94    2
    78    63    60    1
    79   113   112    1
    80   112   111    1
    81    60    59    1
    82    60    61    1
    83   111   105   am
    84    51    52    1
    85    59    53   am
    86   103   104    1
    87    86    84   ar
    88    53    54    2
    89    53    52    1
    90    83    84    1
    91    83    82    1
    92    52    55    1
    93    84    85   ar
    94    62    61    2
    95    61    67   am
    96    78    79    1
    97   105   104    1
    98   105   106    2
    99   104   107    1
   100    79    82    1
   101    79    80    1
   102    55    56    1
   103    67    68    1
   104   107   108    1
   105   110   108   am
   106    80    81    2
   107   108   109    2
   108    56    58   ar
   109    56    57   ar
   110    68    69    1
   111    68    71    1
   112    69    70    2
   113    71    72    1
   114    72    73    1
   115    77    75    1
   116    74    75    2
   117    74    73    1
   118    75    76    1
