@<TRIPOS>MOLECULE
tmp/4fwnA00.pdb
 164 153 0 0 0
SMALL
GASTEIGER

@<TRIPOS>ATOM
      1  N          2.6790  -40.6980  -13.5420 N.3    15  LYS15      -0.1245
      2  CA         3.3740  -41.8240  -14.1640 C.3    15  LYS15       0.1561
      3  C          2.4820  -43.0580  -14.1160 C.2    15  LYS15       0.2260
      4  O          1.8140  -43.3060  -13.1110 O.2    15  LYS15      -0.2867
      5  CB         4.6940  -42.1190  -13.4470 C.3    15  LYS15       0.0271
      6  CG         5.7330  -41.0100  -13.5150 C.3    15  LYS15       0.0035
      7  CD         7.0830  -41.4930  -12.9940 C.3    15  LYS15       0.0206
      8  CE         8.1350  -40.3970  -13.0760 C.3    15  LYS15       0.1093
      9  NZ         9.4920  -40.8790  -12.6950 N.3    15  LYS15      -0.1314
     10  N          0.2170  -46.0020   -6.0480 N.3    83  ARG83      -0.1245
     11  CA         1.3370  -45.7000   -5.1720 C.3    83  ARG83       0.1563
     12  C          0.9410  -44.5220   -4.2980 C.2    83  ARG83       0.2260
     13  O          0.5190  -43.4760   -4.8020 O.2    83  ARG83      -0.2867
     14  CB         2.5980  -45.3750   -5.9760 C.3    83  ARG83       0.0307
     15  CG         3.8160  -45.0170   -5.1510 C.3    83  ARG83       0.0489
     16  CD         5.0440  -44.7580   -6.0380 C.3    83  ARG83       0.2205
     17  NE         6.2610  -44.7670   -5.2390 N.pl3  83  ARG83      -0.0865
     18  CZ         7.4820  -44.5230   -5.7080 C.cat  83  ARG83       0.5346
     19  NH1        7.6720  -44.2490   -6.9960 N.pl3  83  ARG83       0.1354
     20  NH2        8.5260  -44.5370   -4.8820 N.pl3  83  ARG83       0.1354
     21  N          4.4280  -46.1960    0.3220 N.3   140  ASP140     -0.1239
     22  CA         5.8860  -46.0890    0.3930 C.3   140  ASP140      0.1674
     23  C          6.4200  -46.3360    1.7940 C.2   140  ASP140      0.2266
     24  O          7.6090  -46.6040    1.9650 O.2   140  ASP140     -0.2867
     25  CB         6.3460  -44.7060   -0.0660 C.3   140  ASP140      0.1410
     26  CG         6.5310  -44.6160   -1.5640 C.2   140  ASP140      0.3668
     27  OD1        6.2240  -45.6050   -2.2710 O.co2 140  ASP140     -0.2456
     28  OD2        6.9900  -43.5500   -2.0340 O.co2 140  ASP140     -0.2456
     29  N         10.6240  -45.2950    0.2860 N.3   172  HIS172     -0.1241
     30  CA        11.1510  -46.3180   -0.6280 C.3   172  HIS172      0.1621
     31  C         10.8400  -47.7410   -0.1590 C.2   172  HIS172      0.2264
     32  O         11.5110  -48.6950   -0.5690 O.2   172  HIS172     -0.2867
     33  CB        12.6600  -46.1550   -0.8540 C.3   172  HIS172      0.0745
     34  CG        13.0200  -45.0160   -1.7530 C.ar  172  HIS172      0.0817
     35  ND1       13.7670  -43.9400   -1.3270 N.ar  172  HIS172     -0.2268
     36  CD2       12.7340  -44.7830   -3.0560 C.ar  172  HIS172      0.1154
     37  CE1       13.9290  -43.0950   -2.3290 C.ar  172  HIS172      0.1986
     38  NE2       13.3130  -43.5840   -3.3900 N.ar  172  HIS172     -0.2212
     39  N         19.0140  -48.2090   -1.6290 N.3   200  HIS200     -0.1241
     40  CA        18.2770  -47.6480   -2.7530 C.3   200  HIS200      0.1621
     41  C         18.8540  -46.2800   -3.0860 C.2   200  HIS200      0.2264
     42  O         18.6670  -45.3190   -2.3370 O.2   200  HIS200     -0.2867
     43  CB        16.7850  -47.5380   -2.4360 C.3   200  HIS200      0.0745
     44  CG        15.9650  -47.0200   -3.5760 C.ar  200  HIS200      0.0817
     45  ND1       15.2160  -47.8430   -4.3880 N.ar  200  HIS200     -0.2268
     46  CD2       15.7840  -45.7620   -4.0460 C.ar  200  HIS200      0.1154
     47  CE1       14.6010  -47.1150   -5.3030 C.ar  200  HIS200      0.1986
     48  NE2       14.9310  -45.8490   -5.1190 N.ar  200  HIS200     -0.2212
     49  N         19.0390  -43.4030   -5.9970 N.3   202  GLY202     -0.1210
     50  CA        18.6070  -42.7410   -7.2260 C.3   202  GLY202      0.1956
     51  C         18.5970  -41.2390   -7.0270 C.2   202  GLY202      0.2612
     52  O         19.5480  -40.6740   -6.4790 O.2   202  GLY202     -0.2717
     53  N         17.5280  -40.5840   -7.4710 N.am  203  ASN203     -0.1960
     54  CA        17.3430  -39.1600   -7.1870 C.3   203  ASN203      0.1819
     55  C         16.9690  -38.9760   -5.7220 C.2   203  ASN203      0.2621
     56  O         17.4250  -38.0400   -5.0640 O.2   203  ASN203     -0.2715
     57  CB        16.2880  -38.5450   -8.1110 C.3   203  ASN203      0.1195
     58  CG        16.8080  -38.3200   -9.5220 C.2   203  ASN203      0.2630
     59  OD1       17.9020  -37.7820   -9.7160 O.2   203  ASN203     -0.2716
     60  ND2       16.0220  -38.7280  -10.5160 N.am  203  ASN203     -0.0877
     61  N         16.1260  -39.8810   -5.2320 N.am  204  GLY204     -0.1954
     62  CA        15.8940  -40.0490   -3.8070 C.3   204  GLY204      0.1869
     63  C         16.7060  -41.2460   -3.3550 C.2   204  GLY204      0.2309
     64  O         16.7400  -42.2750   -4.0400 O.2   204  GLY204     -0.2863
     65  N         18.5240  -33.0350   -2.4900 N.3   233  ARG233     -0.1245
     66  CA        18.2940  -32.9930   -1.0450 C.3   233  ARG233      0.1563
     67  C         19.5890  -33.0760   -0.2460 C.2   233  ARG233      0.2260
     68  O         20.4780  -33.8710   -0.5640 O.2   233  ARG233     -0.2867
     69  CB        17.3450  -34.1060   -0.6120 C.3   233  ARG233      0.0307
     70  CG        15.8830  -33.8430   -0.9240 C.3   233  ARG233      0.0489
     71  CD        15.1480  -35.1600   -1.0220 C.3   233  ARG233      0.2205
     72  NE        13.7320  -35.0090   -1.3370 N.pl3 233  ARG233     -0.0865
     73  CZ        12.9620  -35.9890   -1.8050 C.cat 233  ARG233      0.5346
     74  NH1       13.4700  -37.1980   -2.0320 N.pl3 233  ARG233      0.1354
     75  NH2       11.6810  -35.7570   -2.0550 N.pl3 233  ARG233      0.1354
     76  N         23.6750  -33.0430   -4.2440 N.3   266  LEU266     -0.1245
     77  CA        24.7060  -33.0920   -5.2790 C.3   266  LEU266      0.1561
     78  C         24.7280  -31.7980   -6.0850 C.2   266  LEU266      0.2260
     79  O         25.8000  -31.2680   -6.3860 O.2   266  LEU266     -0.2867
     80  CB        24.4850  -34.2910   -6.2070 C.3   266  LEU266      0.0270
     81  CG        24.7910  -35.6910   -5.6640 C.3   266  LEU266      0.0019
     82  CD1       24.1460  -36.7520   -6.5400 C.3   266  LEU266      0.0001
     83  CD2       26.2900  -35.9320   -5.5460 C.3   266  LEU266      0.0001
     84  N         22.4020  -31.9030  -10.6660 N.3   274  SER274     -0.1202
     85  CA        21.8260  -32.8450   -9.7140 C.3   274  SER274      0.2020
     86  C         21.9860  -34.2720  -10.2330 C.2   274  SER274      0.2619
     87  O         21.8580  -35.2360   -9.4770 O.2   274  SER274     -0.2717
     88  CB        20.3480  -32.5420   -9.4880 C.3   274  SER274      0.2103
     89  OG        19.5790  -32.9060  -10.6200 O.3   274  SER274     -0.2182
     90  N         22.2600  -34.3870  -11.5320 N.am  275  ASP275     -0.1959
     91  CA        22.4240  -35.6750  -12.1940 C.3   275  ASP275      0.1840
     92  C         23.8300  -36.2280  -11.9740 C.2   275  ASP275      0.2622
     93  O         24.8240  -35.5720  -12.2940 O.2   275  ASP275     -0.2715
     94  CB        22.1120  -35.5470  -13.6890 C.3   275  ASP275      0.1450
     95  CG        22.1490  -36.8790  -14.4120 C.2   275  ASP275      0.3671
     96  OD1       23.2580  -37.3800  -14.6840 O.co2 275  ASP275     -0.2456
     97  OD2       21.0650  -37.4180  -14.7200 O.co2 275  ASP275     -0.2456
     98  N         23.8920  -37.4420  -11.4320 N.am  276  LEU276     -0.1963
     99  CA        25.1500  -38.1020  -11.0820 C.3   276  LEU276      0.1728
    100  C         26.0170  -38.4230  -12.3000 C.2   276  LEU276      0.2616
    101  O         27.2390  -38.2760  -12.2480 O.2   276  LEU276     -0.2715
    102  CB        24.8560  -39.3730  -10.2720 C.3   276  LEU276      0.0311
    103  CG        25.9370  -40.1980   -9.5540 C.3   276  LEU276      0.0022
    104  CD1       26.4610  -41.3330  -10.4300 C.3   276  LEU276      0.0001
    105  CD2       27.0840  -39.3500   -8.9970 C.3   276  LEU276      0.0001
    106  N         25.3770  -38.8540  -13.3880 N.am  277  ARG277     -0.1977
    107  CA        26.0640  -39.2180  -14.6340 C.3   277  ARG277      0.1597
    108  C         26.8520  -38.0420  -15.2180 C.2   277  ARG277      0.2287
    109  O         27.9370  -38.2280  -15.7660 O.2   277  ARG277     -0.2864
    110  CB        25.0430  -39.7210  -15.6540 C.3   277  ARG277      0.0334
    111  CG        25.5680  -40.7080  -16.6800 C.3   277  ARG277      0.0492
    112  CD        24.5480  -40.9470  -17.8050 C.3   277  ARG277      0.2205
    113  NE        23.1870  -41.2020  -17.3160 N.pl3 277  ARG277     -0.0865
    114  CZ        22.1960  -40.3080  -17.3230 C.cat 277  ARG277      0.5346
    115  NH1       22.3930  -39.0800  -17.7920 N.pl3 277  ARG277      0.1354
    116  NH2       21.0000  -40.6400  -16.8540 N.pl3 277  ARG277      0.1354
    117  N         29.9080  -37.3220  -12.8530 N.3   280  GLU280     -0.1245
    118  CA        30.9510  -38.3210  -13.0900 C.3   280  GLU280      0.1567
    119  C         31.8970  -37.8740  -14.2040 C.2   280  GLU280      0.2260
    120  O         33.1060  -38.1020  -14.1290 O.2   280  GLU280     -0.2867
    121  CB        30.3420  -39.6840  -13.4380 C.3   280  GLU280      0.0388
    122  CG        29.8000  -40.4730  -12.2480 C.3   280  GLU280      0.1160
    123  CD        29.7430  -41.9720  -12.5160 C.2   280  GLU280      0.3649
    124  OE1       30.8070  -42.6250  -12.5230 O.co2 280  GLU280     -0.2457
    125  OE2       28.6340  -42.5040  -12.7140 O.co2 280  GLU280     -0.2457
    126  N         18.4020  -48.9900   -7.5800 N.3   322  GLY322     -0.1210
    127  CA        18.0480  -47.6330   -7.9990 C.3   322  GLY322      0.1956
    128  C         18.9000  -47.1590   -9.1630 C.2   322  GLY322      0.2612
    129  O         19.8250  -47.8560   -9.5880 O.2   322  GLY322     -0.2717
    130  N         18.5910  -45.9660   -9.6740 N.am  323  GLY323     -0.1942
    131  CA        19.3030  -45.3870  -10.8180 C.3   323  GLY323      0.2014
    132  C         20.8140  -45.4200  -10.6840 C.2   323  GLY323      0.2638
    133  O         21.5210  -45.8370  -11.6040 O.2   323  GLY323     -0.2714
    134  N         21.3050  -44.9900   -9.5250 N.am  324  ILE324     -0.1977
    135  CA        22.7390  -44.9440   -9.2530 C.3   324  ILE324      0.1596
    136  C         23.2640  -46.3270   -8.8610 C.2   324  ILE324      0.2287
    137  O         24.2850  -46.7860   -9.3850 O.2   324  ILE324     -0.2864
    138  CB        23.0670  -43.8950   -8.1610 C.3   324  ILE324      0.0276
    139  CG1       22.4970  -42.5270   -8.5590 C.3   324  ILE324      0.0022
    140  CG2       24.5760  -43.8140   -7.9170 C.3   324  ILE324      0.0022
    141  CD1       22.5500  -41.4780   -7.4700 C.3   324  ILE324      0.0001
    142  N         23.5610  -48.7970  -11.8400 N.3   327  ASN327     -0.1225
    143  CA        24.2670  -48.3300  -13.0350 C.3   327  ASN327      0.1785
    144  C         25.6690  -47.7360  -12.8450 C.2   327  ASN327      0.2597
    145  O         26.5010  -47.8200  -13.7520 O.2   327  ASN327     -0.2718
    146  CB        23.3800  -47.3550  -13.8040 C.3   327  ASN327      0.1169
    147  CG        22.0820  -47.9870  -14.2520 C.2   327  ASN327      0.2627
    148  OD1       22.0840  -48.9910  -14.9630 O.2   327  ASN327     -0.2716
    149  ND2       20.9630  -47.4010  -13.8400 N.am  327  ASN327     -0.0877
    150  N         25.9250  -47.1330  -11.6860 N.am  328  SER328     -0.1952
    151  CA        27.2090  -46.4780  -11.4330 C.3   328  SER328      0.1924
    152  C         28.2610  -47.4320  -10.8680 C.2   328  SER328      0.2314
    153  O         28.2190  -47.7960   -9.6900 O.2   328  SER328     -0.2863
    154  CB        27.0340  -45.2670  -10.5120 C.3   328  SER328      0.2116
    155  OG        28.2870  -44.6790  -10.2070 O.3   328  SER328     -0.2180
    156  N          9.3450  -51.5520   -8.8480 N.3   378  GLU378     -0.1245
    157  CA         8.2620  -51.1260   -7.9790 C.3   378  GLU378      0.1567
    158  C          6.9020  -51.4170   -8.5900 C.2   378  GLU378      0.2260
    159  O          5.9570  -51.7600   -7.8790 O.2   378  GLU378     -0.2867
    160  CB         8.4100  -49.6460   -7.6440 C.3   378  GLU378      0.0388
    161  CG         9.5610  -49.3730   -6.6920 C.3   378  GLU378      0.1160
    162  CD        10.0540  -47.9490   -6.7630 C.2   378  GLU378      0.3649
    163  OE1       11.2460  -47.7550   -7.0890 O.co2 378  GLU378     -0.2457
    164  OE2        9.2550  -47.0240   -6.5010 O.co2 378  GLU378     -0.2457
@<TRIPOS>BOND
     1   112   113    1
     2   112   111    1
     3   115   114    1
     4   114   113    2
     5   114   116    1
     6   111   110    1
     7   109   108    2
     8   110   107    1
     9   108   107    1
    10   148   147    2
    11    97    95   ar
    12    96    95   ar
    13   107   106    1
    14    95    94    1
    15   147   149   am
    16   147   146    1
    17   119   120    2
    18   119   118    1
    19     2     3    1
    20     2     1    1
    21     2     5    1
    22     3     4    2
    23   146   143    1
    24   145   144    2
    25    94    91    1
    26     6     5    1
    27     6     7    1
    28   121   118    1
    29   121   122    1
    30   106   100   am
    31   118   117    1
    32     8     7    1
    33     8     9    1
    34   143   144    1
    35   143   142    1
    36   144   150   am
    37   125   123   ar
    38   124   123   ar
    39   123   122    1
    40   100   101    2
    41   100    99    1
    42    93    92    2
    43    91    92    1
    44    91    90    1
    45    92    98   am
    46   150   151    1
    47   133   132    2
    48    90    86   am
    49   151   152    1
    50   151   154    1
    51    98    99    1
    52    99   102    1
    53   152   153    2
    54   131   132    1
    55   131   130    1
    56   132   134   am
    57    84    85    1
    58    89    88    1
    59    60    58   am
    60   154   155    1
    61   104   103    1
    62   102   103    1
    63    86    85    1
    64    86    87    2
    65    59    58    2
    66    85    88    1
    67   130   128   am
    68   129   128    2
    69   103   105    1
    70   134   135    1
    71    58    57    1
    72   137   136    2
    73   135   136    1
    74   135   138    1
    75   128   127    1
    76   156   157    1
    77   158   157    1
    78   158   159    2
    79   139   138    1
    80   139   141    1
    81   138   140    1
    82    57    54    1
    83   127   126    1
    84   157   160    1
    85   160   161    1
    86    53    54    1
    87    53    51   am
    88    50    51    1
    89    50    49    1
    90    54    55    1
    91   163   162   ar
    92    51    52    2
    93    19    18    1
    94   162   161    1
    95   162   164   ar
    96    82    81    1
    97    79    78    2
    98    80    81    1
    99    80    77    1
   100    78    77    1
   101    10    11    1
   102    16    17    1
   103    16    15    1
   104    14    11    1
   105    14    15    1
   106    55    61   am
   107    55    56    2
   108    18    17    2
   109    18    20    1
   110    81    83    1
   111    47    48   ar
   112    47    45   ar
   113    77    76    1
   114    61    62    1
   115    11    12    1
   116    48    46   ar
   117    13    12    2
   118    45    44   ar
   119    46    44   ar
   120    64    63    2
   121    62    63    1
   122    44    43    1
   123    38    36   ar
   124    38    37   ar
   125    41    40    1
   126    41    42    2
   127    36    34   ar
   128    40    43    1
   129    40    39    1
   130    65    66    1
   131    37    35   ar
   132    27    26   ar
   133    75    73    1
   134    28    26   ar
   135    74    73    1
   136    73    72    2
   137    34    35   ar
   138    34    33    1
   139    26    25    1
   140    72    71    1
   141    66    69    1
   142    66    67    1
   143    71    70    1
   144    70    69    1
   145    33    30    1
   146    30    31    1
   147    30    29    1
   148    32    31    2
   149    68    67    2
   150    25    22    1
   151    21    22    1
   152    22    23    1
   153    23    24    2
