@<TRIPOS>MOLECULE
tmp/4fwoA00.pdb
 102 96 0 0 0
SMALL
GASTEIGER

@<TRIPOS>ATOM
      1  N         51.0930   -7.6880    9.5580 N.3   200  HIS200     -0.1241
      2  CA        50.2180   -8.0210    8.4390 C.3   200  HIS200      0.1621
      3  C         49.3100   -6.8340    8.1290 C.2   200  HIS200      0.2264
      4  O         48.4390   -6.4840    8.9250 O.2   200  HIS200     -0.2867
      5  CB        49.3970   -9.2740    8.7420 C.3   200  HIS200      0.0745
      6  CG        48.5090   -9.6990    7.6160 C.ar  200  HIS200      0.0817
      7  ND1       48.9670  -10.4330    6.5440 N.ar  200  HIS200     -0.2268
      8  CD2       47.1890   -9.4910    7.3940 C.ar  200  HIS200      0.1154
      9  CE1       47.9670  -10.6630    5.7120 C.ar  200  HIS200      0.1986
     10  NE2       46.8770  -10.1030    6.2050 N.ar  200  HIS200     -0.2212
     11  N         46.8760   -5.0530    5.1380 N.3   202  GLY202     -0.1210
     12  CA        46.1390   -5.1270    3.8800 C.3   202  GLY202      0.1956
     13  C         44.6870   -4.7200    4.0500 C.2   202  GLY202      0.2611
     14  O         44.3860   -3.7260    4.7210 O.2   202  GLY202     -0.2717
     15  N         43.7950   -5.4860    3.4210 N.am  203  ASN203     -0.1974
     16  CA        42.3510   -5.3540    3.6140 C.3   203  ASN203      0.1688
     17  C         42.0180   -5.1320    5.0840 C.2   203  ASN203      0.2292
     18  O         41.5770   -4.0480    5.4770 O.2   203  ASN203     -0.2864
     19  CB        41.6080   -6.5910    3.0710 C.3   203  ASN203      0.1181
     20  CG        42.3530   -7.8990    3.3250 C.2   203  ASN203      0.2629
     21  OD1       42.7690   -8.1910    4.4470 O.2   203  ASN203     -0.2716
     22  ND2       42.5090   -8.6960    2.2780 N.am  203  ASN203     -0.0877
     23  N         40.2490    3.9570    6.9190 N.3   266  LEU266     -0.1245
     24  CA        40.8540    4.7930    5.8860 C.3   266  LEU266      0.1561
     25  C         39.7840    5.5380    5.1000 C.2   266  LEU266      0.2260
     26  O         39.9070    6.7380    4.8500 O.2   266  LEU266     -0.2867
     27  CB        41.7070    3.9450    4.9360 C.3   266  LEU266      0.0270
     28  CG        43.0120    3.3240    5.4410 C.3   266  LEU266      0.0019
     29  CD1       43.5130    2.3010    4.4340 C.3   266  LEU266      0.0001
     30  CD2       44.0870    4.3780    5.7160 C.3   266  LEU266      0.0001
     31  N         38.7910    3.3350    0.3740 N.3   274  SER274     -0.1202
     32  CA        39.2880    2.3660    1.3420 C.3   274  SER274      0.2020
     33  C         40.5190    1.6630    0.7720 C.2   274  SER274      0.2619
     34  O         40.8360    0.5330    1.1490 O.2   274  SER274     -0.2717
     35  CB        38.2020    1.3450    1.6740 C.3   274  SER274      0.2103
     36  OG        37.8840    0.5660    0.5340 O.3   274  SER274     -0.2182
     37  N         41.2080    2.3500   -0.1330 N.am  275  ASP275     -0.1959
     38  CA        42.3100    1.7730   -0.8900 C.3   275  ASP275      0.1840
     39  C         43.4850    2.7410   -0.9480 C.2   275  ASP275      0.2622
     40  O         43.3100    3.9280   -1.2310 O.2   275  ASP275     -0.2715
     41  CB        41.8350    1.4240   -2.3030 C.3   275  ASP275      0.1450
     42  CG        42.9170    0.7980   -3.1490 C.2   275  ASP275      0.3671
     43  OD1       43.9090    1.4920   -3.4800 O.co2 275  ASP275     -0.2456
     44  OD2       42.7590   -0.3900   -3.4980 O.co2 275  ASP275     -0.2456
     45  N         44.6820    2.2150   -0.7020 N.am  276  LEU276     -0.1963
     46  CA        45.8900    3.0330   -0.6260 C.3   276  LEU276      0.1728
     47  C         46.3530    3.6420   -1.9490 C.2   276  LEU276      0.2616
     48  O         46.6430    4.8360   -2.0020 O.2   276  LEU276     -0.2715
     49  CB        47.0320    2.2550    0.0250 C.3   276  LEU276      0.0311
     50  CG        47.1130    2.3040    1.5490 C.3   276  LEU276      0.0022
     51  CD1       48.4870    1.8440    1.9810 C.3   276  LEU276      0.0001
     52  CD2       46.8310    3.7050    2.0970 C.3   276  LEU276      0.0001
     53  N         46.4200    2.8330   -3.0070 N.am  277  ARG277     -0.1977
     54  CA        46.8600    3.3130   -4.3210 C.3   277  ARG277      0.1597
     55  C         46.2370    4.6600   -4.6940 C.2   277  ARG277      0.2287
     56  O         46.8980    5.5030   -5.2990 O.2   277  ARG277     -0.2864
     57  CB        46.5570    2.2800   -5.4080 C.3   277  ARG277      0.0334
     58  CG        47.5770    1.1540   -5.5220 C.3   277  ARG277      0.0492
     59  CD        47.0020   -0.0290   -6.2920 C.3   277  ARG277      0.2205
     60  NE        45.9900   -0.7440   -5.5130 N.pl3 277  ARG277     -0.0865
     61  CZ        45.1260   -1.6240   -6.0150 C.cat 277  ARG277      0.5346
     62  NH1       45.1310   -1.9120   -7.3110 N.pl3 277  ARG277      0.1354
     63  NH2       44.2480   -2.2160   -5.2150 N.pl3 277  ARG277      0.1354
     64  N         47.2920    7.3850   -1.6500 N.3   280  GLU280     -0.1245
     65  CA        48.7060    7.7170   -1.8160 C.3   280  GLU280      0.1567
     66  C         48.8850    8.7540   -2.9230 C.2   280  GLU280      0.2260
     67  O         49.7460    9.6300   -2.8270 O.2   280  GLU280     -0.2867
     68  CB        49.5330    6.4580   -2.1140 C.3   280  GLU280      0.0388
     69  CG        49.5410    5.4260   -0.9820 C.3   280  GLU280      0.1160
     70  CD        50.4950    4.2640   -1.2260 C.2   280  GLU280      0.3649
     71  OE1       51.6030    4.4870   -1.7660 O.co2 280  GLU280     -0.2457
     72  OE2       50.1430    3.1230   -0.8580 O.co2 280  GLU280     -0.2457
     73  N         51.1700   -8.8110    3.5430 N.3   322  GLY322     -0.1210
     74  CA        49.8340   -8.4320    3.1020 C.3   322  GLY322      0.1956
     75  C         49.9140   -7.4720    1.9290 C.2   322  GLY322      0.2612
     76  O         50.9970   -6.9690    1.6020 O.2   322  GLY322     -0.2717
     77  N         48.7660   -7.2220    1.2970 N.am  323  GLY323     -0.1942
     78  CA        48.6690   -6.3030    0.1560 C.3   323  GLY323      0.2014
     79  C         49.4160   -4.9940    0.3430 C.2   323  GLY323      0.2638
     80  O         50.2320   -4.6120   -0.4980 O.2   323  GLY323     -0.2714
     81  N         49.1480   -4.3210    1.4610 N.am  324  ILE324     -0.1977
     82  CA        49.7710   -3.0340    1.7760 C.3   324  ILE324      0.1596
     83  C         51.2420   -3.1910    2.1650 C.2   324  ILE324      0.2287
     84  O         52.1110   -2.5310    1.5950 O.2   324  ILE324     -0.2864
     85  CB        48.9920   -2.2830    2.8890 C.3   324  ILE324      0.0276
     86  CG1       47.6080   -1.8560    2.3830 C.3   324  ILE324      0.0022
     87  CG2       49.7800   -1.0810    3.3910 C.3   324  ILE324      0.0022
     88  CD1       46.6280   -1.5030    3.4870 C.3   324  ILE324      0.0001
     89  N         53.7250   -4.2480   -0.7490 N.3   327  ASN327     -0.1225
     90  CA        53.7410   -3.4230   -1.9450 C.3   327  ASN327      0.1785
     91  C         53.9900   -1.9360   -1.7340 C.2   327  ASN327      0.2597
     92  O         54.4910   -1.2620   -2.6370 O.2   327  ASN327     -0.2718
     93  CB        52.4510   -3.6470   -2.7290 C.3   327  ASN327      0.1169
     94  CG        52.4090   -5.0140   -3.3880 C.2   327  ASN327      0.2627
     95  OD1       53.2880   -5.3580   -4.1800 O.2   327  ASN327     -0.2716
     96  ND2       51.3890   -5.8010   -3.0650 N.am  327  ASN327     -0.0877
     97  N         53.6630   -1.4300   -0.5470 N.am  328  SER328     -0.1952
     98  CA        53.7210    0.0110   -0.2850 C.3   328  SER328      0.1924
     99  C         55.0720    0.5180    0.2290 C.2   328  SER328      0.2314
    100  O         55.4270    0.3100    1.3910 O.2   328  SER328     -0.2863
    101  CB        52.6050    0.4290    0.6690 C.3   328  SER328      0.2116
    102  OG        52.6900    1.8130    0.9330 O.3   328  SER328     -0.2180
@<TRIPOS>BOND
     1    62    61    1
     2    59    58    1
     3    59    60    1
     4    61    60    2
     5    61    63    1
     6    58    57    1
     7    57    54    1
     8    56    55    2
     9    55    54    1
    10    54    53    1
    11    95    94    2
    12    44    42   ar
    13    43    42   ar
    14    94    96   am
    15    94    93    1
    16    42    41    1
    17    53    47   am
    18    66    67    2
    19    66    65    1
    20    93    90    1
    21    92    91    2
    22    41    38    1
    23    68    65    1
    24    68    69    1
    25    48    47    2
    26    47    46    1
    27    90    91    1
    28    90    89    1
    29    65    64    1
    30    71    70   ar
    31    91    97   am
    32    40    39    2
    33    70    69    1
    34    70    72   ar
    35    39    38    1
    36    39    45   am
    37    38    37    1
    38    45    46    1
    39    46    49    1
    40    97    98    1
    41    80    79    2
    42    98    99    1
    43    98   101    1
    44    37    33   am
    45    49    50    1
    46    78    79    1
    47    78    77    1
    48    99   100    2
    49    79    81   am
    50    31    32    1
    51    36    35    1
    52   101   102    1
    53    33    34    2
    54    33    32    1
    55    77    75   am
    56    32    35    1
    57    81    82    1
    58    50    51    1
    59    50    52    1
    60    84    83    2
    61    76    75    2
    62    82    83    1
    63    82    85    1
    64    75    74    1
    65    22    20   am
    66    86    85    1
    67    86    88    1
    68    85    87    1
    69    19    20    1
    70    19    16    1
    71    74    73    1
    72    20    21    2
    73    15    16    1
    74    15    13   am
    75    16    17    1
    76    12    13    1
    77    12    11    1
    78    13    14    2
    79    29    28    1
    80    26    25    2
    81    27    28    1
    82    27    24    1
    83    17    18    2
    84    25    24    1
    85    28    30    1
    86     9    10   ar
    87     9     7   ar
    88    24    23    1
    89    10     8   ar
    90     7     6   ar
    91     8     6   ar
    92     6     5    1
    93     3     2    1
    94     3     4    2
    95     2     5    1
    96     2     1    1
