@<TRIPOS>MOLECULE
tmp/4fwpA00.pdb
 108 103 0 0 0
SMALL
GASTEIGER

@<TRIPOS>ATOM
      1  N         44.8590   13.6060   -0.3520 N.3   172  HIS172     -0.1241
      2  CA        46.0050   13.6930    0.5650 C.3   172  HIS172      0.1621
      3  C         47.0660   14.6660    0.0460 C.2   172  HIS172      0.2264
      4  O         48.2510   14.5490    0.3840 O.2   172  HIS172     -0.2867
      5  CB        46.6350   12.3170    0.8220 C.3   172  HIS172      0.0745
      6  CG        45.7110   11.3290    1.4630 C.ar  172  HIS172      0.0817
      7  ND1       45.4910   10.0720    0.9420 N.ar  172  HIS172     -0.2268
      8  CD2       44.9560   11.4090    2.5850 C.ar  172  HIS172      0.1154
      9  CE1       44.6400    9.4210    1.7140 C.ar  172  HIS172      0.1986
     10  NE2       44.2990   10.2110    2.7170 N.ar  172  HIS172     -0.2212
     11  N         51.2560    7.6700    1.4890 N.3   200  HIS200     -0.1241
     12  CA        50.4190    8.0900    2.6000 C.3   200  HIS200      0.1621
     13  C         49.5480    6.9140    2.9990 C.2   200  HIS200      0.2264
     14  O         48.6380    6.5310    2.2620 O.2   200  HIS200     -0.2867
     15  CB        49.5550    9.2940    2.2180 C.3   200  HIS200      0.0745
     16  CG        48.7190    9.8190    3.3430 C.ar  200  HIS200      0.0817
     17  ND1       49.1260   10.8590    4.1500 N.ar  200  HIS200     -0.2268
     18  CD2       47.5000    9.4440    3.7990 C.ar  200  HIS200      0.1154
     19  CE1       48.1930   11.1050    5.0530 C.ar  200  HIS200      0.1986
     20  NE2       47.1960   10.2600    4.8620 N.ar  200  HIS200     -0.2212
     21  N         47.1120    5.5490    5.8870 N.3   202  GLY202     -0.1210
     22  CA        46.2520    5.6280    7.0650 C.3   202  GLY202      0.1956
     23  C         45.0120    4.7900    6.8200 C.2   202  GLY202      0.2612
     24  O         45.0500    3.8410    6.0360 O.2   202  GLY202     -0.2717
     25  N         43.9110    5.1340    7.4850 N.am  203  ASN203     -0.1960
     26  CA        42.6120    4.5250    7.1910 C.3   203  ASN203      0.1819
     27  C         42.2590    4.7110    5.7140 C.2   203  ASN203      0.2621
     28  O         41.8080    3.7770    5.0550 O.2   203  ASN203     -0.2715
     29  CB        41.5150    5.1110    8.0900 C.3   203  ASN203      0.1195
     30  CG        41.5380    4.5350    9.5010 C.2   203  ASN203      0.2630
     31  OD1       41.5890    3.3110    9.6920 O.2   203  ASN203     -0.2716
     32  ND2       41.4840    5.4160   10.4990 N.am  203  ASN203     -0.0877
     33  N         42.4640    5.9270    5.2140 N.am  204  GLY204     -0.1954
     34  CA        42.4530    6.2060    3.7820 C.3   204  GLY204      0.1869
     35  C         43.8990    6.3100    3.3290 C.2   204  GLY204      0.2309
     36  O         44.7210    6.9220    4.0170 O.2   204  GLY204     -0.2863
     37  N         39.4040   -2.9900   10.5480 N.3   274  SER274     -0.1202
     38  CA        40.1020   -2.1030    9.6220 C.3   274  SER274      0.2020
     39  C         41.4180   -1.6130   10.2290 C.2   274  SER274      0.2619
     40  O         42.2990   -1.1300    9.5170 O.2   274  SER274     -0.2717
     41  CB        39.2210   -0.9090    9.2500 C.3   274  SER274      0.2103
     42  OG        39.0590   -0.0300   10.3490 O.3   274  SER274     -0.2182
     43  N         41.5370   -1.7400   11.5490 N.am  275  ASP275     -0.1959
     44  CA        42.7220   -1.3020   12.2790 C.3   275  ASP275      0.1840
     45  C         43.8700   -2.2910   12.0920 C.2   275  ASP275      0.2622
     46  O         43.6940   -3.4990   12.2810 O.2   275  ASP275     -0.2715
     47  CB        42.3880   -1.1480   13.7670 C.3   275  ASP275      0.1450
     48  CG        43.3750   -0.2660   14.5000 C.2   275  ASP275      0.3671
     49  OD1       44.5360   -0.6820   14.6840 O.co2 275  ASP275     -0.2456
     50  OD2       42.9810    0.8460   14.9050 O.co2 275  ASP275     -0.2456
     51  N         45.0410   -1.7740   11.7240 N.am  276  LEU276     -0.1963
     52  CA        46.2190   -2.6140   11.5060 C.3   276  LEU276      0.1728
     53  C         46.8400   -3.1580   12.7870 C.2   276  LEU276      0.2616
     54  O         47.3870   -4.2620   12.7820 O.2   276  LEU276     -0.2715
     55  CB        47.2830   -1.8960   10.6700 C.3   276  LEU276      0.0311
     56  CG        47.3690   -2.2580    9.1830 C.3   276  LEU276      0.0022
     57  CD1       48.6420   -1.6900    8.5980 C.3   276  LEU276      0.0001
     58  CD2       47.3300   -3.7670    8.9530 C.3   276  LEU276      0.0001
     59  N         46.7610   -2.3850   13.8710 N.am  277  ARG277     -0.1977
     60  CA        47.2360   -2.8400   15.1810 C.3   277  ARG277      0.1597
     61  C         46.5580   -4.1520   15.5720 C.2   277  ARG277      0.2287
     62  O         47.2120   -5.0750   16.0620 O.2   277  ARG277     -0.2864
     63  CB        46.9990   -1.7740   16.2570 C.3   277  ARG277      0.0334
     64  CG        48.0130   -0.6410   16.2450 C.3   277  ARG277      0.0492
     65  CD        47.5950    0.5100   17.1530 C.3   277  ARG277      0.2205
     66  NE        46.6880    1.4490   16.4890 N.pl3 277  ARG277     -0.0865
     67  CZ        45.4420    1.7100   16.8800 C.cat 277  ARG277      0.5346
     68  NH1       44.9280    1.1090   17.9490 N.pl3 277  ARG277      0.1354
     69  NH2       44.7050    2.5850   16.2020 N.pl3 277  ARG277      0.1354
     70  N         47.7340   -7.0210   12.8100 N.3   280  GLU280     -0.1245
     71  CA        49.1280   -7.4280   12.9990 C.3   280  GLU280      0.1567
     72  C         49.2720   -8.4260   14.1460 C.2   280  GLU280      0.2260
     73  O         49.9940   -9.4150   14.0280 O.2   280  GLU280     -0.2867
     74  CB        50.0280   -6.2110   13.2340 C.3   280  GLU280      0.0388
     75  CG        50.3460   -5.4240   11.9690 C.3   280  GLU280      0.1160
     76  CD        51.3250   -4.2850   12.2010 C.2   280  GLU280      0.3649
     77  OE1       52.2580   -4.4410   13.0200 O.co2 280  GLU280     -0.2457
     78  OE2       51.1640   -3.2320   11.5510 O.co2 280  GLU280     -0.2457
     79  N         51.6030    8.8430    7.4060 N.3   322  GLY322     -0.1210
     80  CA        50.2790    8.4360    7.8730 C.3   322  GLY322      0.1956
     81  C         50.3800    7.5050    9.0670 C.2   322  GLY322      0.2612
     82  O         51.4620    7.0120    9.3870 O.2   322  GLY322     -0.2717
     83  N         49.2500    7.2600    9.7230 N.am  323  GLY323     -0.1942
     84  CA        49.1970    6.3730   10.8870 C.3   323  GLY323      0.2014
     85  C         49.8910    5.0360   10.6910 C.2   323  GLY323      0.2638
     86  O         50.5840    4.5570   11.5900 O.2   323  GLY323     -0.2714
     87  N         49.7110    4.4430    9.5110 N.am  324  ILE324     -0.1977
     88  CA        50.3320    3.1610    9.1710 C.3   324  ILE324      0.1596
     89  C         51.7980    3.3330    8.7720 C.2   324  ILE324      0.2287
     90  O         52.6690    2.6040    9.2550 O.2   324  ILE324     -0.2864
     91  CB        49.5420    2.4310    8.0520 C.3   324  ILE324      0.0276
     92  CG1       48.1910    1.9470    8.5860 C.3   324  ILE324      0.0022
     93  CG2       50.3460    1.2670    7.4860 C.3   324  ILE324      0.0022
     94  CD1       47.1170    1.7780    7.5350 C.3   324  ILE324      0.0001
     95  N         53.9830    4.2930   11.8910 N.3   327  ASN327     -0.1225
     96  CA        53.9870    3.4070   13.0540 C.3   327  ASN327      0.1785
     97  C         54.1690    1.9120   12.7960 C.2   327  ASN327      0.2597
     98  O         54.5170    1.1720   13.7170 O.2   327  ASN327     -0.2718
     99  CB        52.7160    3.6300   13.8710 C.3   327  ASN327      0.1169
    100  CG        52.6270    5.0300   14.4330 C.2   327  ASN327      0.2627
    101  OD1       53.4680    5.4450   15.2330 O.2   327  ASN327     -0.2716
    102  ND2       51.6020    5.7680   14.0220 N.am  327  ASN327     -0.0877
    103  N         53.9380    1.4630   11.5630 N.am  328  SER328     -0.1952
    104  CA        54.0090    0.0300   11.2630 C.3   328  SER328      0.1924
    105  C         55.3710   -0.4330   10.7490 C.2   328  SER328      0.2314
    106  O         55.6940   -0.2900    9.5690 O.2   328  SER328     -0.2863
    107  CB        52.8990   -0.3960   10.3030 C.3   328  SER328      0.2116
    108  OG        52.9570   -1.7920   10.0790 O.3   328  SER328     -0.2180
@<TRIPOS>BOND
     1     1     2    1
     2     3     4    2
     3     3     2    1
     4     2     5    1
     5     5     6    1
     6     7     6   ar
     7     7     9   ar
     8     6     8   ar
     9    11    12    1
    10     9    10   ar
    11    15    12    1
    12    15    16    1
    13    14    13    2
    14     8    10   ar
    15    12    13    1
    16    35    34    1
    17    35    36    2
    18    16    18   ar
    19    16    17   ar
    20    34    33    1
    21    18    20   ar
    22    17    19   ar
    23    20    19   ar
    24    28    27    2
    25    33    27   am
    26    27    26    1
    27    21    22    1
    28    24    23    2
    29    23    22    1
    30    23    25   am
    31    26    25    1
    32    26    29    1
    33    79    80    1
    34    93    91    1
    35    94    92    1
    36    80    81    1
    37    91    92    1
    38    91    88    1
    39    29    30    1
    40    57    56    1
    41    89    88    1
    42    89    90    2
    43    58    56    1
    44    81    82    2
    45    81    83   am
    46    88    87    1
    47    56    55    1
    48    41    38    1
    49    41    42    1
    50    30    31    2
    51    30    32   am
    52    87    85   am
    53    40    39    2
    54   106   105    2
    55    38    39    1
    56    38    37    1
    57    83    84    1
    58   108   107    1
    59    39    43   am
    60   107   104    1
    61    55    52    1
    62    85    84    1
    63    85    86    2
    64   105   104    1
    65   104   103    1
    66    52    51    1
    67    52    53    1
    68    43    44    1
    69    78    76   ar
    70   103    97   am
    71    51    45   am
    72    95    96    1
    73    75    76    1
    74    75    74    1
    75    45    44    1
    76    45    46    2
    77    76    77   ar
    78    44    47    1
    79    54    53    2
    80    53    59   am
    81    97    96    1
    82    97    98    2
    83    70    71    1
    84    71    74    1
    85    71    72    1
    86    96    99    1
    87    47    48    1
    88    59    60    1
    89    99   100    1
    90   102   100   am
    91    73    72    2
    92   100   101    2
    93    48    49   ar
    94    48    50   ar
    95    60    61    1
    96    60    63    1
    97    61    62    2
    98    69    67    1
    99    64    63    1
   100    64    65    1
   101    66    67    2
   102    66    65    1
   103    67    68    1
