@<TRIPOS>MOLECULE
tmp/4fwrA00.pdb
 94 89 0 0 0
SMALL
GASTEIGER

@<TRIPOS>ATOM
      1  N         51.5140    7.5810    1.6090 N.3   200  HIS200     -0.1241
      2  CA        50.6870    7.9710    2.7380 C.3   200  HIS200      0.1621
      3  C         49.7660    6.8120    3.1160 C.2   200  HIS200      0.2264
      4  O         48.7350    6.5890    2.4770 O.2   200  HIS200     -0.2867
      5  CB        49.8800    9.2270    2.4140 C.3   200  HIS200      0.0745
      6  CG        49.0220    9.6980    3.5470 C.ar  200  HIS200      0.0817
      7  ND1       49.4830   10.5520    4.5250 N.ar  200  HIS200     -0.2268
      8  CD2       47.7340    9.4220    3.8640 C.ar  200  HIS200      0.1154
      9  CE1       48.5150   10.7880    5.3920 C.ar  200  HIS200      0.1986
     10  NE2       47.4430   10.1150    5.0130 N.ar  200  HIS200     -0.2212
     11  N         47.4560    5.1470    6.0640 N.3   202  GLY202     -0.1210
     12  CA        46.7700    5.3770    7.3250 C.3   202  GLY202      0.1956
     13  C         45.2690    5.2340    7.2040 C.2   202  GLY202      0.2611
     14  O         44.7740    4.1770    6.8100 O.2   202  GLY202     -0.2717
     15  N         44.5590    6.3030    7.5750 N.am  203  ASN203     -0.1974
     16  CA        43.1110    6.4290    7.4010 C.3   203  ASN203      0.1688
     17  C         42.6940    5.9050    6.0260 C.2   203  ASN203      0.2292
     18  O         42.2570    4.7570    5.8870 O.2   203  ASN203     -0.2864
     19  CB        42.6790    7.8990    7.6010 C.3   203  ASN203      0.1181
     20  CG        43.6270    8.9090    6.9120 C.2   203  ASN203      0.2629
     21  OD1       44.8430    8.6920    6.8170 O.2   203  ASN203     -0.2716
     22  ND2       43.0620   10.0180    6.4380 N.am  203  ASN203     -0.0877
     23  N         39.3970   -3.4330   10.7000 N.3   274  SER274     -0.1202
     24  CA        40.0090   -2.4870    9.7750 C.3   274  SER274      0.2020
     25  C         41.2810   -1.8990   10.3840 C.2   274  SER274      0.2619
     26  O         42.0230   -1.1810    9.7120 O.2   274  SER274     -0.2717
     27  CB        39.0360   -1.3640    9.4290 C.3   274  SER274      0.2103
     28  OG        38.9810   -0.4130   10.4730 O.3   274  SER274     -0.2182
     29  N         41.5230   -2.2050   11.6580 N.am  275  ASP275     -0.1959
     30  CA        42.7020   -1.7160   12.3670 C.3   275  ASP275      0.1840
     31  C         43.9020   -2.6450   12.1770 C.2   275  ASP275      0.2622
     32  O         43.7920   -3.8610   12.3470 O.2   275  ASP275     -0.2715
     33  CB        42.3920   -1.5350   13.8560 C.3   275  ASP275      0.1450
     34  CG        43.4170   -0.6700   14.5670 C.2   275  ASP275      0.3671
     35  OD1       44.5570   -1.1370   14.7820 O.co2 275  ASP275     -0.2456
     36  OD2       43.0780    0.4800   14.9190 O.co2 275  ASP275     -0.2456
     37  N         45.0450   -2.0570   11.8290 N.am  276  LEU276     -0.1963
     38  CA        46.2880   -2.8030   11.6330 C.3   276  LEU276      0.1728
     39  C         46.7880   -3.5390   12.8730 C.2   276  LEU276      0.2616
     40  O         47.0970   -4.7290   12.7940 O.2   276  LEU276     -0.2715
     41  CB        47.3920   -1.8860   11.0990 C.3   276  LEU276      0.0311
     42  CG        47.7860   -1.9920    9.6250 C.3   276  LEU276      0.0022
     43  CD1       48.5000   -3.3050    9.3390 C.3   276  LEU276      0.0001
     44  CD2       46.5830   -1.8220    8.7180 C.3   276  LEU276      0.0001
     45  N         46.8680   -2.8320   14.0040 N.am  277  ARG277     -0.1977
     46  CA        47.3610   -3.4070   15.2690 C.3   277  ARG277      0.1597
     47  C         46.6350   -4.6950   15.6480 C.2   277  ARG277      0.2287
     48  O         47.2480   -5.6250   16.1720 O.2   277  ARG277     -0.2864
     49  CB        47.2650   -2.3900   16.4120 C.3   277  ARG277      0.0334
     50  CG        48.3710   -1.3370   16.4170 C.3   277  ARG277      0.0492
     51  CD        48.0790   -0.1950   17.3980 C.3   277  ARG277      0.2205
     52  NE        47.0460    0.7190   16.9010 N.pl3 277  ARG277     -0.0865
     53  CZ        45.7970    0.7820   17.3580 C.cat 277  ARG277      0.5346
     54  NH1       45.3930   -0.0080   18.3460 N.pl3 277  ARG277      0.1354
     55  NH2       44.9440    1.6480   16.8260 N.pl3 277  ARG277      0.1354
     56  N         47.7040   -7.3210   12.8170 N.3   280  GLU280     -0.1245
     57  CA        49.1000   -7.6970   13.0390 C.3   280  GLU280      0.1567
     58  C         49.1910   -8.7210   14.1650 C.2   280  GLU280      0.2260
     59  O         49.9020   -9.7210   14.0440 O.2   280  GLU280     -0.2867
     60  CB        49.9630   -6.4700   13.3470 C.3   280  GLU280      0.0388
     61  CG        50.1570   -5.5280   12.1610 C.3   280  GLU280      0.1160
     62  CD        51.2130   -4.4670   12.4120 C.2   280  GLU280      0.3649
     63  OE1       52.3910   -4.8290   12.6180 O.co2 280  GLU280     -0.2457
     64  OE2       50.8670   -3.2670   12.3870 O.co2 280  GLU280     -0.2457
     65  N         51.9640    8.8070    7.4520 N.3   322  GLY322     -0.1210
     66  CA        50.6130    8.4810    7.8980 C.3   322  GLY322      0.1956
     67  C         50.6360    7.4650    9.0230 C.2   322  GLY322      0.2612
     68  O         51.6890    6.9100    9.3420 O.2   322  GLY322     -0.2717
     69  N         49.4690    7.2160    9.6180 N.am  323  GLY323     -0.1942
     70  CA        49.3430    6.3400   10.7910 C.3   323  GLY323      0.2014
     71  C         50.0750    5.0150   10.6660 C.2   323  GLY323      0.2638
     72  O         50.9110    4.6730   11.5120 O.2   323  GLY323     -0.2714
     73  N         49.7580    4.2790    9.6010 N.am  324  ILE324     -0.1977
     74  CA        50.3570    2.9740    9.3350 C.3   324  ILE324      0.1596
     75  C         51.8040    3.1430    8.8810 C.2   324  ILE324      0.2287
     76  O         52.6790    2.3640    9.2650 O.2   324  ILE324     -0.2864
     77  CB        49.5500    2.1830    8.2680 C.3   324  ILE324      0.0276
     78  CG1       48.0680    2.1080    8.6530 C.3   324  ILE324      0.0022
     79  CG2       50.1140    0.7700    8.0890 C.3   324  ILE324      0.0022
     80  CD1       47.1270    1.7580    7.4990 C.3   324  ILE324      0.0001
     81  N         54.2910    4.0920   11.9220 N.3   327  ASN327     -0.1225
     82  CA        54.2930    3.2250   13.0980 C.3   327  ASN327      0.1785
     83  C         54.5010    1.7340   12.8410 C.2   327  ASN327      0.2597
     84  O         55.0130    1.0220   13.7120 O.2   327  ASN327     -0.2718
     85  CB        53.0030    3.4300   13.8910 C.3   327  ASN327      0.1169
     86  CG        52.9180    4.8030   14.5150 C.2   327  ASN327      0.2627
     87  OD1       53.7700    5.1860   15.3200 O.2   327  ASN327     -0.2716
     88  ND2       51.8850    5.5540   14.1520 N.am  327  ASN327     -0.0877
     89  N         54.0990    1.2600   11.6630 N.am  328  SER328     -0.1952
     90  CA        54.1700   -0.1660   11.3580 C.3   328  SER328      0.1924
     91  C         55.5430   -0.6020   10.8570 C.2   328  SER328      0.2314
     92  O         55.8780   -0.4060    9.6900 O.2   328  SER328     -0.2863
     93  CB        53.0850   -0.5670   10.3600 C.3   328  SER328      0.2116
     94  OG        53.2120   -1.9370   10.0280 O.3   328  SER328     -0.2180
@<TRIPOS>BOND
     1     1     2    1
     2     5     2    1
     3     5     6    1
     4     4     3    2
     5     2     3    1
     6     6     8   ar
     7     6     7   ar
     8     8    10   ar
     9     7     9   ar
    10    10     9   ar
    11    18    17    2
    12    17    16    1
    13    11    12    1
    14    22    20   am
    15    14    13    2
    16    21    20    2
    17    20    19    1
    18    13    12    1
    19    13    15   am
    20    16    15    1
    21    16    19    1
    22    65    66    1
    23    80    78    1
    24    66    67    1
    25    79    77    1
    26    77    78    1
    27    77    74    1
    28    44    42    1
    29    75    76    2
    30    75    74    1
    31    67    68    2
    32    67    69   am
    33    74    73    1
    34    43    42    1
    35    27    24    1
    36    27    28    1
    37    73    71   am
    38    69    70    1
    39    42    41    1
    40    92    91    2
    41    26    25    2
    42    24    25    1
    43    24    23    1
    44    94    93    1
    45    93    90    1
    46    25    29   am
    47    71    70    1
    48    71    72    2
    49    91    90    1
    50    41    38    1
    51    90    89    1
    52    38    37    1
    53    38    39    1
    54    29    30    1
    55    89    83   am
    56    37    31   am
    57    81    82    1
    58    61    62    1
    59    61    60    1
    60    31    32    2
    61    31    30    1
    62    30    33    1
    63    64    62   ar
    64    62    63   ar
    65    40    39    2
    66    56    57    1
    67    83    82    1
    68    83    84    2
    69    39    45   am
    70    57    60    1
    71    57    58    1
    72    82    85    1
    73    33    34    1
    74    85    86    1
    75    45    46    1
    76    59    58    2
    77    88    86   am
    78    86    87    2
    79    34    35   ar
    80    34    36   ar
    81    46    47    1
    82    46    49    1
    83    47    48    2
    84    49    50    1
    85    50    51    1
    86    55    53    1
    87    52    53    2
    88    52    51    1
    89    53    54    1
