@<TRIPOS>MOLECULE
tmp/4fwsA00.pdb
 117 111 0 0 0
SMALL
GASTEIGER

@<TRIPOS>ATOM
      1  N         34.2020  -22.6020    2.4720 N.3    15  LYS15      -0.1245
      2  CA        34.7820  -23.8110    3.0550 C.3    15  LYS15       0.1561
      3  C         36.3000  -23.7160    3.0290 C.2    15  LYS15       0.2260
      4  O         36.8920  -23.4850    1.9730 O.2    15  LYS15      -0.2867
      5  CB        34.3300  -25.0610    2.2930 C.3    15  LYS15       0.0271
      6  CG        32.8460  -25.3800    2.3970 C.3    15  LYS15       0.0035
      7  CD        32.5140  -26.6660    1.6500 C.3    15  LYS15       0.0206
      8  CE        31.0280  -26.9820    1.7160 C.3    15  LYS15       0.1093
      9  NZ        30.6980  -28.2590    1.0190 N.3    15  LYS15      -0.1314
     10  N         33.9430  -31.7270  -11.2810 N.3   172  HIS172     -0.1241
     11  CA        34.5940  -32.6540  -10.3460 C.3   172  HIS172      0.1621
     12  C         35.9720  -33.0990  -10.8460 C.2   172  HIS172      0.2264
     13  O         36.4950  -34.1320  -10.4150 O.2   172  HIS172     -0.2867
     14  CB        33.7140  -33.8780  -10.0480 C.3   172  HIS172      0.0745
     15  CG        32.3870  -33.5440   -9.4450 C.ar  172  HIS172      0.0817
     16  ND1       31.2000  -34.0290   -9.9490 N.ar  172  HIS172     -0.2268
     17  CD2       32.0580  -32.7800   -8.3760 C.ar  172  HIS172      0.1154
     18  CE1       30.1960  -33.5760   -9.2190 C.ar  172  HIS172      0.1986
     19  NE2       30.6900  -32.8150   -8.2590 N.ar  172  HIS172     -0.2212
     20  N         32.1030  -40.3140   -9.4440 N.3   200  HIS200     -0.1241
     21  CA        32.0170  -39.3880   -8.3200 C.3   200  HIS200      0.1621
     22  C         30.5520  -39.1750   -7.9740 C.2   200  HIS200      0.2264
     23  O         29.8090  -38.5520   -8.7340 O.2   200  HIS200     -0.2867
     24  CB        32.6980  -38.0560   -8.6410 C.3   200  HIS200      0.0745
     25  CG        32.6520  -37.0710   -7.5150 C.ar  200  HIS200      0.0817
     26  ND1       33.5640  -37.0770   -6.4830 N.ar  200  HIS200     -0.2268
     27  CD2       31.7980  -36.0520   -7.2570 C.ar  200  HIS200      0.1154
     28  CE1       33.2770  -36.1020   -5.6390 C.ar  200  HIS200      0.1986
     29  NE2       32.2100  -35.4650   -6.0860 N.ar  200  HIS200     -0.2212
     30  N         27.8710  -37.8560   -5.1550 N.3   202  GLY202     -0.1210
     31  CA        27.4460  -37.1150   -3.9720 C.3   202  GLY202      0.1956
     32  C         26.1530  -36.3960   -4.2960 C.2   202  GLY202      0.2612
     33  O         25.3750  -36.8620   -5.1330 O.2   202  GLY202     -0.2717
     34  N         25.9210  -35.2610   -3.6390 N.am  203  ASN203     -0.1960
     35  CA        24.7990  -34.3880   -3.9840 C.3   203  ASN203      0.1819
     36  C         24.9500  -33.9110   -5.4270 C.2   203  ASN203      0.2621
     37  O         23.9700  -33.8050   -6.1670 O.2   203  ASN203     -0.2715
     38  CB        24.7150  -33.1960   -3.0270 C.3   203  ASN203      0.1195
     39  CG        24.5330  -33.6140   -1.5760 C.2   203  ASN203      0.2630
     40  OD1       23.9300  -34.6490   -1.2810 O.2   203  ASN203     -0.2716
     41  ND2       25.0530  -32.8040   -0.6600 N.am  203  ASN203     -0.0877
     42  N         26.1920  -33.6270   -5.8100 N.am  204  GLY204     -0.1954
     43  CA        26.5600  -33.4150   -7.2010 C.3   204  GLY204      0.1869
     44  C         27.3100  -34.6450   -7.6700 C.2   204  GLY204      0.2309
     45  O         28.2560  -35.0890   -7.0130 O.2   204  GLY204     -0.2863
     46  N         16.8910  -35.2380   -0.5170 N.3   274  SER274     -0.1202
     47  CA        17.9920  -35.4590   -1.4510 C.3   274  SER274      0.2020
     48  C         19.0330  -36.4020   -0.8440 C.2   274  SER274      0.2619
     49  O         19.8570  -36.9760   -1.5580 O.2   274  SER274     -0.2717
     50  CB        18.6450  -34.1290   -1.8310 C.3   274  SER274      0.2103
     51  OG        19.1570  -33.4690   -0.6860 O.3   274  SER274     -0.2182
     52  N         18.9810  -36.5540    0.4780 N.am  275  ASP275     -0.1959
     53  CA        19.9090  -37.4040    1.2200 C.3   275  ASP275      0.1840
     54  C         19.6010  -38.8840    1.0000 C.2   275  ASP275      0.2622
     55  O         18.4480  -39.3060    1.1020 O.2   275  ASP275     -0.2715
     56  CB        19.8450  -37.0590    2.7120 C.3   275  ASP275      0.1450
     57  CG        20.9840  -37.6680    3.5060 C.2   275  ASP275      0.3671
     58  OD1       21.0980  -38.9110    3.5490 O.co2 275  ASP275     -0.2456
     59  OD2       21.7590  -36.8960    4.1060 O.co2 275  ASP275     -0.2456
     60  N         20.6390  -39.6650    0.7090 N.am  276  LEU276     -0.1963
     61  CA        20.4830  -41.0990    0.4510 C.3   276  LEU276      0.1728
     62  C         20.2150  -41.9370    1.6960 C.2   276  LEU276      0.2616
     63  O         19.4110  -42.8680    1.6480 O.2   276  LEU276     -0.2715
     64  CB        21.6880  -41.6680   -0.3050 C.3   276  LEU276      0.0311
     65  CG        21.5680  -41.8400   -1.8220 C.3   276  LEU276      0.0022
     66  CD1       22.6460  -42.7870   -2.2990 C.3   276  LEU276      0.0001
     67  CD2       20.1980  -42.3700   -2.2440 C.3   276  LEU276      0.0001
     68  N         20.8910  -41.6140    2.7990 N.am  277  ARG277     -0.1977
     69  CA        20.7120  -42.3370    4.0630 C.3   277  ARG277      0.1597
     70  C         19.2560  -42.3100    4.5240 C.2   277  ARG277      0.2287
     71  O         18.7770  -43.2590    5.1450 O.2   277  ARG277     -0.2864
     72  CB        21.6200  -41.7660    5.1550 C.3   277  ARG277      0.0334
     73  CG        23.1040  -42.0170    4.9310 C.3   277  ARG277      0.0492
     74  CD        23.9560  -41.1500    5.8430 C.3   277  ARG277      0.2205
     75  NE        23.7760  -39.7260    5.5650 N.pl3 277  ARG277     -0.0865
     76  CZ        24.5320  -38.7520    6.0660 C.cat 277  ARG277      0.5346
     77  NH1       25.5450  -39.0340    6.8780 N.pl3 277  ARG277      0.1354
     78  NH2       24.2760  -37.4900    5.7490 N.pl3 277  ARG277      0.1354
     79  N         17.3660  -44.6490    1.7500 N.3   280  GLU280     -0.1245
     80  CA        17.7190  -46.0530    1.9740 C.3   280  GLU280      0.1567
     81  C         16.8830  -46.6510    3.1040 C.2   280  GLU280      0.2260
     82  O         16.4410  -47.7990    3.0180 O.2   280  GLU280     -0.2867
     83  CB        19.2080  -46.1990    2.3040 C.3   280  GLU280      0.0388
     84  CG        20.1510  -46.0350    1.1210 C.3   280  GLU280      0.1160
     85  CD        21.5850  -46.4050    1.4620 C.2   280  GLU280      0.3649
     86  OE1       21.8340  -47.5790    1.8150 O.co2 280  GLU280     -0.2457
     87  OE2       22.4670  -45.5240    1.3680 O.co2 280  GLU280     -0.2457
     88  N         33.1650  -40.0800   -3.5810 N.3   322  GLY322     -0.1210
     89  CA        32.1840  -39.1000   -3.1260 C.3   322  GLY322      0.1956
     90  C         31.3960  -39.6530   -1.9550 C.2   322  GLY322      0.2612
     91  O         31.4490  -40.8540   -1.6780 O.2   322  GLY322     -0.2717
     92  N         30.6600  -38.7770   -1.2720 N.am  323  GLY323     -0.1942
     93  CA        29.8400  -39.1640   -0.1210 C.3   323  GLY323      0.2014
     94  C         29.0210  -40.4260   -0.3340 C.2   323  GLY323      0.2638
     95  O         28.9500  -41.2820    0.5490 O.2   323  GLY323     -0.2714
     96  N         28.4080  -40.5440   -1.5110 N.am  324  ILE324     -0.1977
     97  CA        27.6090  -41.7220   -1.8480 C.3   324  ILE324      0.1596
     98  C         28.4960  -42.9160   -2.2080 C.2   324  ILE324      0.2287
     99  O         28.3310  -44.0040   -1.6520 O.2   324  ILE324     -0.2864
    100  CB        26.5800  -41.4260   -2.9730 C.3   324  ILE324      0.0276
    101  CG1       25.4860  -40.4870   -2.4540 C.3   324  ILE324      0.0022
    102  CG2       25.9650  -42.7180   -3.4970 C.3   324  ILE324      0.0022
    103  CD1       24.7100  -39.7550   -3.5350 C.3   324  ILE324      0.0001
    104  N         30.4070  -44.4860    0.8440 N.3   327  ASN327     -0.1225
    105  CA        29.6530  -44.9530    2.0080 C.3   327  ASN327      0.1785
    106  C         28.4450  -45.8490    1.7260 C.2   327  ASN327      0.2597
    107  O         27.9640  -46.5360    2.6310 O.2   327  ASN327     -0.2718
    108  CB        29.2150  -43.7550    2.8520 C.3   327  ASN327      0.1169
    109  CG        30.3850  -42.9220    3.3360 C.2   327  ASN327      0.2627
    110  OD1       31.1850  -43.3740    4.1520 O.2   327  ASN327     -0.2716
    111  ND2       30.4830  -41.6940    2.8430 N.am  327  ASN327     -0.0877
    112  N         27.9570  -45.8480    0.4880 N.am  328  SER328     -0.1952
    113  CA        26.7400  -46.5950    0.1630 C.3   328  SER328      0.1924
    114  C         27.0130  -48.0170   -0.3210 C.2   328  SER328      0.2314
    115  O         27.3560  -48.2400   -1.4830 O.2   328  SER328     -0.2863
    116  CB        25.8740  -45.8350   -0.8420 C.3   328  SER328      0.2116
    117  OG        24.5910  -46.4250   -0.9330 O.3   328  SER328     -0.2180
@<TRIPOS>BOND
     1    10    11    1
     2    12    13    2
     3    12    11    1
     4    11    14    1
     5    14    15    1
     6    16    15   ar
     7    16    18   ar
     8    15    17   ar
     9    20    21    1
    10    18    19   ar
    11    23    22    2
    12    24    21    1
    13    24    25    1
    14    17    19   ar
    15    21    22    1
    16    44    43    1
    17    44    45    2
    18    25    27   ar
    19    25    26   ar
    20    27    29   ar
    21    43    42    1
    22    26    28   ar
    23    37    36    2
    24    29    28   ar
    25    42    36   am
    26    36    35    1
    27    30    31    1
    28    33    32    2
    29    32    31    1
    30    32    34   am
    31    35    34    1
    32    35    38    1
    33    88    89    1
    34   103   101    1
    35   102   100    1
    36    89    90    1
    37    38    39    1
    38   100   101    1
    39   100    97    1
    40    66    65    1
    41    67    65    1
    42    98    97    1
    43    98    99    2
    44    90    91    2
    45    90    92   am
    46    97    96    1
    47    50    47    1
    48    50    51    1
    49    65    64    1
    50    39    40    2
    51    39    41   am
    52    49    48    2
    53    96    94   am
    54   115   114    2
    55    47    48    1
    56    47    46    1
    57    92    93    1
    58   117   116    1
    59    48    52   am
    60   116   113    1
    61    94    93    1
    62    94    95    2
    63   114   113    1
    64    64    61    1
    65   113   112    1
    66    61    60    1
    67    61    62    1
    68    52    53    1
    69   112   106   am
    70    60    54   am
    71   104   105    1
    72    54    55    2
    73    54    53    1
    74     9     8    1
    75    84    85    1
    76    84    83    1
    77    53    56    1
    78    87    85   ar
    79    85    86   ar
    80    63    62    2
    81     7     8    1
    82     7     6    1
    83    62    68   am
    84   106   105    1
    85   106   107    2
    86    79    80    1
    87     4     3    2
    88    80    83    1
    89    80    81    1
    90   105   108    1
    91     5     6    1
    92     5     2    1
    93     1     2    1
    94    56    57    1
    95    68    69    1
    96   111   109   am
    97   108   109    1
    98    82    81    2
    99     3     2    1
   100   109   110    2
   101    57    58   ar
   102    57    59   ar
   103    69    70    1
   104    69    72    1
   105    70    71    2
   106    73    72    1
   107    73    74    1
   108    75    74    1
   109    75    76    2
   110    78    76    1
   111    76    77    1
