@<TRIPOS>MOLECULE
tmp/4fwwA00.pdb
 101 97 0 0 0
SMALL
GASTEIGER

@<TRIPOS>ATOM
      1  N         -0.6640   14.9530    3.2800 N.3     1  VAL1       -0.1200
      2  CA         0.1300   13.8820    3.9600 C.3     1  VAL1        0.1745
      3  C          1.5970   14.2780    4.1190 C.2     1  VAL1        0.2302
      4  O          2.3800   14.0740    3.1920 O.2     1  VAL1       -0.2864
      5  CB         0.0530   12.5400    3.1960 C.2     1  VAL1       -0.0193
      6  CG1        1.1930   11.5430    3.7560 C.3     1  VAL1        0.0283
      7  CG2       -1.1300   11.9750    2.7990 C.2     1  VAL1       -0.0073
      8  N        -16.9320    6.0630    8.5680 N.3   387  LEU387     -0.1231
      9  CA       -16.1820    7.1450    7.8680 C.3   387  LEU387      0.1693
     10  C        -14.7340    6.8470    7.4590 C.2   387  LEU387      0.2592
     11  O        -14.1340    7.6260    6.7190 O.2   387  LEU387     -0.2718
     12  CB       -16.2310    8.4660    8.6530 C.3   387  LEU387      0.0284
     13  CG       -17.6120    9.1300    8.6740 C.3   387  LEU387      0.0019
     14  CD1      -17.6910   10.1930    9.7620 C.3   387  LEU387      0.0001
     15  CD2      -18.0570    9.6520    7.3070 C.3   387  LEU387      0.0001
     16  N        -14.1530    5.7550    7.9610 N.am  388  LEU388     -0.1966
     17  CA       -12.8490    5.3440    7.5010 C.3   388  LEU388      0.1728
     18  C        -12.9020    4.8320    6.0710 C.2   388  LEU388      0.2617
     19  O        -11.8610    4.7220    5.4090 O.2   388  LEU388     -0.2715
     20  CB       -12.2260    4.2820    8.4260 C.3   388  LEU388      0.0311
     21  CG       -11.8190    4.7250    9.8290 C.3   388  LEU388      0.0022
     22  CD1      -11.2590    3.5390   10.6530 C.3   388  LEU388      0.0001
     23  CD2      -10.8310    5.8620    9.7380 C.3   388  LEU388      0.0001
     24  N        -14.1080    4.4840    5.6180 N.am  389  GLY389     -0.1941
     25  CA       -14.3640    4.1300    4.2190 C.3   389  GLY389      0.1998
     26  C        -13.4990    2.9660    3.7770 C.2   389  GLY389      0.2481
     27  O        -13.4990    1.9200    4.4040 O.2   389  GLY389     -0.2729
     28  N        -12.6660    3.1780    2.7530 N.am  390  PRO390     -0.2715
     29  CA       -11.8870    2.0690    2.2520 C.3   390  PRO390      0.1536
     30  C        -10.5480    1.8590    2.9730 C.2   390  PRO390      0.2598
     31  O         -9.8590    0.8730    2.6900 O.2   390  PRO390     -0.2715
     32  CB       -11.6530    2.4300    0.7920 C.3   390  PRO390      0.0310
     33  CG       -11.8340    3.8950    0.6910 C.3   390  PRO390      0.0237
     34  CD       -12.5200    4.3950    1.9350 C.3   390  PRO390      0.0939
     35  N        -10.1740    2.8080    3.8280 N.am  391  VAL391     -0.1978
     36  CA        -8.8750    2.7650    4.5500 C.3   391  VAL391      0.1596
     37  C         -8.6840    1.4610    5.3240 C.2   391  VAL391      0.2287
     38  O         -9.5520    1.0400    6.0890 O.2   391  VAL391     -0.2864
     39  CB        -8.7090    3.9890    5.4930 C.3   391  VAL391      0.0276
     40  CG1       -7.4220    3.8510    6.3300 C.3   391  VAL391      0.0022
     41  CG2       -8.6300    5.2740    4.6800 C.3   391  VAL391      0.0022
     42  N          0.7450    5.0720    5.6100 N.3   415  ARG415     -0.1245
     43  CA         0.3700    6.3590    6.2000 C.3   415  ARG415      0.1563
     44  C         -0.0020    6.2870    7.6880 C.2   415  ARG415      0.2260
     45  O         -0.4400    5.2300    8.1490 O.2   415  ARG415     -0.2867
     46  CB        -0.8240    6.9600    5.4500 C.3   415  ARG415      0.0307
     47  CG        -0.5090    7.2820    3.9960 C.3   415  ARG415      0.0489
     48  CD        -1.5610    8.2100    3.4170 C.3   415  ARG415      0.2205
     49  NE        -2.8140    7.4950    3.3190 N.pl3 415  ARG415     -0.0865
     50  CZ        -4.0180    8.0550    3.4610 C.cat 415  ARG415      0.5346
     51  NH1       -4.1740    9.3780    3.7090 N.pl3 415  ARG415      0.1354
     52  NH2       -5.0750    7.2680    3.3680 N.pl3 415  ARG415      0.1354
     53  N         -2.7990    8.2430   10.0270 N.3   417  LEU417     -0.1245
     54  CA        -3.8640    9.2210   10.2420 C.3   417  LEU417      0.1561
     55  C         -4.0580    9.5270   11.7180 C.2   417  LEU417      0.2260
     56  O         -4.2450    8.6050   12.5100 O.2   417  LEU417     -0.2867
     57  CB        -5.1730    8.7400    9.6020 C.3   417  LEU417      0.0270
     58  CG        -5.0250    8.1580    8.1920 C.3   417  LEU417      0.0019
     59  CD1       -6.3810    7.6300    7.7050 C.3   417  LEU417      0.0001
     60  CD2       -4.4580    9.1730    7.2050 C.3   417  LEU417      0.0001
     61  N        -14.9150   12.8740    9.9800 N.3   428  LEU428     -0.1245
     62  CA       -13.8480   12.6800   10.9630 C.3   428  LEU428      0.1561
     63  C        -13.0550   13.9470   11.2140 C.2   428  LEU428      0.2260
     64  O        -12.7840   14.7040   10.3000 O.2   428  LEU428     -0.2867
     65  CB       -12.8780   11.6260   10.4580 C.3   428  LEU428      0.0270
     66  CG       -13.5030   10.2600   10.2280 C.3   428  LEU428      0.0019
     67  CD1      -12.4150    9.2320    9.9710 C.3   428  LEU428      0.0001
     68  CD2      -14.2820    9.9010   11.4760 C.3   428  LEU428      0.0001
     69  N         -9.7360   15.1290   11.4540 N.3   430  TYR430     -0.1227
     70  CA        -8.3070   14.8790   11.2490 C.3   430  TYR430      0.1736
     71  C         -7.4300   15.9340   11.9010 C.2   430  TYR430      0.2595
     72  O         -7.6400   17.1320   11.7100 O.2   430  TYR430     -0.2718
     73  CB        -7.9450   14.7780    9.7560 C.3   430  TYR430      0.0548
     74  CG        -8.4570   13.5240    9.0780 C.ar  430  TYR430     -0.0200
     75  CD1       -7.6700   12.3710    9.0130 C.ar  430  TYR430     -0.0009
     76  CD2       -9.7570   13.4730    8.5520 C.ar  430  TYR430     -0.0009
     77  CE1       -8.1530   11.1930    8.4680 C.ar  430  TYR430      0.0417
     78  CE2      -10.2440   12.3090    7.9540 C.ar  430  TYR430      0.0417
     79  CZ        -9.4490   11.1780    7.9080 C.ar  430  TYR430      0.1957
     80  OH        -9.9530   10.0090    7.3860 O.3   430  TYR430     -0.2866
     81  N         -6.4530   15.4930   12.6900 N.am  431  VAL431     -0.1966
     82  CA        -5.4500   16.4110   13.1940 C.3   431  VAL431      0.1727
     83  C         -4.3980   16.5340   12.1060 C.2   431  VAL431      0.2617
     84  O         -3.9830   17.6270   11.7840 O.2   431  VAL431     -0.2715
     85  CB        -4.7850   15.9010   14.4890 C.3   431  VAL431      0.0290
     86  CG1       -3.6660   16.8430   14.9300 C.3   431  VAL431      0.0023
     87  CG2       -5.8230   15.7410   15.5830 C.3   431  VAL431      0.0023
     88  N         -3.9870   15.4060   11.5340 N.am  432  SER432     -0.1936
     89  CA        -2.8320   15.3860   10.6320 C.3   432  SER432      0.2055
     90  C         -2.6770   14.0280    9.9310 C.2   432  SER432      0.2643
     91  O         -3.0830   12.9850   10.4640 O.2   432  SER432     -0.2714
     92  CB        -1.5450   15.7410   11.4000 C.3   432  SER432      0.2130
     93  OG        -0.4630   15.9930   10.5060 O.3   432  SER432     -0.2179
     94  N         -2.1730   14.0540    8.6950 N.am  433  ASN433     -0.1971
     95  CA        -1.7630   12.8340    8.0030 C.3   433  ASN433      0.1688
     96  C         -0.2590   12.8300    7.8020 C.2   433  ASN433      0.2292
     97  O          0.3330   13.8470    7.4810 O.2   433  ASN433     -0.2864
     98  CB        -2.4120   12.7260    6.6190 C.3   433  ASN433      0.1181
     99  CG        -3.9120   12.5940    6.6620 C.2   433  ASN433      0.2629
    100  OD1       -4.5200   12.2430    7.6850 O.2   433  ASN433     -0.2716
    101  ND2       -4.5260   12.8360    5.5170 N.am  433  ASN433     -0.0877
@<TRIPOS>BOND
     1    33    32    1
     2    33    34    1
     3    32    29    1
     4    34    28    1
     5    29    28    1
     6    29    30    1
     7    31    30    2
     8    28    26   am
     9     7     5    2
    10    30    35   am
    11     4     3    2
    12     5     6    1
    13     5     2    1
    14     1     2    1
    15    49    48    1
    16    49    50    2
    17    52    50    1
    18    48    47    1
    19    50    51    1
    20    26    25    1
    21    26    27    2
    22    35    36    1
    23     2     3    1
    24    47    46    1
    25    25    24    1
    26    36    37    1
    27    36    39    1
    28    41    39    1
    29    37    38    2
    30    19    18    2
    31    46    43    1
    32    39    40    1
    33   101    99   am
    34    42    43    1
    35    24    18   am
    36    18    17    1
    37    43    44    1
    38    98    99    1
    39    98    95    1
    40    99   100    2
    41    11    10    2
    42    60    58    1
    43    15    13    1
    44    80    79    1
    45    10     9    1
    46    10    16   am
    47    97    96    2
    48    17    16    1
    49    17    20    1
    50    44    45    2
    51    59    58    1
    52    96    95    1
    53     9     8    1
    54     9    12    1
    55    79    78   ar
    56    79    77   ar
    57    78    76   ar
    58    95    94    1
    59    58    57    1
    60    20    21    1
    61    77    75   ar
    62    76    74   ar
    63    12    13    1
    64    13    14    1
    65    94    90   am
    66    75    74   ar
    67    74    73    1
    68    57    54    1
    69    23    21    1
    70    73    70    1
    71    21    22    1
    72    90    91    2
    73    90    89    1
    74    67    66    1
    75    61    62    1
    76    53    54    1
    77    66    65    1
    78    66    68    1
    79    54    55    1
    80    64    63    2
    81    65    62    1
    82    93    92    1
    83    89    92    1
    84    89    88    1
    85    62    63    1
    86    70    69    1
    87    70    71    1
    88    88    83   am
    89    72    71    2
    90    55    56    2
    91    84    83    2
    92    71    81   am
    93    83    82    1
    94    81    82    1
    95    82    85    1
    96    85    86    1
    97    85    87    1
