@<TRIPOS>MOLECULE
tmp/4fx3A00.pdb
 158 150 0 0 0
SMALL
GASTEIGER

@<TRIPOS>ATOM
      1  N        -16.4090    2.2160   34.8190 N.3    10  ILE10      -0.1245
      2  CA       -15.6520    2.9640   35.8280 C.3    10  ILE10       0.1561
      3  C        -14.9560    4.1810   35.2060 C.2    10  ILE10       0.2260
      4  O        -13.7710    4.4190   35.4680 O.2    10  ILE10      -0.2867
      5  CB       -14.6470    2.0700   36.6110 C.3    10  ILE10       0.0252
      6  CG1      -13.7290    1.2640   35.6780 C.3    10  ILE10       0.0019
      7  CG2      -15.3870    1.1700   37.6210 C.3    10  ILE10       0.0019
      8  CD1      -12.3450    1.2000   36.1180 C.3    10  ILE10       0.0001
      9  N        -13.6600    3.3760   29.9610 N.3    18  VAL18      -0.1245
     10  CA       -12.9660    2.4700   30.8780 C.3    18  VAL18       0.1561
     11  C        -14.0270    1.6400   31.6540 C.2    18  VAL18       0.2260
     12  O        -14.9720    2.2060   32.2280 O.2    18  VAL18      -0.2867
     13  CB       -11.9880    3.2110   31.8320 C.3    18  VAL18       0.0252
     14  CG1      -11.1580    2.2300   32.6520 C.3    18  VAL18       0.0019
     15  CG2      -11.0800    4.1600   31.0580 C.3    18  VAL18       0.0019
     16  N         -9.0930   -3.7140   34.2040 N.3    31  ALA31      -0.1245
     17  CA        -9.7110   -2.4890   33.7120 C.3    31  ALA31       0.1562
     18  C         -9.5480   -2.4970   32.1990 C.2    31  ALA31       0.2260
     19  O         -8.4670   -2.8600   31.7140 O.2    31  ALA31      -0.2867
     20  CB        -9.0620   -1.2770   34.3270 C.3    31  ALA31       0.0290
     21  N        -10.0050   -0.3870   28.5650 N.3    33  LYS33      -0.1245
     22  CA       -10.2320    0.8560   27.8420 C.3    33  LYS33       0.1561
     23  C        -10.6980    0.5080   26.4210 C.2    33  LYS33       0.2260
     24  O         -9.9250   -0.0170   25.6220 O.2    33  LYS33      -0.2867
     25  CB        -8.9710    1.7240   27.8490 C.3    33  LYS33       0.0271
     26  CG        -9.2150    3.1460   27.3820 C.3    33  LYS33       0.0035
     27  CD        -8.6520    4.1640   28.3430 C.3    33  LYS33       0.0206
     28  CE        -7.1560    4.2920   28.2660 C.3    33  LYS33       0.1093
     29  NZ        -6.6840    5.5800   28.8440 N.3    33  LYS33      -0.1314
     30  N         -0.2300    6.5180   24.0710 N.3    51  GLU51      -0.1245
     31  CA        -0.4360    5.8220   25.3510 C.3    51  GLU51       0.1567
     32  C          0.1160    4.3840   25.3360 C.2    51  GLU51       0.2260
     33  O          0.7530    3.9960   26.3170 O.2    51  GLU51      -0.2867
     34  CB        -1.9140    5.8140   25.7430 C.3    51  GLU51       0.0388
     35  CG        -2.2120    4.9370   26.9430 C.3    51  GLU51       0.1160
     36  CD        -3.5570    5.1560   27.5930 C.2    51  GLU51       0.3649
     37  OE1       -4.5460    5.3920   26.8580 O.co2  51  GLU51      -0.2457
     38  OE2       -3.6130    5.1080   28.8440 O.co2  51  GLU51      -0.2457
     39  N          0.6520    2.6010   36.0740 N.3    64  VAL64      -0.1245
     40  CA        -0.2990    1.5290   35.8010 C.3    64  VAL64       0.1561
     41  C          0.3180    0.5830   34.7620 C.2    64  VAL64       0.2260
     42  O          1.0780    1.0240   33.9040 O.2    64  VAL64      -0.2867
     43  CB        -1.7110    2.0450   35.4010 C.3    64  VAL64       0.0252
     44  CG1       -2.6670    0.8910   35.1410 C.3    64  VAL64       0.0019
     45  CG2       -2.2950    2.8930   36.5110 C.3    64  VAL64       0.0019
     46  N         -5.6290   -3.4360   31.2740 N.3    80  PHE80      -0.1227
     47  CA        -4.7870   -2.9590   32.3830 C.3    80  PHE80       0.1736
     48  C         -5.1100   -3.6440   33.6830 C.2    80  PHE80       0.2595
     49  O         -6.2510   -4.0580   33.8840 O.2    80  PHE80      -0.2718
     50  CB        -4.9910   -1.4540   32.6260 C.3    80  PHE80       0.0547
     51  CG        -4.8210   -0.4690   31.4920 C.ar   80  PHE80      -0.0202
     52  CD1       -5.8630   -0.2330   30.5960 C.ar   80  PHE80      -0.0042
     53  CD2       -3.6930    0.3630   31.4330 C.ar   80  PHE80      -0.0042
     54  CE1       -5.7660    0.7750   29.6410 C.ar   80  PHE80      -0.0003
     55  CE2       -3.5940    1.3720   30.4720 C.ar   80  PHE80      -0.0003
     56  CZ        -4.6300    1.5710   29.5840 C.ar   80  PHE80      -0.0000
     57  N         -4.1450   -3.6250   34.6290 N.am   81  GLU81      -0.1965
     58  CA        -4.3380   -4.0920   35.9980 C.3    81  GLU81       0.1733
     59  C         -5.4770   -3.2810   36.6350 C.2    81  GLU81       0.2616
     60  O         -5.7730   -2.1770   36.1670 O.2    81  GLU81      -0.2715
     61  CB        -3.0380   -3.9460   36.8240 C.3    81  GLU81       0.0429
     62  CG        -2.6630   -2.5060   37.1550 C.3    81  GLU81       0.1163
     63  CD        -1.5200   -2.3210   38.1300 C.2    81  GLU81       0.3649
     64  OE1       -0.5450   -1.6200   37.7750 O.co2  81  GLU81      -0.2457
     65  OE2       -1.6180   -2.8330   39.2670 O.co2  81  GLU81      -0.2457
     66  N         -6.1200   -3.8220   37.6790 N.am   82  PHE82      -0.1960
     67  CA        -7.2110   -3.1030   38.3260 C.3    82  PHE82       0.1771
     68  C         -6.7390   -2.5140   39.6420 C.2    82  PHE82       0.2619
     69  O         -5.9120   -3.1220   40.3360 O.2    82  PHE82      -0.2715
     70  CB        -8.4430   -4.0100   38.5390 C.3    82  PHE82       0.0574
     71  CG        -9.6350   -3.3380   39.1820 C.ar   82  PHE82      -0.0200
     72  CD1      -10.4780   -2.5170   38.4370 C.ar   82  PHE82      -0.0042
     73  CD2       -9.9020   -3.5070   40.5400 C.ar   82  PHE82      -0.0042
     74  CE1      -11.5530   -1.8580   39.0450 C.ar   82  PHE82      -0.0003
     75  CE2      -10.9840   -2.8540   41.1440 C.ar   82  PHE82      -0.0003
     76  CZ       -11.7970   -2.0360   40.3920 C.ar   82  PHE82      -0.0000
     77  N         -7.2380   -1.3040   39.9450 N.am   83  LEU83      -0.1963
     78  CA        -7.0320   -0.5670   41.1790 C.3    83  LEU83       0.1728
     79  C         -8.3960   -0.0570   41.5960 C.2    83  LEU83       0.2616
     80  O         -9.2380    0.2900   40.7530 O.2    83  LEU83      -0.2715
     81  CB        -5.9760    0.5340   41.0520 C.3    83  LEU83       0.0311
     82  CG        -4.5220    0.0290   41.0740 C.3    83  LEU83       0.0022
     83  CD1       -3.9660   -0.0750   39.6840 C.3    83  LEU83       0.0001
     84  CD2       -3.6290    0.9390   41.8770 C.3    83  LEU83       0.0001
     85  N         -8.6290   -0.0640   42.9040 N.am   84  HIS84      -0.1959
     86  CA        -9.9010    0.1720   43.5690 C.3    84  HIS84       0.1787
     87  C        -10.5170    1.5510   43.4270 C.2    84  HIS84       0.2620
     88  O        -11.7450    1.6050   43.3430 O.2    84  HIS84      -0.2715
     89  CB        -9.7670   -0.2190   45.0270 C.3    84  HIS84       0.0785
     90  CG        -9.3380   -1.6500   45.1030 C.ar   84  HIS84       0.0821
     91  ND1       -8.0040   -1.9950   45.2810 N.ar   84  HIS84      -0.2267
     92  CD2      -10.0420   -2.7700   44.8080 C.ar   84  HIS84       0.1154
     93  CE1       -7.9700   -3.3120   45.2150 C.ar   84  HIS84       0.1986
     94  NE2       -9.1690   -3.8210   44.9210 N.ar   84  HIS84      -0.2212
     95  N         -9.7340    2.6450   43.4270 N.am   85  GLN85      -0.1963
     96  CA       -10.3170    3.9830   43.2670 C.3    85  GLN85       0.1733
     97  C         -9.2920    5.0320   42.9110 C.2    85  GLN85       0.2616
     98  O         -8.0810    4.7830   42.9990 O.2    85  GLN85      -0.2715
     99  CB       -11.1550    4.4550   44.4790 C.3    85  GLN85       0.0408
    100  CG       -10.5310    4.3930   45.8730 C.3    85  GLN85       0.0908
    101  CD       -11.4550    5.0230   46.9260 C.2    85  GLN85       0.2608
    102  OE1      -11.0090    5.5360   47.9530 O.2    85  GLN85      -0.2717
    103  NE2      -12.7700    5.0030   46.7230 N.am   85  GLN85      -0.0878
    104  N         -9.7910    6.1940   42.4410 N.am   86  ASP86      -0.1971
    105  CA        -8.9290    7.3000   42.0790 C.3    86  ASP86       0.1709
    106  C         -8.7860    8.2260   43.2740 C.2    86  ASP86       0.2293
    107  O         -9.5880    8.1420   44.2050 O.2    86  ASP86      -0.2864
    108  CB        -9.3960    8.0280   40.8040 C.3    86  ASP86       0.1436
    109  CG       -10.8100    8.5750   40.7950 C.2    86  ASP86       0.3671
    110  OD1      -11.2560    9.0710   41.8400 O.co2  86  ASP86      -0.2456
    111  OD2      -11.4100    8.6390   39.7020 O.co2  86  ASP86      -0.2456
    112  N        -12.0090   10.4400   44.3690 N.3    89  LYS89      -0.1245
    113  CA       -12.9950    9.8360   45.2610 C.3    89  LYS89       0.1561
    114  C        -12.4450    9.6970   46.6950 C.2    89  LYS89       0.2260
    115  O        -13.1860    9.9720   47.6470 O.2    89  LYS89      -0.2867
    116  CB       -13.4770    8.4810   44.7430 C.3    89  LYS89       0.0271
    117  CG       -14.9280    8.1750   45.1210 C.3    89  LYS89       0.0035
    118  CD       -15.2080    6.6800   45.1080 C.3    89  LYS89       0.0206
    119  CE       -16.6280    6.3350   44.7180 C.3    89  LYS89       0.1093
    120  NZ       -16.8330    4.8610   44.6160 N.3    89  LYS89      -0.1314
    121  N         -8.0990   12.4800   39.5240 N.3   131  GLN131     -0.1231
    122  CA        -8.8210   11.3220   38.9490 C.3   131  GLN131      0.1698
    123  C         -7.9430   10.4100   38.0870 C.2   131  GLN131      0.2592
    124  O         -8.2310    9.2210   37.9730 O.2   131  GLN131     -0.2718
    125  CB       -10.1000   11.7100   38.2040 C.3   131  GLN131      0.0381
    126  CG        -9.9430   12.3530   36.8510 C.3   131  GLN131      0.0905
    127  CD       -11.2860   12.8730   36.4140 C.2   131  GLN131      0.2608
    128  OE1      -11.9630   12.2750   35.5660 O.2   131  GLN131     -0.2717
    129  NE2      -11.7210   13.9740   37.0330 N.am  131  GLN131     -0.0878
    130  N         -6.8490   10.9440   37.5530 N.am  132  ASN132     -0.1974
    131  CA        -5.8540   10.2050   36.7720 C.3   132  ASN132      0.1688
    132  C         -4.8710    9.4630   37.6890 C.2   132  ASN132      0.2292
    133  O         -3.9270    8.8670   37.1740 O.2   132  ASN132     -0.2864
    134  CB        -5.0760   11.1650   35.8410 C.3   132  ASN132      0.1181
    135  CG        -5.8470   11.6000   34.6280 C.2   132  ASN132      0.2629
    136  OD1       -6.9520   11.1110   34.3230 O.2   132  ASN132     -0.2716
    137  ND2       -5.2730   12.5330   33.9010 N.am  132  ASN132     -0.0877
    138  N         -4.5230    6.5450   40.5880 N.3   134  LEU134     -0.1245
    139  CA        -5.2210    5.3960   41.1320 C.3   134  LEU134      0.1561
    140  C         -4.5650    4.7980   42.3880 C.2   134  LEU134      0.2260
    141  O         -3.3410    4.6060   42.4490 O.2   134  LEU134     -0.2867
    142  CB        -5.3290    4.3400   40.0210 C.3   134  LEU134      0.0270
    143  CG        -6.0360    4.8150   38.7520 C.3   134  LEU134      0.0019
    144  CD1       -5.7300    3.9200   37.6350 C.3   134  LEU134      0.0001
    145  CD2       -7.5660    5.0100   38.9750 C.3   134  LEU134      0.0001
    146  N         -1.9450    7.0450   36.1330 N.3   144  ALA144     -0.1231
    147  CA        -2.7590    6.5320   35.0270 C.3   144  ALA144      0.1694
    148  C         -3.0150    7.6320   33.9710 C.2   144  ALA144      0.2592
    149  O         -2.5400    8.7620   34.1100 O.2   144  ALA144     -0.2718
    150  CB        -4.0630    5.9560   35.5360 C.3   144  ALA144      0.0304
    151  N         -3.7340    7.2530   32.8910 N.am  145  ASP145     -0.1974
    152  CA        -4.1420    8.0030   31.7020 C.3   145  ASP145      0.1709
    153  C         -2.9940    8.7350   31.0880 C.2   145  ASP145      0.2293
    154  O         -2.6990    9.8630   31.4580 O.2   145  ASP145     -0.2864
    155  CB        -5.3210    8.9490   31.9390 C.3   145  ASP145      0.1436
    156  CG        -6.0810    9.2660   30.6570 C.2   145  ASP145      0.3671
    157  OD1       -5.4880    9.1330   29.5540 O.co2 145  ASP145     -0.2456
    158  OD2       -7.2690    9.6220   30.7510 O.co2 145  ASP145     -0.2456
@<TRIPOS>BOND
     1    30    31    1
     2    32    31    1
     3    32    33    2
     4    31    34    1
     5    24    23    2
     6    34    35    1
     7    23    22    1
     8    37    36   ar
     9    35    36    1
    10    26    25    1
    11    26    27    1
    12    36    38   ar
    13    22    25    1
    14    22    21    1
    15    28    27    1
    16    28    29    1
    17   157   156   ar
    18    56    54   ar
    19    56    55   ar
    20    54    52   ar
    21     9    10    1
    22    55    53   ar
    23    52    51   ar
    24   156   158   ar
    25   156   155    1
    26    10    11    1
    27    10    13    1
    28    15    13    1
    29   153   154    2
    30   153   152    1
    31    46    47    1
    32    53    51   ar
    33    51    50    1
    34    11    12    2
    35   152   155    1
    36   152   151    1
    37    19    18    2
    38    13    14    1
    39    18    17    1
    40    47    50    1
    41    47    48    1
    42   151   148   am
    43    48    49    2
    44    48    57   am
    45    17    16    1
    46    17    20    1
    47   137   135   am
    48    42    41    2
    49   148   149    2
    50   148   147    1
    51   136   135    2
    52   135   134    1
    53    57    58    1
    54    41    40    1
    55     1     2    1
    56   147   150    1
    57   147   146    1
    58    44    43    1
    59     3     4    2
    60     3     2    1
    61    43    40    1
    62    43    45    1
    63   128   127    2
    64     6     8    1
    65     6     5    1
    66    40    39    1
    67     2     5    1
    68   134   131    1
    69    58    59    1
    70    58    61    1
    71    60    59    2
    72   127   126    1
    73   127   129   am
    74     5     7    1
    75    59    66   am
    76   131   130    1
    77   131   132    1
    78    61    62    1
    79   126   125    1
    80    62    63    1
    81   133   132    2
    82   130   123   am
    83   144   143    1
    84    66    67    1
    85    64    63   ar
    86   124   123    2
    87   123   122    1
    88    63    65   ar
    89   125   122    1
    90    67    70    1
    91    67    68    1
    92    72    74   ar
    93    72    71   ar
    94    70    71    1
    95   143   145    1
    96   143   142    1
    97   122   121    1
    98    74    76   ar
    99    71    73   ar
   100    68    77   am
   101    68    69    2
   102    83    82    1
   103   111   109   ar
   104    77    78    1
   105   142   139    1
   106    76    75   ar
   107    73    75   ar
   108   138   139    1
   109    80    79    2
   110   109   108    1
   111   109   110   ar
   112   108   105    1
   113    81    82    1
   114    81    78    1
   115    82    84    1
   116   139   140    1
   117    78    79    1
   118    79    85   am
   119   105   104    1
   120   105   106    1
   121   140   141    2
   122   104    97   am
   123    85    86    1
   124    97    98    2
   125    97    96    1
   126    96    95    1
   127    96    99    1
   128   106   107    2
   129    88    87    2
   130    87    95   am
   131    87    86    1
   132    86    89    1
   133   112   113    1
   134    99   100    1
   135   120   119    1
   136   119   118    1
   137   116   117    1
   138   116   113    1
   139    92    94   ar
   140    92    90   ar
   141    94    93   ar
   142    89    90    1
   143    90    91   ar
   144   118   117    1
   145    93    91   ar
   146   113   114    1
   147   100   101    1
   148   114   115    2
   149   103   101   am
   150   101   102    2
