@<TRIPOS>MOLECULE
tmp/4fx9B02.pdb
 152 147 0 0 0
SMALL
GASTEIGER

@<TRIPOS>ATOM
      1  N        -39.0480  -16.1180   -6.2970 N.3    12  ALA12      -0.1245
      2  CA       -40.4500  -16.1230   -6.7210 C.3    12  ALA12       0.1562
      3  C        -41.1590  -17.4330   -6.3850 C.2    12  ALA12       0.2260
      4  O        -42.2570  -17.4230   -5.8230 O.2    12  ALA12      -0.2867
      5  CB       -40.5520  -15.8420   -8.2100 C.3    12  ALA12       0.0290
      6  N        -41.4930  -18.1100   -2.3800 N.3    15  MET15      -0.1230
      7  CA       -42.4420  -17.2150   -1.7260 C.3    15  MET15       0.1702
      8  C        -43.8820  -17.4600   -2.1720 C.2    15  MET15       0.2593
      9  O        -44.8070  -17.3220   -1.3700 O.2    15  MET15      -0.2718
     10  CB       -42.0510  -15.7420   -1.9060 C.3    15  MET15       0.0401
     11  CG       -40.6930  -15.3470   -1.3140 C.3    15  MET15       0.0596
     12  SD       -40.1840  -16.2630    0.1610 S.3    15  MET15      -0.1393
     13  CE       -41.3190  -15.6450    1.4030 C.3    15  MET15       0.0692
     14  N        -44.0620  -17.8310   -3.4410 N.am   16  SER16      -0.1952
     15  CA       -45.3720  -18.2380   -3.9590 C.3    16  SER16       0.1924
     16  C        -45.8960  -19.4710   -3.2320 C.2    16  SER16       0.2314
     17  O        -47.0800  -19.5410   -2.8910 O.2    16  SER16      -0.2863
     18  CB       -45.3100  -18.5160   -5.4620 C.3    16  SER16       0.2116
     19  OG       -45.4030  -17.3190   -6.2100 O.3    16  SER16      -0.2180
     20  N        -46.5140  -18.5770    0.6460 N.3    19  SER19      -0.1202
     21  CA       -47.7480  -17.7960    0.7120 C.3    19  SER19       0.2020
     22  C        -48.9760  -18.6820    0.5330 C.2    19  SER19       0.2618
     23  O        -49.9390  -18.5640    1.2870 O.2    19  SER19      -0.2717
     24  CB       -47.7480  -16.6820   -0.3380 C.3    19  SER19       0.2103
     25  OG       -46.6490  -15.8080   -0.1510 O.3    19  SER19      -0.2182
     26  N        -48.9200  -19.5740   -0.4540 N.am   20  ARG20      -0.1979
     27  CA       -50.0260  -20.4740   -0.7640 C.3    20  ARG20       0.1597
     28  C        -50.3480  -21.3930    0.4160 C.2    20  ARG20       0.2287
     29  O        -51.5130  -21.5240    0.7960 O.2    20  ARG20      -0.2864
     30  CB       -49.7050  -21.3160   -2.0060 C.3    20  ARG20       0.0334
     31  CG       -50.8240  -21.4340   -3.0500 C.3    20  ARG20       0.0492
     32  CD       -52.2320  -21.4030   -2.4610 C.3    20  ARG20       0.2205
     33  NE       -53.1760  -22.1920   -3.2480 N.pl3  20  ARG20      -0.0865
     34  CZ       -54.4680  -21.9080   -3.3890 C.cat  20  ARG20       0.5346
     35  NH1      -54.9900  -20.8320   -2.8150 N.pl3  20  ARG20       0.1354
     36  NH2      -55.2380  -22.6990   -4.1230 N.pl3  20  ARG20       0.1354
     37  N        -51.6780  -19.5290    3.3900 N.3    23  ARG23      -0.1245
     38  CA       -52.9870  -18.9990    3.0310 C.3    23  ARG23       0.1563
     39  C        -54.0690  -20.0710    3.1480 C.2    23  ARG23       0.2260
     40  O        -55.2160  -19.7660    3.4750 O.2    23  ARG23      -0.2867
     41  CB       -52.9590  -18.4200    1.6150 C.3    23  ARG23       0.0307
     42  CG       -53.6240  -17.0610    1.4840 C.3    23  ARG23       0.0489
     43  CD       -55.1020  -17.1840    1.1670 C.3    23  ARG23       0.2205
     44  NE       -55.8200  -15.9450    1.4550 N.pl3  23  ARG23      -0.0865
     45  CZ       -56.9490  -15.5710    0.8570 C.cat  23  ARG23       0.5346
     46  NH1      -57.4990  -16.3330   -0.0810 N.pl3  23  ARG23       0.1354
     47  NH2      -57.5270  -14.4260    1.1930 N.pl3  23  ARG23       0.1354
     48  N        -38.1910  -12.3220   -2.2310 N.3    40  SER40      -0.1202
     49  CA       -39.1700  -11.8740   -3.2260 C.3    40  SER40       0.2020
     50  C        -38.5280  -10.9730   -4.2840 C.2    40  SER40       0.2619
     51  O        -39.0890   -9.9460   -4.6760 O.2    40  SER40      -0.2717
     52  CB       -40.3240  -11.1490   -2.5260 C.3    40  SER40       0.2103
     53  OG       -41.4450  -11.0140   -3.3760 O.3    40  SER40      -0.2182
     54  N        -37.3460  -11.3780   -4.7360 N.am   41  HIS41      -0.1961
     55  CA       -36.5060  -10.5420   -5.5850 C.3    41  HIS41       0.1787
     56  C        -36.6790  -10.8470   -7.0660 C.2    41  HIS41       0.2620
     57  O        -37.1910  -11.9020   -7.4390 O.2    41  HIS41      -0.2715
     58  CB       -35.0340  -10.6920   -5.1890 C.3    41  HIS41       0.0785
     59  CG       -34.5350  -12.1020   -5.2450 C.ar   41  HIS41       0.0821
     60  ND1      -34.1890  -12.7230   -6.4260 N.ar   41  HIS41      -0.2267
     61  CD2      -34.3230  -13.0120   -4.2660 C.ar   41  HIS41       0.1154
     62  CE1      -33.7870  -13.9550   -6.1720 C.ar   41  HIS41       0.1986
     63  NE2      -33.8580  -14.1550   -4.8680 N.ar   41  HIS41      -0.2212
     64  N        -36.2310   -9.9150   -7.9010 N.am   42  ALA42      -0.1964
     65  CA       -36.2990  -10.0750   -9.3430 C.3    42  ALA42       0.1713
     66  C        -34.9080  -10.0360   -9.9750 C.2    42  ALA42       0.2458
     67  O        -34.3540   -8.9540  -10.1950 O.2    42  ALA42      -0.2730
     68  CB       -37.1940   -9.0130   -9.9460 C.3    42  ALA42       0.0333
     69  N        -34.3340  -11.2220  -10.2630 N.am   43  PRO43      -0.2716
     70  CA       -33.0900  -11.3070  -11.0290 C.3    43  PRO43       0.1536
     71  C        -33.2690  -10.7660  -12.4480 C.2    43  PRO43       0.2598
     72  O        -32.2860  -10.5080  -13.1400 O.2    43  PRO43      -0.2715
     73  CB       -32.8090  -12.8120  -11.0720 C.3    43  PRO43       0.0310
     74  CG       -33.5440  -13.3720   -9.9130 C.3    43  PRO43       0.0237
     75  CD       -34.7840  -12.5510   -9.8120 C.3    43  PRO43       0.0939
     76  N        -34.5250  -10.5930  -12.8560 N.am   44  CYS44      -0.1968
     77  CA       -34.8790  -10.0620  -14.1710 C.3    44  CYS44       0.1712
     78  C        -34.6030   -8.5670  -14.2730 C.2    44  CYS44       0.2296
     79  O        -34.5360   -8.0140  -15.3730 O.2    44  CYS44      -0.2864
     80  CB       -36.3530  -10.3320  -14.4670 C.3    44  CYS44       0.0983
     81  SG       -36.8780  -12.0210  -14.1060 S.3    44  CYS44      -0.0798
     82  N        -40.2120   -7.3110   -4.4580 N.3    61  TYR61      -0.1227
     83  CA       -41.6530   -7.1630   -4.6410 C.3    61  TYR61       0.1736
     84  C        -42.2960   -6.7560   -3.3190 C.2    61  TYR61       0.2595
     85  O        -43.0150   -5.7580   -3.2510 O.2    61  TYR61      -0.2718
     86  CB       -42.2750   -8.4580   -5.1640 C.3    61  TYR61       0.0548
     87  CG       -43.5360   -8.2510   -5.9730 C.ar   61  TYR61      -0.0200
     88  CD1      -44.7780   -8.1790   -5.3520 C.ar   61  TYR61      -0.0009
     89  CD2      -43.4840   -8.1270   -7.3540 C.ar   61  TYR61      -0.0009
     90  CE1      -45.9320   -7.9900   -6.0870 C.ar   61  TYR61       0.0417
     91  CE2      -44.6350   -7.9370   -8.0980 C.ar   61  TYR61       0.0417
     92  CZ       -45.8550   -7.8690   -7.4590 C.ar   61  TYR61       0.1957
     93  OH       -47.0030   -7.6820   -8.1940 O.3    61  TYR61      -0.2866
     94  N        -42.0260   -7.5390   -2.2760 N.am   62  TYR62      -0.1976
     95  CA       -42.4420   -7.2160   -0.9140 C.3    62  TYR62       0.1639
     96  C        -41.2320   -7.1680    0.0150 C.2    62  TYR62       0.2290
     97  O        -40.3120   -7.9780   -0.1300 O.2    62  TYR62      -0.2864
     98  CB       -43.4250   -8.2590   -0.3730 C.3    62  TYR62       0.0560
     99  CG       -44.7720   -8.3230   -1.0610 C.ar   62  TYR62      -0.0198
    100  CD1      -45.5650   -7.1830   -1.2050 C.ar   62  TYR62      -0.0009
    101  CD2      -45.2710   -9.5370   -1.5320 C.ar   62  TYR62      -0.0009
    102  CE1      -46.8100   -7.2470   -1.8280 C.ar   62  TYR62       0.0417
    103  CE2      -46.5140   -9.6130   -2.1520 C.ar   62  TYR62       0.0417
    104  CZ       -47.2780   -8.4650   -2.2970 C.ar   62  TYR62       0.1957
    105  OH       -48.5070   -8.5370   -2.9100 O.3    62  TYR62      -0.2866
    106  N        -44.0880  -10.8050    4.6440 N.3    67  PHE67      -0.1241
    107  CA       -44.1310  -12.2610    4.7550 C.3    67  PHE67       0.1605
    108  C        -44.1840  -12.7290    6.2080 C.2    67  PHE67       0.2264
    109  O        -44.8990  -13.6800    6.5310 O.2    67  PHE67      -0.2867
    110  CB       -42.9420  -12.8960    4.0310 C.3    67  PHE67       0.0534
    111  CG       -42.8860  -12.5780    2.5640 C.ar   67  PHE67      -0.0203
    112  CD1      -43.8090  -13.1350    1.6820 C.ar   67  PHE67      -0.0042
    113  CD2      -41.9100  -11.7250    2.0640 C.ar   67  PHE67      -0.0042
    114  CE1      -43.7590  -12.8450    0.3240 C.ar   67  PHE67      -0.0003
    115  CE2      -41.8530  -11.4290    0.7080 C.ar   67  PHE67      -0.0003
    116  CZ       -42.7800  -11.9890   -0.1630 C.ar   67  PHE67      -0.0000
    117  N        -48.2180  -11.9610    6.7920 N.3    71  ARG71      -0.1245
    118  CA       -48.5920  -13.2760    6.2470 C.3    71  ARG71       0.1563
    119  C        -48.2950  -14.4870    7.1430 C.2    71  ARG71       0.2260
    120  O        -48.9420  -15.5260    7.0050 O.2    71  ARG71      -0.2867
    121  CB       -48.0170  -13.4710    4.8370 C.3    71  ARG71       0.0307
    122  CG       -48.8020  -12.7230    3.7650 C.3    71  ARG71       0.0489
    123  CD       -48.2950  -13.0090    2.3640 C.3    71  ARG71       0.2205
    124  NE       -49.0450  -12.2510    1.3620 N.pl3  71  ARG71      -0.0865
    125  CZ       -48.8540  -12.3310    0.0470 C.cat  71  ARG71       0.5346
    126  NH1      -47.9300  -13.1410   -0.4560 N.pl3  71  ARG71       0.1354
    127  NH2      -49.5930  -11.5960   -0.7740 N.pl3  71  ARG71       0.1354
    128  N        -39.6830  -16.7520  -15.1810 N.3   297  ALA297     -0.1245
    129  CA       -40.3780  -16.2040  -14.0130 C.3   297  ALA297      0.1562
    130  C        -41.8700  -16.5500  -13.8410 C.2   297  ALA297      0.2260
    131  O        -42.2690  -16.9350  -12.7400 O.2   297  ALA297     -0.2867
    132  CB       -40.1650  -14.6890  -13.9360 C.3   297  ALA297      0.0290
    133  N        -43.2480  -19.0090  -10.6910 N.3   301  ASN301     -0.1240
    134  CA       -44.2740  -18.5130   -9.7830 C.3   301  ASN301      0.1653
    135  C        -45.4890  -19.4280   -9.6790 C.2   301  ASN301      0.2266
    136  O        -45.9760  -19.6970   -8.5790 O.2   301  ASN301     -0.2867
    137  CB       -44.6990  -17.0980  -10.1770 C.3   301  ASN301      0.1155
    138  CG       -43.9940  -16.0370   -9.3600 C.2   301  ASN301      0.2627
    139  OD1      -43.9270  -16.1300   -8.1340 O.2   301  ASN301     -0.2716
    140  ND2      -43.4650  -15.0200  -10.0310 N.am  301  ASN301     -0.0877
    141  N        -46.9550  -21.7920   -6.5800 N.3   305  TYR305     -0.1241
    142  CA       -48.3830  -21.7820   -6.2680 C.3   305  TYR305      0.1605
    143  C        -48.9350  -23.2100   -6.2380 C.2   305  TYR305      0.2264
    144  O        -49.5340  -23.6250   -5.2460 O.2   305  TYR305     -0.2867
    145  CB       -49.1440  -20.9230   -7.2870 C.3   305  TYR305      0.0534
    146  CG       -50.6150  -20.7220   -6.9800 C.ar  305  TYR305     -0.0201
    147  CD1      -51.0500  -19.6130   -6.2520 C.ar  305  TYR305     -0.0009
    148  CD2      -51.5750  -21.6330   -7.4300 C.ar  305  TYR305     -0.0009
    149  CE1      -52.4020  -19.4200   -5.9710 C.ar  305  TYR305      0.0417
    150  CE2      -52.9260  -21.4500   -7.1540 C.ar  305  TYR305      0.0417
    151  CZ       -53.3330  -20.3430   -6.4250 C.ar  305  TYR305      0.1957
    152  OH       -54.6710  -20.1580   -6.1530 O.3   305  TYR305     -0.2866
@<TRIPOS>BOND
     1    79    78    2
     2   128   129    1
     3    80    77    1
     4    80    81    1
     5    78    77    1
     6    77    76    1
     7   129   132    1
     8   129   130    1
     9   130   131    2
    10    72    71    2
    11    76    71   am
    12    71    70    1
    13    73    70    1
    14    73    74    1
    15    70    69    1
    16   133   134    1
    17    69    66   am
    18    69    75    1
    19    67    66    2
    20   137   134    1
    21   137   138    1
    22   140   138   am
    23    66    65    1
    24    68    65    1
    25    74    75    1
    26   134   135    1
    27   135   136    2
    28   138   139    2
    29    65    64    1
    30     5     2    1
    31    93    92    1
    32    91    92   ar
    33    91    89   ar
    34    64    56   am
    35    92    90   ar
    36    57    56    2
    37   148   150   ar
    38   148   146   ar
    39    89    87   ar
    40   145   146    1
    41   145   142    1
    42   150   151   ar
    43    56    55    1
    44   146   147   ar
    45     2     3    1
    46     2     1    1
    47   141   142    1
    48    60    62   ar
    49    60    59   ar
    50   151   152    1
    51   151   149   ar
    52     3     4    2
    53   142   143    1
    54   147   149   ar
    55   143   144    2
    56    19    18    1
    57    62    63   ar
    58    90    88   ar
    59    87    88   ar
    60    87    86    1
    61    55    58    1
    62    55    54    1
    63    18    15    1
    64    59    58    1
    65    59    61   ar
    66    86    83    1
    67    63    61   ar
    68    54    50   am
    69    51    50    2
    70    83    82    1
    71    83    84    1
    72    50    49    1
    73    36    34    1
    74    15    14    1
    75    15    16    1
    76    14     8   am
    77    34    33    2
    78    34    35    1
    79    53    52    1
    80    84    85    2
    81    84    94   am
    82    33    32    1
    83    16    17    2
    84    49    52    1
    85    49    48    1
    86    31    32    1
    87    31    30    1
    88   105   104    1
    89     6     7    1
    90   104   103   ar
    91   104   102   ar
    92    94    95    1
    93     8     7    1
    94     8     9    2
    95   103   101   ar
    96    30    27    1
    97    10     7    1
    98    10    11    1
    99   102   100   ar
   100   101    99   ar
   101    11    12    1
   102   100    99   ar
   103    99    98    1
   104    95    98    1
   105    95    96    1
   106   127   125    1
   107    27    26    1
   108    27    28    1
   109   126   125    1
   110    26    22   am
   111    24    25    1
   112    24    21    1
   113   116   114   ar
   114   116   115   ar
   115    97    96    2
   116    46    45    1
   117   125   124    2
   118    12    13    1
   119   114   112   ar
   120    28    29    2
   121    22    21    1
   122    22    23    2
   123    20    21    1
   124   115   113   ar
   125    45    47    1
   126    45    44    2
   127    43    44    1
   128    43    42    1
   129   124   123    1
   130    42    41    1
   131    41    38    1
   132   112   111   ar
   133   113   111   ar
   134   123   122    1
   135   111   110    1
   136    38    39    1
   137    38    37    1
   138    39    40    2
   139   122   121    1
   140   110   107    1
   141   106   107    1
   142   107   108    1
   143   121   118    1
   144   108   109    2
   145   118   117    1
   146   118   119    1
   147   120   119    2
