@<TRIPOS>MOLECULE
tmp/4fx9B00.pdb
 101 98 0 0 0
SMALL
GASTEIGER

@<TRIPOS>ATOM
      1  N        -43.4910  -13.8410  -42.7290 N.3   356  ILE356     -0.1231
      2  CA       -44.1250  -12.6700  -43.3370 C.3   356  ILE356      0.1692
      3  C        -43.6500  -11.3520  -42.7210 C.2   356  ILE356      0.2592
      4  O        -43.1110  -11.3320  -41.6120 O.2   356  ILE356     -0.2718
      5  CB       -45.6770  -12.7420  -43.2490 C.3   356  ILE356      0.0266
      6  CG1      -46.1430  -12.7820  -41.7870 C.3   356  ILE356      0.0019
      7  CG2      -46.2080  -13.9410  -44.0230 C.3   356  ILE356      0.0020
      8  CD1      -47.4780  -12.0990  -41.5450 C.3   356  ILE356      0.0001
      9  N        -43.8560  -10.2610  -43.4560 N.am  357  LYS357     -0.1966
     10  CA       -43.5770   -8.9170  -42.9600 C.3   357  LYS357      0.1728
     11  C        -44.8320   -8.0530  -43.0530 C.2   357  LYS357      0.2616
     12  O        -45.5290   -8.0620  -44.0740 O.2   357  LYS357     -0.2715
     13  CB       -42.4340   -8.2750  -43.7490 C.3   357  LYS357      0.0311
     14  CG       -41.9750   -6.9370  -43.1930 C.3   357  LYS357      0.0038
     15  CD       -41.2860   -6.1020  -44.2540 C.3   357  LYS357      0.0206
     16  CE       -41.3800   -4.6260  -43.9150 C.3   357  LYS357      0.1093
     17  NZ       -40.7320   -3.7660  -44.9440 N.3   357  LYS357     -0.1314
     18  N        -45.1130   -7.3120  -41.9830 N.am  358  ALA358     -0.1977
     19  CA       -46.2940   -6.4530  -41.9160 C.3   358  ALA358      0.1597
     20  C        -46.0260   -5.1860  -41.1000 C.2   358  ALA358      0.2287
     21  O        -44.8860   -4.9160  -40.7130 O.2   358  ALA358     -0.2864
     22  CB       -47.4810   -7.2280  -41.3410 C.3   358  ALA358      0.0319
     23  N        -52.7790    4.6550  -43.3720 N.3   364  TYR364     -0.1241
     24  CA       -53.2080    6.0240  -43.0830 C.3   364  TYR364      0.1605
     25  C        -52.5610    6.5030  -41.7850 C.2   364  TYR364      0.2264
     26  O        -51.6640    7.3540  -41.8170 O.2   364  TYR364     -0.2867
     27  CB       -54.7410    6.2020  -43.0730 C.3   364  TYR364      0.0534
     28  CG       -55.5670    4.9690  -42.7500 C.ar  364  TYR364     -0.0201
     29  CD1      -56.2140    4.8390  -41.5200 C.ar  364  TYR364     -0.0009
     30  CD2      -55.7300    3.9460  -43.6900 C.ar  364  TYR364     -0.0009
     31  CE1      -56.9860    3.7120  -41.2280 C.ar  364  TYR364      0.0417
     32  CE2      -56.4920    2.8200  -43.4080 C.ar  364  TYR364      0.0417
     33  CZ       -57.1170    2.7090  -42.1770 C.ar  364  TYR364      0.1957
     34  OH       -57.8690    1.5910  -41.9020 O.3   364  TYR364     -0.2866
     35  N        -59.5080   -4.4680  -33.8210 N.3   421  TYR421     -0.1241
     36  CA       -58.9450   -3.4440  -34.7000 C.3   421  TYR421      0.1605
     37  C        -59.4500   -2.0280  -34.4260 C.2   421  TYR421      0.2264
     38  O        -60.6540   -1.7780  -34.3430 O.2   421  TYR421     -0.2867
     39  CB       -59.1540   -3.7810  -36.1840 C.3   421  TYR421      0.0534
     40  CG       -58.9350   -2.5840  -37.0920 C.ar  421  TYR421     -0.0201
     41  CD1      -60.0070   -1.9570  -37.7280 C.ar  421  TYR421     -0.0009
     42  CD2      -57.6570   -2.0540  -37.2820 C.ar  421  TYR421     -0.0009
     43  CE1      -59.8060   -0.8490  -38.5460 C.ar  421  TYR421      0.0417
     44  CE2      -57.4490   -0.9460  -38.0960 C.ar  421  TYR421      0.0417
     45  CZ       -58.5260   -0.3500  -38.7230 C.ar  421  TYR421      0.1957
     46  OH       -58.3160    0.7440  -39.5270 O.3   421  TYR421     -0.2866
     47  N        -56.0470   -3.5350  -40.0360 N.3   428  VAL428     -0.1231
     48  CA       -57.3330   -4.2300  -40.1790 C.3   428  VAL428      0.1692
     49  C        -57.1810   -5.7510  -40.0970 C.2   428  VAL428      0.2592
     50  O        -57.9660   -6.4250  -39.4260 O.2   428  VAL428     -0.2718
     51  CB       -58.0480   -3.8350  -41.5000 C.3   428  VAL428      0.0266
     52  CG1      -59.4950   -4.3170  -41.5000 C.3   428  VAL428      0.0020
     53  CG2      -58.0000   -2.3270  -41.6980 C.3   428  VAL428      0.0020
     54  N        -56.1750   -6.2770  -40.7890 N.am  429  TRP429     -0.1976
     55  CA       -55.7720   -7.6630  -40.6290 C.3   429  TRP429      0.1640
     56  C        -54.6240   -7.6930  -39.6350 C.2   429  TRP429      0.2290
     57  O        -53.5100   -7.2740  -39.9580 O.2   429  TRP429     -0.2864
     58  CB       -55.2940   -8.2580  -41.9550 C.3   429  TRP429      0.0576
     59  CG       -56.2540   -8.1380  -43.0940 C.ar  429  TRP429      0.0006
     60  CD1      -56.3450   -7.1050  -43.9830 C.ar  429  TRP429      0.0946
     61  CD2      -57.2420   -9.0960  -43.4890 C.ar  429  TRP429      0.0152
     62  NE1      -57.3370   -7.3550  -44.9000 N.ar  429  TRP429     -0.2442
     63  CE2      -57.9020   -8.5710  -44.6220 C.ar  429  TRP429      0.0810
     64  CE3      -57.6370  -10.3440  -42.9930 C.ar  429  TRP429      0.0012
     65  CZ2      -58.9380   -9.2510  -45.2670 C.ar  429  TRP429      0.0191
     66  CZ3      -58.6680  -11.0200  -43.6350 C.ar  429  TRP429      0.0001
     67  CH2      -59.3050  -10.4710  -44.7610 C.ar  429  TRP429      0.0015
     68  N        -52.7950  -12.6730  -40.6370 N.3   434  VAL434     -0.1245
     69  CA       -52.1120  -12.8100  -41.9240 C.3   434  VAL434      0.1561
     70  C        -51.2350  -14.0650  -41.9210 C.2   434  VAL434      0.2260
     71  O        -51.2520  -14.8350  -42.8820 O.2   434  VAL434     -0.2867
     72  CB       -51.2680  -11.5530  -42.2830 C.3   434  VAL434      0.0252
     73  CG1      -50.6140  -11.7110  -43.6510 C.3   434  VAL434      0.0019
     74  CG2      -52.1310  -10.2990  -42.2630 C.3   434  VAL434      0.0019
     75  N        -53.2590  -17.0580  -42.2830 N.3   437  ARG437     -0.1231
     76  CA       -53.7770  -17.1640  -43.6420 C.3   437  ARG437      0.1694
     77  C        -52.6940  -17.5950  -44.6370 C.2   437  ARG437      0.2591
     78  O        -52.9580  -18.4100  -45.5260 O.2   437  ARG437     -0.2718
     79  CB       -54.4240  -15.8450  -44.0740 C.3   437  ARG437      0.0321
     80  CG       -55.0700  -15.8870  -45.4510 C.3   437  ARG437      0.0489
     81  CD       -55.6330  -14.5360  -45.8450 C.3   437  ARG437      0.2205
     82  NE       -56.0200  -14.5120  -47.2540 N.pl3 437  ARG437     -0.0865
     83  CZ       -56.6690  -13.5110  -47.8410 C.cat 437  ARG437      0.5346
     84  NH1      -57.0210  -12.4360  -47.1470 N.pl3 437  ARG437      0.1354
     85  NH2      -56.9710  -13.5890  -49.1290 N.pl3 437  ARG437      0.1354
     86  N        -51.5080  -17.0550  -44.4850 N.am  438  VAL438     -0.1980
     87  CA       -50.4280  -17.3860  -45.3560 C.3   438  VAL438      0.1595
     88  C        -49.9760  -18.7920  -45.0930 C.2   438  VAL438      0.2287
     89  O        -49.3230  -19.3850  -45.9090 O.2   438  VAL438     -0.2864
     90  CB       -49.2870  -16.4410  -45.1550 C.3   438  VAL438      0.0276
     91  CG1      -48.0920  -16.9390  -45.8070 C.3   438  VAL438      0.0022
     92  CG2      -49.6310  -15.1650  -45.6920 C.3   438  VAL438      0.0022
     93  N        -52.1630  -21.4360  -44.1590 N.3   440  LYS440     -0.1245
     94  CA       -53.0550  -22.2230  -44.9560 C.3   440  LYS440      0.1561
     95  C        -53.6580  -23.3800  -44.2420 C.2   440  LYS440      0.2260
     96  O        -53.0750  -23.9480  -43.3710 O.2   440  LYS440     -0.2867
     97  CB       -52.3210  -22.7060  -46.1770 C.3   440  LYS440      0.0271
     98  CG       -52.3340  -21.7450  -47.3320 C.3   440  LYS440      0.0035
     99  CD       -51.6420  -22.3670  -48.5170 C.3   440  LYS440      0.0206
    100  CE       -51.3150  -21.3100  -49.5290 C.3   440  LYS440      0.1093
    101  NZ       -50.3090  -20.3600  -48.9790 N.3   440  LYS440     -0.1314
@<TRIPOS>BOND
     1   100   101    1
     2   100    99    1
     3    85    83    1
     4    99    98    1
     5    83    82    2
     6    83    84    1
     7    98    97    1
     8    82    81    1
     9    97    94    1
    10    89    88    2
    11    81    80    1
    12    91    90    1
    13    92    90    1
    14    78    77    2
    15    80    79    1
    16    87    90    1
    17    87    88    1
    18    87    86    1
    19    65    67   ar
    20    65    63   ar
    21    94    95    1
    22    94    93    1
    23    17    16    1
    24    62    63   ar
    25    62    60   ar
    26    67    66   ar
    27    77    86   am
    28    77    76    1
    29    63    61   ar
    30    15    16    1
    31    15    14    1
    32    95    96    2
    33    12    11    2
    34    79    76    1
    35     7     5    1
    36    60    59   ar
    37    13    14    1
    38    13    10    1
    39    30    32   ar
    40    30    28   ar
    41    73    72    1
    42    76    75    1
    43    66    64   ar
    44    61    59   ar
    45    61    64   ar
    46     9    10    1
    47     9     3   am
    48    32    33   ar
    49    23    24    1
    50     2     5    1
    51     2     1    1
    52     2     3    1
    53     5     6    1
    54    59    58    1
    55    24    27    1
    56    24    25    1
    57    27    28    1
    58    11    10    1
    59    11    18   am
    60    71    70    2
    61    28    29   ar
    62     3     4    2
    63    72    74    1
    64    72    69    1
    65    33    34    1
    66    33    31   ar
    67    18    19    1
    68    58    55    1
    69    69    70    1
    70    69    68    1
    71    19    22    1
    72    19    20    1
    73    26    25    2
    74     6     8    1
    75    53    51    1
    76    29    31   ar
    77    51    52    1
    78    51    48    1
    79    20    21    2
    80    54    55    1
    81    54    49   am
    82    55    56    1
    83    48    49    1
    84    48    47    1
    85    49    50    2
    86    57    56    2
    87    46    45    1
    88    45    43   ar
    89    45    44   ar
    90    43    41   ar
    91    44    42   ar
    92    41    40   ar
    93    42    40   ar
    94    40    39    1
    95    39    36    1
    96    36    37    1
    97    36    35    1
    98    37    38    2
