@<TRIPOS>MOLECULE
tmp/4fxaA00.pdb
 112 108 0 0 0
SMALL
GASTEIGER

@<TRIPOS>ATOM
      1  N         -5.9890  -28.6400  -12.6980 N.3    69  VAL69      -0.1231
      2  CA        -5.0030  -27.6500  -12.0930 C.3    69  VAL69       0.1692
      3  C         -5.3830  -26.2410  -12.5260 C.2    69  VAL69       0.2592
      4  O         -4.4440  -25.3800  -12.6530 O.2    69  VAL69      -0.2718
      5  CB        -3.4980  -27.9390  -12.4690 C.3    69  VAL69       0.0266
      6  CG1       -2.6330  -27.6350  -11.2290 C.3    69  VAL69       0.0020
      7  CG2       -3.2670  -29.5080  -12.8360 C.3    69  VAL69       0.0020
      8  N         -6.6420  -25.9780  -12.8210 N.am   70  TYR70      -0.1962
      9  CA        -7.0700  -24.6380  -13.2180 C.3    70  TYR70       0.1771
     10  C         -7.3540  -23.7960  -11.9980 C.2    70  TYR70       0.2619
     11  O         -8.0320  -24.2120  -11.1030 O.2    70  TYR70      -0.2715
     12  CB        -8.3220  -24.6700  -14.0860 C.3    70  TYR70       0.0574
     13  CG        -8.1600  -25.2390  -15.4710 C.ar   70  TYR70      -0.0198
     14  CD1       -6.9270  -25.3290  -16.0850 C.ar   70  TYR70      -0.0009
     15  CD2       -9.2530  -25.6980  -16.1710 C.ar   70  TYR70      -0.0009
     16  CE1       -6.7830  -25.8600  -17.3270 C.ar   70  TYR70       0.0417
     17  CE2       -9.1160  -26.2310  -17.4190 C.ar   70  TYR70       0.0417
     18  CZ        -7.8750  -26.3050  -17.9910 C.ar   70  TYR70       0.1957
     19  OH        -7.7690  -26.8270  -19.2400 O.3    70  TYR70      -0.2866
     20  N         -6.8390  -22.5840  -11.9690 N.am   71  ILE71      -0.1963
     21  CA        -7.1440  -21.7560  -10.7750 C.3    71  ILE71       0.1727
     22  C         -8.5450  -21.1560  -10.9650 C.2    71  ILE71       0.2616
     23  O         -8.8230  -20.6510  -12.0710 O.2    71  ILE71      -0.2715
     24  CB        -6.1050  -20.5720  -10.7350 C.3    71  ILE71       0.0290
     25  CG1       -4.7890  -21.1490  -10.1650 C.3    71  ILE71       0.0022
     26  CG2       -6.5780  -19.4280   -9.7970 C.3    71  ILE71       0.0023
     27  CD1       -3.5410  -20.1880  -10.3900 C.3    71  ILE71       0.0001
     28  N         -9.3680  -21.2240   -9.9240 N.am   72  MET72      -0.1977
     29  CA       -10.7600  -20.7960  -10.0410 C.3    72  MET72       0.1605
     30  C        -10.9540  -19.3480   -9.4800 C.2    72  MET72       0.2287
     31  O        -11.8320  -18.6150   -9.9530 O.2    72  MET72      -0.2864
     32  CB       -11.6740  -21.7320   -9.2500 C.3    72  MET72       0.0413
     33  CG       -11.7290  -23.2050   -9.7750 C.3    72  MET72       0.0598
     34  SD       -12.5740  -23.1770  -11.3370 S.3    72  MET72      -0.1393
     35  CE       -11.2750  -23.1130  -12.5460 C.3    72  MET72       0.0692
     36  N        -12.8730  -15.9640  -11.4050 N.3    83  PHE83      -0.1241
     37  CA       -13.0050  -15.7620  -12.8260 C.3    83  PHE83       0.1605
     38  C        -14.4630  -15.7170  -13.2360 C.2    83  PHE83       0.2264
     39  O        -15.3360  -16.4110  -12.6340 O.2    83  PHE83      -0.2867
     40  CB       -12.2230  -16.8360  -13.6210 C.3    83  PHE83       0.0534
     41  CG       -10.7210  -16.6600  -13.4980 C.ar   83  PHE83      -0.0203
     42  CD1      -10.1570  -15.4510  -13.9540 C.ar   83  PHE83      -0.0042
     43  CD2       -9.9080  -17.6490  -12.9660 C.ar   83  PHE83      -0.0042
     44  CE1       -8.7780  -15.2040  -13.8350 C.ar   83  PHE83      -0.0003
     45  CE2       -8.5230  -17.4590  -12.8900 C.ar   83  PHE83      -0.0003
     46  CZ        -7.9740  -16.2050  -13.2890 C.ar   83  PHE83      -0.0000
     47  N        -16.4890  -17.2650  -15.3340 N.3    85  GLU85      -0.1245
     48  CA       -16.6930  -18.5050  -16.0840 C.3    85  GLU85       0.1567
     49  C        -17.5050  -19.5090  -15.2500 C.2    85  GLU85       0.2260
     50  O        -17.4730  -19.4920  -14.0630 O.2    85  GLU85      -0.2867
     51  CB       -15.3760  -19.0860  -16.5650 C.3    85  GLU85       0.0388
     52  CG       -14.4770  -19.5450  -15.4560 C.3    85  GLU85       0.1160
     53  CD       -13.0330  -19.8480  -15.8310 C.2    85  GLU85       0.3649
     54  OE1      -12.4880  -19.3450  -16.7560 O.co2  85  GLU85      -0.2457
     55  OE2      -12.3990  -20.6000  -15.1210 O.co2  85  GLU85      -0.2457
     56  N        -10.5640  -17.1320  -17.0350 N.3   109  GLY109     -0.1210
     57  CA        -9.1960  -17.5490  -16.6620 C.3   109  GLY109      0.1956
     58  C         -8.3250  -18.0460  -17.7970 C.2   109  GLY109      0.2612
     59  O         -7.1600  -18.4520  -17.6150 O.2   109  GLY109     -0.2717
     60  N         -8.7890  -18.0140  -19.0180 N.am  110  ASN110     -0.1960
     61  CA        -7.8770  -18.5180  -20.0110 C.3   110  ASN110      0.1819
     62  C         -6.8930  -17.4960  -20.5620 C.2   110  ASN110      0.2621
     63  O         -7.0680  -16.2560  -20.4190 O.2   110  ASN110     -0.2715
     64  CB        -8.5670  -19.1260  -21.1250 C.3   110  ASN110      0.1195
     65  CG        -9.3990  -18.1680  -21.7960 C.2   110  ASN110      0.2630
     66  OD1       -8.9650  -17.4480  -22.7230 O.2   110  ASN110     -0.2716
     67  ND2      -10.6120  -18.1160  -21.3500 N.am  110  ASN110     -0.0877
     68  N         -5.8040  -18.0420  -21.0770 N.am  111  TYR111     -0.1974
     69  CA        -4.6900  -17.1680  -21.3780 C.3   111  TYR111      0.1639
     70  C         -5.0830  -16.0620  -22.3390 C.2   111  TYR111      0.2290
     71  O         -4.6180  -14.9280  -22.1800 O.2   111  TYR111     -0.2864
     72  CB        -3.6670  -18.0260  -22.0120 C.3   111  TYR111      0.0560
     73  CG        -2.8210  -18.7780  -20.9760 C.ar  111  TYR111     -0.0198
     74  CD1       -2.3920  -18.1660  -19.8170 C.ar  111  TYR111     -0.0009
     75  CD2       -2.3300  -20.0790  -21.2520 C.ar  111  TYR111     -0.0009
     76  CE1       -1.4850  -18.8220  -18.8980 C.ar  111  TYR111      0.0417
     77  CE2       -1.4330  -20.7410  -20.3350 C.ar  111  TYR111      0.0417
     78  CZ        -1.0440  -20.1120  -19.1730 C.ar  111  TYR111      0.1957
     79  OH        -0.1800  -20.7220  -18.2770 O.3   111  TYR111     -0.2866
     80  N         -0.3900  -18.2480  -12.5110 N.3   155  ILE155     -0.1245
     81  CA        -0.7530  -19.5520  -13.2040 C.3   155  ILE155      0.1561
     82  C          0.5330  -20.2710  -13.6550 C.2   155  ILE155      0.2260
     83  O          0.6670  -21.4860  -13.3750 O.2   155  ILE155     -0.2867
     84  CB        -1.7040  -19.2890  -14.3560 C.3   155  ILE155      0.0252
     85  CG1       -3.0280  -18.8350  -13.7340 C.3   155  ILE155      0.0019
     86  CG2       -1.7680  -20.5270  -15.3590 C.3   155  ILE155      0.0019
     87  CD1       -3.8850  -18.1480  -14.8500 C.3   155  ILE155      0.0001
     88  N          0.6140  -23.6740  -11.2580 N.3   159  ALA159     -0.1231
     89  CA         0.0230  -24.7750  -12.1640 C.3   159  ALA159      0.1694
     90  C          0.9290  -25.2740  -13.2530 C.2   159  ALA159      0.2591
     91  O          1.1240  -26.5160  -13.3980 O.2   159  ALA159     -0.2718
     92  CB        -1.3460  -24.3220  -12.7320 C.3   159  ALA159      0.0304
     93  N          1.5630  -24.3740  -14.0150 N.am  160  GLU160     -0.1979
     94  CA         2.3210  -24.8120  -15.1490 C.3   160  GLU160      0.1602
     95  C          3.6260  -25.5320  -14.6960 C.2   160  GLU160      0.2287
     96  O          4.0170  -26.5520  -15.3140 O.2   160  GLU160     -0.2864
     97  CB         2.6620  -23.6220  -16.0970 C.3   160  GLU160      0.0415
     98  CG         1.3570  -22.9490  -16.7300 C.3   160  GLU160      0.1163
     99  CD         0.5610  -23.8530  -17.7410 C.2   160  GLU160      0.3649
    100  OE1        0.7800  -25.0830  -17.8250 O.co2 160  GLU160     -0.2457
    101  OE2       -0.3020  -23.2900  -18.4990 O.co2 160  GLU160     -0.2457
    102  N          2.7360  -28.9510  -13.6750 N.3   163  ARG163     -0.1245
    103  CA         2.5450  -29.8490  -14.8300 C.3   163  ARG163      0.1563
    104  C          3.8060  -30.3130  -15.5700 C.2   163  ARG163      0.2260
    105  O          3.7800  -31.3910  -16.2080 O.2   163  ARG163     -0.2867
    106  CB         1.6430  -29.1650  -15.9030 C.3   163  ARG163      0.0307
    107  CG         0.2210  -28.9730  -15.3530 C.3   163  ARG163      0.0489
    108  CD        -0.5060  -28.0100  -16.3960 C.3   163  ARG163      0.2205
    109  NE        -1.9140  -27.7990  -15.9760 N.pl3 163  ARG163     -0.0865
    110  CZ        -2.5260  -26.6350  -16.1500 C.cat 163  ARG163      0.5346
    111  NH1       -1.8030  -25.6130  -16.6350 N.pl3 163  ARG163      0.1354
    112  NH2       -3.7980  -26.4540  -15.8040 N.pl3 163  ARG163      0.1354
@<TRIPOS>BOND
     1    66    65    2
     2    70    71    2
     3    70    69    1
     4    72    69    1
     5    72    73    1
     6    65    67   am
     7    65    64    1
     8    69    68    1
     9    75    73   ar
    10    75    77   ar
    11    64    61    1
    12    68    62   am
    13    73    74   ar
    14    62    63    2
    15    62    61    1
    16    77    78   ar
    17    61    60    1
    18    74    76   ar
    19    19    18    1
    20    78    76   ar
    21    78    79    1
    22    60    58   am
    23   101    99   ar
    24    18    17   ar
    25    18    16   ar
    26   100    99   ar
    27    58    59    2
    28    58    57    1
    29    99    98    1
    30    17    15   ar
    31    16    14   ar
    32    56    57    1
    33    54    53   ar
    34    98    97    1
    35   111   110    1
    36    51    48    1
    37    51    52    1
    38   108   109    1
    39   108   107    1
    40   105   104    2
    41    15    13   ar
    42   110   109    2
    43   110   112    1
    44    97    94    1
    45    14    13   ar
    46    48    47    1
    47    48    49    1
    48   106   107    1
    49   106   103    1
    50    53    52    1
    51    53    55   ar
    52   104   103    1
    53    13    12    1
    54    86    84    1
    55    96    95    2
    56    49    50    2
    57    94    95    1
    58    94    93    1
    59    87    85    1
    60   103   102    1
    61    84    85    1
    62    84    81    1
    63    12     9    1
    64    93    90   am
    65    42    44   ar
    66    42    41   ar
    67    44    46   ar
    68    82    83    2
    69    82    81    1
    70    40    41    1
    71    40    37    1
    72    41    43   ar
    73    91    90    2
    74    46    45   ar
    75    90    89    1
    76    38    37    1
    77    38    39    2
    78     9     8    1
    79     9    10    1
    80    81    80    1
    81    43    45   ar
    82     7     5    1
    83    37    36    1
    84     8     3   am
    85    92    89    1
    86     1     2    1
    87     4     3    2
    88    35    34    1
    89     3     2    1
    90     5     2    1
    91     5     6    1
    92    89    88    1
    93    23    22    2
    94    10    20   am
    95    10    11    2
    96    20    21    1
    97    34    33    1
    98    22    21    1
    99    22    28   am
   100    21    24    1
   101    24    25    1
   102    24    26    1
   103    27    25    1
   104    29    28    1
   105    29    30    1
   106    29    32    1
   107    31    30    2
   108    33    32    1
