@<TRIPOS>MOLECULE
tmp/4fxpB00.pdb
 161 153 0 0 0
SMALL
GASTEIGER

@<TRIPOS>ATOM
      1  N         22.6770   30.5080   30.3730 N.3    34  SER34      -0.1217
      2  CA        22.4040   31.8890   30.7340 C.3    34  SER34       0.1889
      3  C         22.1440   32.7010   29.4620 C.2    34  SER34       0.2288
      4  O         22.8840   32.5890   28.4910 O.2    34  SER34      -0.2866
      5  CB        23.5940   32.4780   31.4880 C.3    34  SER34       0.2089
      6  OG        23.3290   33.8040   31.8950 O.3    34  SER34      -0.2183
      7  N         15.1920   31.6470   29.2320 N.3    38  LYS38      -0.1245
      8  CA        14.4260   30.8450   30.1850 C.3    38  LYS38       0.1561
      9  C         13.4380   31.7080   30.9740 C.2    38  LYS38       0.2260
     10  O         12.2440   31.4270   31.0260 O.2    38  LYS38      -0.2867
     11  CB        15.3670   30.1440   31.1650 C.3    38  LYS38       0.0271
     12  CG        16.2760   29.0970   30.5540 C.3    38  LYS38       0.0035
     13  CD        17.0810   28.3990   31.6530 C.3    38  LYS38       0.0206
     14  CE        17.8360   29.4090   32.5130 C.3    38  LYS38       0.1093
     15  NZ        19.0480   29.9160   31.8030 N.3    38  LYS38      -0.1314
     16  N         15.9940   29.9640   39.4530 N.3    61  GLY61      -0.1210
     17  CA        17.2650   29.6000   40.0490 C.3    61  GLY61       0.1956
     18  C         17.7770   30.6700   40.9760 C.2    61  GLY61       0.2611
     19  O         18.0420   30.4090   42.1510 O.2    61  GLY61      -0.2717
     20  N         17.9280   31.8790   40.4550 N.am   62  ASP62      -0.1973
     21  CA        18.1810   33.0100   41.3270 C.3    62  ASP62       0.1709
     22  C         17.5350   33.2690   42.6770 C.2    62  ASP62       0.2293
     23  O         18.2160   33.6270   43.6250 O.2    62  ASP62      -0.2864
     24  CB        18.8630   34.1670   40.5850 C.3    62  ASP62       0.1436
     25  CG        20.3200   34.3590   41.0120 C.2    62  ASP62       0.3671
     26  OD1       21.0700   33.3590   41.0590 O.co2  62  ASP62      -0.2456
     27  OD2       20.7140   35.5080   41.3180 O.co2  62  ASP62      -0.2456
     28  N         17.8660   30.4280   44.9850 N.3    65  ARG65      -0.1245
     29  CA        19.2420   30.4950   45.4880 C.3    65  ARG65       0.1563
     30  C         19.4260   31.5740   46.5570 C.2    65  ARG65       0.2260
     31  O         20.4540   31.6130   47.2350 O.2    65  ARG65      -0.2867
     32  CB        20.2540   30.6750   44.3440 C.3    65  ARG65       0.0307
     33  CG        20.7170   29.3580   43.7260 C.3    65  ARG65       0.0489
     34  CD        21.8250   29.5910   42.6950 C.3    65  ARG65       0.2205
     35  NE        22.3300   28.3450   42.1170 N.pl3  65  ARG65      -0.0865
     36  CZ        23.3010   27.6230   42.6680 C.cat  65  ARG65       0.5346
     37  NH1       23.8580   28.0160   43.8040 N.pl3  65  ARG65       0.1354
     38  NH2       23.7190   26.5080   42.0930 N.pl3  65  ARG65       0.1354
     39  N         28.3670   27.1130   43.3120 N.3    74  PHE74      -0.1241
     40  CA        28.2740   26.6340   41.9380 C.3    74  PHE74       0.1605
     41  C         29.2480   25.5020   41.6170 C.2    74  PHE74       0.2264
     42  O         29.3950   25.1100   40.4580 O.2    74  PHE74      -0.2867
     43  CB        28.4020   27.7980   40.9500 C.3    74  PHE74       0.0534
     44  CG        27.2550   28.7640   41.0250 C.ar   74  PHE74      -0.0203
     45  CD1       26.1550   28.6270   40.1900 C.ar   74  PHE74      -0.0042
     46  CD2       27.2550   29.7840   41.9630 C.ar   74  PHE74      -0.0042
     47  CE1       25.0890   29.5140   40.2710 C.ar   74  PHE74      -0.0003
     48  CE2       26.1910   30.6700   42.0530 C.ar   74  PHE74      -0.0003
     49  CZ        25.1100   30.5340   41.2150 C.ar   74  PHE74      -0.0000
     50  N         25.5880   22.3780   42.4960 N.3    79  ARG79      -0.1245
     51  CA        24.6140   22.4810   41.4140 C.3    79  ARG79       0.1563
     52  C         23.7220   21.2430   41.4060 C.2    79  ARG79       0.2260
     53  O         22.5160   21.3380   41.1930 O.2    79  ARG79      -0.2867
     54  CB        25.2940   22.6290   40.0490 C.3    79  ARG79       0.0307
     55  CG        25.9910   23.9590   39.8100 C.3    79  ARG79       0.0489
     56  CD        26.4500   24.0080   38.3700 C.3    79  ARG79       0.2205
     57  NE        27.5280   24.9470   38.0890 N.pl3  79  ARG79      -0.0865
     58  CZ        27.3970   26.0260   37.3220 C.cat  79  ARG79       0.5346
     59  NH1       26.2150   26.3210   36.7970 N.pl3  79  ARG79       0.1354
     60  NH2       28.4470   26.8090   37.0810 N.pl3  79  ARG79       0.1354
     61  N         21.3570   21.7710   44.2140 N.3    82  ASN82      -0.1225
     62  CA        20.4200   22.8170   43.8080 C.3    82  ASN82       0.1785
     63  C         19.2820   22.2170   42.9820 C.2    82  ASN82       0.2597
     64  O         18.0990   22.4240   43.2700 O.2    82  ASN82      -0.2718
     65  CB        21.1600   23.8870   42.9960 C.3    82  ASN82       0.1169
     66  CG        20.2750   25.0570   42.6170 C.2    82  ASN82       0.2627
     67  OD1       19.5730   25.6190   43.4570 O.2    82  ASN82      -0.2716
     68  ND2       20.3010   25.4300   41.3400 N.am   82  ASN82      -0.0877
     69  N         19.6490   21.4410   41.9690 N.am   83  ILE83      -0.1980
     70  CA        18.6660   20.8250   41.0840 C.3    83  ILE83       0.1595
     71  C         17.8210   19.7650   41.7910 C.2    83  ILE83       0.2287
     72  O         16.6160   19.6620   41.5510 O.2    83  ILE83      -0.2864
     73  CB        19.3500   20.2290   39.8330 C.3    83  ILE83       0.0276
     74  CG1       19.9850   21.3550   39.0160 C.3    83  ILE83       0.0022
     75  CG2       18.3460   19.4280   39.0040 C.3    83  ILE83       0.0022
     76  CD1       21.1060   20.8810   38.0900 C.3    83  ILE83       0.0001
     77  N         15.9500   26.9470   35.7510 N.3   104  LEU104     -0.1231
     78  CA        17.3140   27.0430   36.2350 C.3   104  LEU104      0.1693
     79  C         18.1550   26.5990   35.0730 C.2   104  LEU104      0.2592
     80  O         17.6730   25.8480   34.2290 O.2   104  LEU104     -0.2718
     81  CB        17.5830   26.0450   37.3570 C.3   104  LEU104      0.0284
     82  CG        16.5320   25.5100   38.3210 C.3   104  LEU104      0.0019
     83  CD1       17.2330   24.5900   39.3230 C.3   104  LEU104      0.0001
     84  CD2       15.8150   26.6360   39.0350 C.3   104  LEU104      0.0001
     85  N         19.4160   27.0160   35.0410 N.am  105  ILE105     -0.1966
     86  CA        20.3080   26.5400   33.9880 C.3   105  ILE105      0.1727
     87  C         20.2860   25.0160   33.9670 C.2   105  ILE105      0.2617
     88  O         20.2320   24.4030   32.8950 O.2   105  ILE105     -0.2715
     89  CB        21.7590   27.0310   34.1900 C.3   105  ILE105      0.0290
     90  CG1       21.8170   28.5580   34.1680 C.3   105  ILE105      0.0022
     91  CG2       22.6620   26.4500   33.1050 C.3   105  ILE105      0.0023
     92  CD1       23.2280   29.1380   34.3680 C.3   105  ILE105      0.0001
     93  N         20.3710   24.3870   35.1410 N.am  106  SER106     -0.1936
     94  CA        20.3010   22.9260   35.2800 C.3   106  SER106      0.2040
     95  C         21.1760   22.2630   34.2470 C.2   106  SER106      0.2485
     96  O         20.6770   21.5850   33.4190 O.2   106  SER106     -0.2729
     97  CB        18.8380   22.3980   35.2440 C.3   106  SER106      0.2129
     98  OG        18.0840   22.8880   34.1840 O.3   106  SER106     -0.2179
     99  N         22.4680   22.5080   34.2720 N.am  107  PRO107     -0.2726
    100  CA        23.3330   22.1710   33.1390 C.3   107  PRO107      0.1402
    101  C         23.6180   20.6810   33.0230 C.2   107  PRO107      0.2269
    102  O         24.0470   20.2410   31.9590 O.2   107  PRO107     -0.2865
    103  CB        24.6280   22.9220   33.4590 C.3   107  PRO107      0.0296
    104  CG        24.6500   22.9790   34.9580 C.3   107  PRO107      0.0237
    105  CD        23.2140   23.1320   35.3840 C.3   107  PRO107      0.0939
    106  N         22.8240   40.3110   31.5330 N.3   142  LYS142     -0.1245
    107  CA        23.2750   40.5780   32.8980 C.3   142  LYS142      0.1561
    108  C         24.7570   40.9510   32.9600 C.2   142  LYS142      0.2260
    109  O         25.2730   41.2990   34.0230 O.2   142  LYS142     -0.2867
    110  CB        22.9860   39.3830   33.8150 C.3   142  LYS142      0.0271
    111  CG        21.5470   38.8830   33.7500 C.3   142  LYS142      0.0035
    112  CD        20.9860   38.5580   35.1350 C.3   142  LYS142      0.0206
    113  CE        21.7120   37.3890   35.7920 C.3   142  LYS142      0.1093
    114  NZ        21.1950   37.0980   37.1650 N.3   142  LYS142     -0.1314
    115  N         27.0930   38.9040   32.4310 N.3   144  LEU144     -0.1245
    116  CA        27.7740   37.7380   32.9880 C.3   144  LEU144      0.1561
    117  C         28.8340   37.1220   32.0760 C.2   144  LEU144      0.2260
    118  O         29.8840   36.6950   32.5500 O.2   144  LEU144     -0.2867
    119  CB        26.7570   36.6690   33.4110 C.3   144  LEU144      0.0270
    120  CG        25.8030   37.0200   34.5490 C.3   144  LEU144      0.0019
    121  CD1       24.7660   35.9180   34.7160 C.3   144  LEU144      0.0001
    122  CD2       26.5710   37.2330   35.8370 C.3   144  LEU144      0.0001
    123  N         34.4500   35.4750   36.8690 N.3   153  ILE153     -0.1231
    124  CA        33.6060   34.3760   37.3060 C.3   153  ILE153      0.1692
    125  C         34.2000   33.0790   36.7870 C.2   153  ILE153      0.2592
    126  O         34.1610   32.8100   35.5860 O.2   153  ILE153     -0.2718
    127  CB        32.1580   34.5170   36.7990 C.3   153  ILE153      0.0266
    128  CG1       31.5590   35.8450   37.2600 C.3   153  ILE153      0.0019
    129  CG2       31.3040   33.3370   37.2640 C.3   153  ILE153      0.0020
    130  CD1       30.1930   36.1300   36.6790 C.3   153  ILE153      0.0001
    131  N         34.7710   32.2890   37.6890 N.am  154  LYS154     -0.1966
    132  CA        35.3360   31.0040   37.3150 C.3   154  LYS154      0.1728
    133  C         34.2100   29.9970   37.1150 C.2   154  LYS154      0.2617
    134  O         33.1420   30.1110   37.7170 O.2   154  LYS154     -0.2715
    135  CB        36.2910   30.5010   38.3980 C.3   154  LYS154      0.0311
    136  CG        37.4460   31.4450   38.6960 C.3   154  LYS154      0.0038
    137  CD        38.4260   31.5010   37.5430 C.3   154  LYS154      0.0206
    138  CE        39.5600   32.4770   37.8390 C.3   154  LYS154      0.1093
    139  NZ        40.1720   32.2300   39.1740 N.3   154  LYS154     -0.1314
    140  N         34.4570   29.0100   36.2670 N.am  155  GLY155     -0.1940
    141  CA        33.5110   27.9290   36.0570 C.3   155  GLY155      0.2014
    142  C         32.1300   28.3590   35.6070 C.2   155  GLY155      0.2639
    143  O         31.1360   27.7710   36.0170 O.2   155  GLY155     -0.2714
    144  N         32.0530   29.3750   34.7550 N.am  156  PHE156     -0.1959
    145  CA        30.7520   29.8120   34.2600 C.3   156  PHE156      0.1771
    146  C         30.2270   28.8670   33.1730 C.2   156  PHE156      0.2620
    147  O         30.9520   28.5130   32.2510 O.2   156  PHE156     -0.2715
    148  CB        30.8160   31.2500   33.7450 C.3   156  PHE156      0.0574
    149  CG        29.4660   31.8490   33.4720 C.ar  156  PHE156     -0.0200
    150  CD1       28.6730   32.3000   34.5170 C.ar  156  PHE156     -0.0042
    151  CD2       28.9790   31.9460   32.1740 C.ar  156  PHE156     -0.0042
    152  CE1       27.4280   32.8510   34.2760 C.ar  156  PHE156     -0.0003
    153  CE2       27.7340   32.4980   31.9250 C.ar  156  PHE156     -0.0003
    154  CZ        26.9550   32.9510   32.9850 C.ar  156  PHE156     -0.0000
    155  N         28.9660   28.4600   33.3000 N.am  157  THR157     -0.1951
    156  CA        28.3430   27.5150   32.3710 C.3   157  THR157      0.1897
    157  C         28.4550   27.9470   30.9120 C.2   157  THR157      0.2313
    158  O         28.0780   29.0630   30.5550 O.2   157  THR157     -0.2863
    159  CB        26.8470   27.2960   32.7130 C.3   157  THR157      0.1794
    160  OG1       26.7250   26.8720   34.0730 O.3   157  THR157     -0.2208
    161  CG2       26.2310   26.2480   31.8130 C.3   157  THR157      0.0378
@<TRIPOS>BOND
     1     4     3    2
     2     7     8    1
     3     3     2    1
     4     8     9    1
     5     8    11    1
     6     1     2    1
     7    12    11    1
     8    12    13    1
     9   158   157    2
    10     2     5    1
    11   157   156    1
    12     9    10    2
    13     5     6    1
    14   106   107    1
    15    13    14    1
    16    15    14    1
    17   161   159    1
    18   153   151   ar
    19   153   154   ar
    20   102   101    2
    21   117   118    2
    22   117   116    1
    23   151   149   ar
    24   147   146    2
    25   156   159    1
    26   156   155    1
    27   115   116    1
    28   159   160    1
    29    88    87    2
    30   107   108    1
    31   107   110    1
    32   108   109    2
    33   154   152   ar
    34   116   119    1
    35   101   100    1
    36    91    89    1
    37   100   103    1
    38   100    99    1
    39   146   155   am
    40   146   145    1
    41   119   120    1
    42    96    95    2
    43   103   104    1
    44   149   148    1
    45   149   150   ar
    46   148   145    1
    47   111   110    1
    48   111   112    1
    49    87    86    1
    50    87    93   am
    51    86    89    1
    52    86    85    1
    53    90    89    1
    54    90    92    1
    55    98    97    1
    56    80    79    2
    57    95    99   am
    58    95    94    1
    59   145   144    1
    60    99   105    1
    61   152   150   ar
    62   120   121    1
    63   120   122    1
    64   144   142   am
    65   104   105    1
    66    85    79   am
    67    79    78    1
    68   112   113    1
    69    93    94    1
    70    97    94    1
    71   126   125    2
    72   142   143    2
    73   142   141    1
    74    77    78    1
    75   113   114    1
    76   141   140    1
    77    78    81    1
    78   140   133   am
    79   130   128    1
    80   125   124    1
    81   125   131   am
    82    59    58    1
    83   127   128    1
    84   127   129    1
    85   127   124    1
    86   123   124    1
    87    60    58    1
    88   133   132    1
    89   133   134    2
    90   132   131    1
    91   132   135    1
    92    58    57    2
    93    81    82    1
    94   137   138    1
    95   137   136    1
    96   138   139    1
    97    57    56    1
    98    76    74    1
    99    82    84    1
   100    82    83    1
   101    56    55    1
   102   135   136    1
   103    75    73    1
   104    74    73    1
   105    16    17    1
   106    55    54    1
   107    73    70    1
   108    17    18    1
   109    54    51    1
   110    45    47   ar
   111    45    44   ar
   112    47    49   ar
   113    20    18   am
   114    20    21    1
   115    42    41    2
   116    24    25    1
   117    24    21    1
   118    43    44    1
   119    43    40    1
   120    18    19    2
   121    25    26   ar
   122    25    27   ar
   123    44    46   ar
   124    70    71    1
   125    70    69    1
   126    53    52    2
   127    49    48   ar
   128    21    22    1
   129    68    66   am
   130    52    51    1
   131    51    50    1
   132    72    71    2
   133    41    40    1
   134    40    39    1
   135    46    48   ar
   136    69    63   am
   137    38    36    1
   138    35    36    2
   139    35    34    1
   140    66    65    1
   141    66    67    2
   142    36    37    1
   143    22    23    2
   144    34    33    1
   145    63    64    2
   146    63    62    1
   147    65    62    1
   148    33    32    1
   149    62    61    1
   150    32    29    1
   151    28    29    1
   152    29    30    1
   153    30    31    2
