@<TRIPOS>MOLECULE
tmp/4fxqB00.pdb
 145 141 0 0 0
SMALL
GASTEIGER

@<TRIPOS>ATOM
      1  N        -35.8970 -117.1310    0.9980 N.3   262  THR262     -0.1203
      2  CA       -35.1690 -118.0840    0.1660 C.3   262  THR262      0.1994
      3  C        -33.9110 -118.6030    0.8570 C.2   262  THR262      0.2618
      4  O        -33.2180 -119.4710    0.3200 O.2   262  THR262     -0.2717
      5  CB       -34.7230 -117.4750   -1.1870 C.3   262  THR262      0.1784
      6  OG1      -33.7120 -116.4850   -0.9600 O.3   262  THR262     -0.2211
      7  CG2      -35.9090 -116.8350   -1.9360 C.3   262  THR262      0.0376
      8  N        -33.6050 -118.0420    2.0200 N.am  263  GLY263     -0.1956
      9  CA       -32.4600 -118.4590    2.8190 C.3   263  GLY263      0.1869
     10  C        -32.8730 -119.0410    4.1630 C.2   263  GLY263      0.2309
     11  O        -33.6570 -119.9920    4.2380 O.2   263  GLY263     -0.2863
     12  N        -36.6630 -119.6800    5.4710 N.3   266  TYR266     -0.1227
     13  CA       -37.5490 -120.6350    4.7880 C.3   266  TYR266      0.1736
     14  C        -38.2450 -121.6390    5.7310 C.2   266  TYR266      0.2595
     15  O        -39.4760 -121.7230    5.7640 O.2   266  TYR266     -0.2718
     16  CB       -36.8100 -121.3860    3.6730 C.3   266  TYR266      0.0548
     17  CG       -37.6820 -122.2970    2.8320 C.ar  266  TYR266     -0.0200
     18  CD1      -37.9340 -123.6110    3.2250 C.ar  266  TYR266     -0.0009
     19  CD2      -38.2380 -121.8600    1.6340 C.ar  266  TYR266     -0.0009
     20  CE1      -38.7130 -124.4480    2.4460 C.ar  266  TYR266      0.0417
     21  CE2      -39.0360 -122.7010    0.8510 C.ar  266  TYR266      0.0417
     22  CZ       -39.2610 -123.9940    1.2700 C.ar  266  TYR266      0.1957
     23  OH       -40.0510 -124.8390    0.5230 O.3   266  TYR266     -0.2866
     24  N        -37.4550 -122.4010    6.4780 N.am  267  ASP267     -0.1974
     25  CA       -37.9790 -123.4950    7.2940 C.3   267  ASP267      0.1709
     26  C        -38.8780 -123.0380    8.4490 C.2   267  ASP267      0.2293
     27  O        -39.9410 -123.6120    8.6520 O.2   267  ASP267     -0.2864
     28  CB       -36.8440 -124.3820    7.8230 C.3   267  ASP267      0.1436
     29  CG       -36.3580 -125.3840    6.7900 C.2   267  ASP267      0.3671
     30  OD1      -37.1280 -125.6940    5.8620 O.co2 267  ASP267     -0.2456
     31  OD2      -35.2110 -125.8630    6.9030 O.co2 267  ASP267     -0.2456
     32  N        -42.3220 -125.8210  -11.8920 N.3   322  TYR322     -0.1227
     33  CA       -41.7250 -127.1040  -11.5440 C.3   322  TYR322      0.1736
     34  C        -41.2200 -127.0960  -10.1100 C.2   322  TYR322      0.2595
     35  O        -40.6980 -126.0890   -9.6360 O.2   322  TYR322     -0.2718
     36  CB       -40.5540 -127.4060  -12.4840 C.3   322  TYR322      0.0548
     37  CG       -40.9910 -127.5770  -13.9180 C.ar  322  TYR322     -0.0200
     38  CD1      -41.4530 -128.8050  -14.3800 C.ar  322  TYR322     -0.0009
     39  CD2      -40.9790 -126.5020  -14.8060 C.ar  322  TYR322     -0.0009
     40  CE1      -41.8710 -128.9710  -15.6930 C.ar  322  TYR322      0.0417
     41  CE2      -41.4050 -126.6640  -16.1320 C.ar  322  TYR322      0.0417
     42  CZ       -41.8440 -127.8960  -16.5630 C.ar  322  TYR322      0.1957
     43  OH       -42.2580 -128.0580  -17.8680 O.3   322  TYR322     -0.2866
     44  N        -41.3670 -128.2180   -9.4250 N.am  323  ARG323     -0.1966
     45  CA       -40.9070 -128.3000   -8.0500 C.3   323  ARG323      0.1729
     46  C        -40.4490 -129.7100   -7.7140 C.2   323  ARG323      0.2616
     47  O        -41.1840 -130.6780   -7.9330 O.2   323  ARG323     -0.2715
     48  CB       -42.0220 -127.8320   -7.1130 C.3   323  ARG323      0.0348
     49  CG       -41.7170 -127.8830   -5.6130 C.3   323  ARG323      0.0492
     50  CD       -42.9140 -127.2870   -4.8540 C.3   323  ARG323      0.2205
     51  NE       -43.0520 -127.7780   -3.4840 N.pl3 323  ARG323     -0.0865
     52  CZ       -42.5290 -127.1910   -2.4130 C.cat 323  ARG323      0.5346
     53  NH1      -41.8000 -126.0920   -2.5400 N.pl3 323  ARG323      0.1354
     54  NH2      -42.7290 -127.7060   -1.2020 N.pl3 323  ARG323      0.1354
     55  N        -39.2280 -129.8390   -7.2000 N.am  324  ARG324     -0.1963
     56  CA       -38.7370 -131.1560   -6.7700 C.3   324  ARG324      0.1729
     57  C        -39.0100 -131.3660   -5.2880 C.2   324  ARG324      0.2616
     58  O        -38.7510 -130.4680   -4.4780 O.2   324  ARG324     -0.2715
     59  CB       -37.2350 -131.2720   -7.0090 C.3   324  ARG324      0.0348
     60  CG       -36.8460 -131.4830   -8.4700 C.3   324  ARG324      0.0492
     61  CD       -37.0550 -132.9410   -8.8580 C.3   324  ARG324      0.2205
     62  NE       -36.7450 -133.1930  -10.2640 N.pl3 324  ARG324     -0.0865
     63  CZ       -36.7120 -134.4060  -10.8020 C.cat 324  ARG324      0.5346
     64  NH1      -36.9630 -135.4660  -10.0450 N.pl3 324  ARG324      0.1354
     65  NH2      -36.4260 -134.5590  -12.0910 N.pl3 324  ARG324      0.1354
     66  N        -39.4970 -132.5570   -4.9400 N.am  325  VAL325     -0.1977
     67  CA       -39.8590 -132.8910   -3.5680 C.3   325  VAL325      0.1596
     68  C        -39.5470 -134.3610   -3.3260 C.2   325  VAL325      0.2287
     69  O        -39.2660 -135.1110   -4.2660 O.2   325  VAL325     -0.2864
     70  CB       -41.3770 -132.6590   -3.2900 C.3   325  VAL325      0.0276
     71  CG1      -41.7520 -131.1800   -3.4710 C.3   325  VAL325      0.0022
     72  CG2      -42.2360 -133.5600   -4.1770 C.3   325  VAL325      0.0022
     73  N        -42.6170 -122.4280   -3.0760 N.3   369  SER369     -0.1202
     74  CA       -41.4740 -122.1440   -3.9460 C.3   369  SER369      0.2020
     75  C        -41.4050 -123.1610   -5.0830 C.2   369  SER369      0.2619
     76  O        -41.3350 -124.3710   -4.8460 O.2   369  SER369     -0.2717
     77  CB       -40.1570 -122.2260   -3.1540 C.3   369  SER369      0.2103
     78  OG       -40.1730 -121.3290   -2.0700 O.3   369  SER369     -0.2182
     79  N        -41.3700 -122.6480   -6.3100 N.am  370  THR370     -0.1938
     80  CA       -41.2630 -123.4600   -7.4930 C.3   370  THR370      0.2028
     81  C        -40.2620 -122.7940   -8.4490 C.2   370  THR370      0.2642
     82  O        -39.9300 -121.6210   -8.3010 O.2   370  THR370     -0.2714
     83  CB       -42.6090 -123.5420   -8.2140 C.3   370  THR370      0.1808
     84  OG1      -42.9280 -122.2440   -8.7270 O.3   370  THR370     -0.2208
     85  CG2      -43.7390 -124.0160   -7.2550 C.3   370  THR370      0.0379
     86  N        -39.8110 -123.5530   -9.4360 N.am  371  SER371     -0.1949
     87  CA       -38.9390 -123.0180  -10.4830 C.3   371  SER371      0.1924
     88  C        -39.7380 -122.7580  -11.7540 C.2   371  SER371      0.2314
     89  O        -40.6250 -123.5280  -12.1160 O.2   371  SER371     -0.2863
     90  CB       -37.7980 -124.0000  -10.7770 C.3   371  SER371      0.2116
     91  OG       -36.8770 -124.0710   -9.6940 O.3   371  SER371     -0.2180
     92  N        -32.0450 -128.7750   -6.0520 N.3   380  TYR380     -0.1241
     93  CA       -33.3400 -129.4170   -6.2690 C.3   380  TYR380      0.1605
     94  C        -33.3700 -130.0090   -7.6610 C.2   380  TYR380      0.2264
     95  O        -33.8310 -129.3840   -8.6110 O.2   380  TYR380     -0.2867
     96  CB       -34.4810 -128.4140   -6.1060 C.3   380  TYR380      0.0534
     97  CG       -34.3060 -127.5340   -4.8980 C.ar  380  TYR380     -0.0201
     98  CD1      -34.0240 -126.1870   -5.0450 C.ar  380  TYR380     -0.0009
     99  CD2      -34.3840 -128.0580   -3.6140 C.ar  380  TYR380     -0.0009
    100  CE1      -33.8430 -125.3740   -3.9550 C.ar  380  TYR380      0.0417
    101  CE2      -34.2000 -127.2510   -2.5090 C.ar  380  TYR380      0.0417
    102  CZ       -33.9340 -125.9060   -2.6900 C.ar  380  TYR380      0.1957
    103  OH       -33.7520 -125.0760   -1.6030 O.3   380  TYR380     -0.2866
    104  N        -33.9240 -135.7920   -5.5840 N.3   385  TYR385     -0.1241
    105  CA       -35.3690 -135.8530   -5.3420 C.3   385  TYR385      0.1605
    106  C        -36.1070 -136.7400   -6.3520 C.2   385  TYR385      0.2264
    107  O        -36.0460 -136.4910   -7.5550 O.2   385  TYR385     -0.2867
    108  CB       -35.9460 -134.4440   -5.3700 C.3   385  TYR385      0.0534
    109  CG       -35.4940 -133.5650   -4.2250 C.ar  385  TYR385     -0.0201
    110  CD1      -36.1420 -133.6070   -2.9970 C.ar  385  TYR385     -0.0009
    111  CD2      -34.4300 -132.6860   -4.3740 C.ar  385  TYR385     -0.0009
    112  CE1      -35.7430 -132.7970   -1.9480 C.ar  385  TYR385      0.0417
    113  CE2      -34.0220 -131.8690   -3.3330 C.ar  385  TYR385      0.0417
    114  CZ       -34.6810 -131.9280   -2.1220 C.ar  385  TYR385      0.1957
    115  OH       -34.2750 -131.1170   -1.0800 O.3   385  TYR385     -0.2866
    116  N        -30.5490 -117.5070   -4.1260 N.3   408  TYR408     -0.1241
    117  CA       -30.1600 -118.4760   -5.1670 C.3   408  TYR408      0.1605
    118  C        -30.8370 -118.1680   -6.5060 C.2   408  TYR408      0.2264
    119  O        -31.8210 -118.8000   -6.8750 O.2   408  TYR408     -0.2867
    120  CB       -30.4760 -119.9200   -4.7340 C.3   408  TYR408      0.0534
    121  CG       -29.8700 -120.2750   -3.4030 C.ar  408  TYR408     -0.0201
    122  CD1      -28.5340 -120.6600   -3.3070 C.ar  408  TYR408     -0.0009
    123  CD2      -30.6280 -120.2100   -2.2380 C.ar  408  TYR408     -0.0009
    124  CE1      -27.9740 -120.9680   -2.0850 C.ar  408  TYR408      0.0417
    125  CE2      -30.0750 -120.4990   -1.0190 C.ar  408  TYR408      0.0417
    126  CZ       -28.7470 -120.8840   -0.9480 C.ar  408  TYR408      0.1957
    127  OH       -28.2000 -121.1860    0.2730 O.3   408  TYR408     -0.2866
    128  N        -32.0420 -120.6540   -9.3060 N.3   411  GLN411     -0.1245
    129  CA       -33.2100 -121.5310   -9.1680 C.3   411  GLN411      0.1566
    130  C        -34.4090 -121.0050   -9.9560 C.2   411  GLN411      0.2260
    131  O        -35.4300 -121.6930  -10.0470 O.2   411  GLN411     -0.2867
    132  CB       -33.5710 -121.7490   -7.6750 C.3   411  GLN411      0.0367
    133  CG       -32.4600 -122.5000   -6.9410 C.3   411  GLN411      0.0905
    134  CD       -32.5660 -122.4520   -5.4360 C.2   411  GLN411      0.2608
    135  OE1      -33.4930 -121.8550   -4.8670 O.2   411  GLN411     -0.2717
    136  NE2      -31.5970 -123.0850   -4.7700 N.am  411  GLN411     -0.0878
    137  N        -36.7410 -118.9210   -9.2310 N.3   413  GLU413     -0.1245
    138  CA       -37.9130 -119.1810   -8.3790 C.3   413  GLU413      0.1567
    139  C        -39.1340 -118.3240   -8.6910 C.2   413  GLU413      0.2260
    140  O        -39.0390 -117.0820   -8.7580 O.2   413  GLU413     -0.2867
    141  CB       -37.5580 -119.0920   -6.8880 C.3   413  GLU413      0.0388
    142  CG       -38.7940 -119.2940   -5.9670 C.3   413  GLU413      0.1160
    143  CD       -38.4450 -119.4310   -4.4990 C.2   413  GLU413      0.3649
    144  OE1      -39.3940 -119.4170   -3.6920 O.co2 413  GLU413     -0.2457
    145  OE2      -37.2470 -119.5550   -4.1470 O.co2 413  GLU413     -0.2457
@<TRIPOS>BOND
     1    43    42    1
     2    42    41   ar
     3    42    40   ar
     4    41    39   ar
     5    40    38   ar
     6    39    37   ar
     7    38    37   ar
     8    37    36    1
     9    36    33    1
    10    89    88    2
    11    65    63    1
    12    32    33    1
    13    88    87    1
    14    33    34    1
    15    63    62    2
    16    63    64    1
    17    90    87    1
    18    90    91    1
    19    87    86    1
    20    62    61    1
    21    34    35    2
    22    34    44   am
    23   131   130    2
    24   130   129    1
    25    86    81   am
    26    44    45    1
    27   128   129    1
    28   137   138    1
    29   129   132    1
    30    61    60    1
    31   140   139    2
    32    84    83    1
    33   139   138    1
    34    95    94    2
    35    60    59    1
    36    81    82    2
    37    81    80    1
    38   138   141    1
    39    83    80    1
    40    83    85    1
    41    45    46    1
    42    45    48    1
    43    47    46    2
    44    46    55   am
    45   132   133    1
    46    94    93    1
    47   107   106    2
    48    80    79    1
    49    55    56    1
    50    48    49    1
    51    59    56    1
    52   133   134    1
    53   141   142    1
    54   119   118    2
    55    56    57    1
    56   118   117    1
    57   106   105    1
    58    79    75   am
    59    93    96    1
    60    93    92    1
    61    96    97    1
    62   142   143    1
    63    49    50    1
    64   104   105    1
    65   134   135    2
    66   134   136   am
    67   108   105    1
    68   108   109    1
    69    57    66   am
    70    57    58    2
    71   117   120    1
    72   117   116    1
    73    75    76    2
    74    75    74    1
    75    98    97   ar
    76    98   100   ar
    77    66    67    1
    78    97    99   ar
    79    50    51    1
    80   120   121    1
    81   143   145   ar
    82   143   144   ar
    83   111   109   ar
    84   111   113   ar
    85    69    68    2
    86   109   110   ar
    87    72    70    1
    88   100   102   ar
    89    74    77    1
    90    74    73    1
    91    99   101   ar
    92    67    68    1
    93    67    70    1
    94    51    52    2
    95    71    70    1
    96   121   122   ar
    97   121   123   ar
    98   113   114   ar
    99   122   124   ar
   100    77    78    1
   101   110   112   ar
   102   102   101   ar
   103   102   103    1
   104    53    52    1
   105    52    54    1
   106   123   125   ar
   107   114   112   ar
   108   114   115    1
   109   124   126   ar
   110     7     5    1
   111     5     6    1
   112     5     2    1
   113   125   126   ar
   114   126   127    1
   115     2     3    1
   116     2     1    1
   117     4     3    2
   118    23    22    1
   119    21    22   ar
   120    21    19   ar
   121     3     8   am
   122    22    20   ar
   123    19    17   ar
   124     8     9    1
   125    20    18   ar
   126     9    10    1
   127    17    18   ar
   128    17    16    1
   129    16    13    1
   130    10    11    2
   131    13    12    1
   132    13    14    1
   133    14    15    2
   134    14    24   am
   135    30    29   ar
   136    24    25    1
   137    29    31   ar
   138    29    28    1
   139    25    28    1
   140    25    26    1
   141    26    27    2
