@<TRIPOS>MOLECULE
tmp/4fxsA00.pdb
 177 164 0 0 0
SMALL
GASTEIGER

@<TRIPOS>ATOM
      1  N         15.5610   26.6040   23.0820 N.3    45  ALA45      -0.1231
      2  CA        16.7450   25.7490   23.2800 C.3    45  ALA45       0.1694
      3  C         17.9860   26.2890   22.6350 C.2    45  ALA45       0.2592
      4  O         17.9260   26.9150   21.5460 O.2    45  ALA45      -0.2718
      5  CB        16.4530   24.3800   22.6570 C.3    45  ALA45       0.0304
      6  N         19.1340   25.9780   23.2180 N.am   46  SER46      -0.1952
      7  CA        20.3640   26.4630   22.6270 C.3    46  SER46       0.1924
      8  C         20.8880   25.4690   21.5800 C.2    46  SER46       0.2314
      9  O         21.8760   24.7530   21.7990 O.2    46  SER46      -0.2863
     10  CB        21.4060   26.7090   23.7140 C.3    46  SER46       0.2116
     11  OG        21.6290   25.4590   24.3980 O.3    46  SER46      -0.2180
     12  N         25.3670   24.7360   29.7670 N.3   226  ASP226     -0.1239
     13  CA        24.4750   23.6460   29.4170 C.3   226  ASP226      0.1674
     14  C         25.3020   22.3690   29.3250 C.2   226  ASP226      0.2266
     15  O         26.3420   22.3730   28.7080 O.2   226  ASP226     -0.2867
     16  CB        23.7630   23.9310   28.0670 C.3   226  ASP226      0.1410
     17  CG        22.3400   23.3310   28.0200 C.2   226  ASP226      0.3668
     18  OD1       22.0190   22.6260   29.0150 O.co2 226  ASP226     -0.2456
     19  OD2       21.5230   23.5560   27.0600 O.co2 226  ASP226     -0.2456
     20  N         24.9380   17.6820   29.3890 N.3   228  SER228     -0.1217
     21  CA        24.0870   16.5080   29.4200 C.3   228  SER228      0.1889
     22  C         24.1900   15.9790   30.8250 C.2   228  SER228      0.2288
     23  O         23.4490   15.0840   31.1940 O.2   228  SER228     -0.2866
     24  CB        24.5540   15.4450   28.4200 C.3   228  SER228      0.2089
     25  OG        25.9460   15.2340   28.5930 O.3   228  SER228     -0.2183
     26  N         22.0360   20.0710   32.9220 N.3   255  ASN255     -0.1240
     27  CA        20.6960   19.6700   33.3820 C.3   255  ASN255      0.1653
     28  C         20.7700   18.6700   34.4790 C.2   255  ASN255      0.2266
     29  O         21.6670   17.8190   34.4840 O.2   255  ASN255     -0.2867
     30  CB        19.9180   19.0750   32.2000 C.3   255  ASN255      0.1155
     31  CG        19.3580   20.1300   31.2950 C.2   255  ASN255      0.2627
     32  OD1       19.7890   21.3090   31.3370 O.2   255  ASN255     -0.2716
     33  ND2       18.3520   19.7450   30.4820 N.am  255  ASN255     -0.0877
     34  N         18.1830   24.1180   35.5430 N.3   274  LYS274     -0.1245
     35  CA        17.5310   23.5830   34.3640 C.3   274  LYS274      0.1561
     36  C         17.3780   22.0620   34.4560 C.2   274  LYS274      0.2260
     37  O         18.3210   21.3450   34.7300 O.2   274  LYS274     -0.2867
     38  CB        18.1860   24.0340   33.0740 C.3   274  LYS274      0.0271
     39  CG        17.3070   23.7520   31.8420 C.3   274  LYS274      0.0035
     40  CD        17.5970   24.7240   30.6970 C.3   274  LYS274      0.0206
     41  CE        18.9960   24.5310   30.0630 C.3   274  LYS274      0.1093
     42  NZ        19.2230   23.1120   29.6290 N.3   274  LYS274     -0.1314
     43  N         16.1880   18.2990   33.0610 N.3   276  GLY276     -0.1225
     44  CA        15.7300   17.2910   32.0770 C.3   276  GLY276      0.1811
     45  C         16.8700   16.4110   31.6590 C.2   276  GLY276      0.2280
     46  O         17.8440   16.8780   31.0690 O.2   276  GLY276     -0.2866
     47  N         17.0960   13.2980   29.4340 N.3   278  GLY278     -0.1225
     48  CA        16.5370   12.3340   28.4940 C.3   278  GLY278      0.1811
     49  C         15.1290   12.5680   27.9420 C.2   278  GLY278      0.2280
     50  O         14.6890   11.7670   27.1340 O.2   278  GLY278     -0.2866
     51  N         14.0620   14.7940   25.8610 N.3   280  GLY280     -0.1210
     52  CA        13.9530   15.5470   24.5980 C.3   280  GLY280      0.1956
     53  C         13.4700   14.7250   23.3880 C.2   280  GLY280      0.2613
     54  O         13.8710   13.5670   23.1850 O.2   280  GLY280     -0.2717
     55  N         12.6820   15.3510   22.5240 N.am  281  SER281     -0.1938
     56  CA        12.1910   14.6620   21.2980 C.3   281  SER281      0.2055
     57  C         13.3050   13.9310   20.5270 C.2   281  SER281      0.2643
     58  O         13.1130   12.8110   20.0750 O.2   281  SER281     -0.2714
     59  CB        11.5010   15.6500   20.3650 C.3   281  SER281      0.2130
     60  OG        12.4460   16.6590   19.9870 O.3   281  SER281     -0.2179
     61  N         14.4520   14.5810   20.3580 N.am  282  ILE282     -0.1963
     62  CA        15.5220   14.0410   19.5470 C.3   282  ILE282      0.1727
     63  C         16.5770   13.2630   20.3770 C.2   282  ILE282      0.2616
     64  O         17.6480   12.9310   19.8900 O.2   282  ILE282     -0.2715
     65  CB        16.2140   15.1820   18.7150 C.3   282  ILE282      0.0290
     66  CG1       16.4180   16.4550   19.5290 C.3   282  ILE282      0.0022
     67  CG2       15.3830   15.5190   17.4740 C.3   282  ILE282      0.0023
     68  CD1       17.1190   16.2380   20.8780 C.3   282  ILE282      0.0001
     69  N         16.2590   12.9730   21.6280 N.am  283  CYS283     -0.1968
     70  CA        17.2200   12.4120   22.5820 C.3   283  CYS283      0.1712
     71  C         17.1870   10.9090   22.5310 C.2   283  CYS283      0.2296
     72  O         16.0880   10.3240   22.5580 O.2   283  CYS283     -0.2864
     73  CB        16.7810   12.7890   23.9980 C.3   283  CYS283      0.0983
     74  SG        17.9840   12.3680   25.2660 S.3   283  CYS283     -0.0798
     75  N         19.4660    9.3800   24.8550 N.3   285  THR285     -0.1218
     76  CA        20.2260    9.0660   26.0660 C.3   285  THR285      0.1862
     77  C         19.6230    7.9000   26.8280 C.2   285  THR285      0.2287
     78  O         20.3290    6.9650   27.2110 O.2   285  THR285     -0.2866
     79  CB        20.3360   10.3060   26.9770 C.3   285  THR285      0.1770
     80  OG1       20.9950   11.3300   26.2410 O.3   285  THR285     -0.2211
     81  CG2       21.1680   10.0140   28.2300 C.3   285  THR285      0.0375
     82  N         13.1460   21.5400   30.7850 N.3   316  ASP316     -0.1225
     83  CA        13.8090   21.5000   29.4550 C.3   316  ASP316      0.1805
     84  C         13.6770   20.1210   28.7920 C.2   316  ASP316      0.2598
     85  O         14.3490   19.1860   29.2140 O.2   316  ASP316     -0.2718
     86  CB        15.3090   21.8090   29.6630 C.3   316  ASP316      0.1424
     87  CG        16.1260   21.7230   28.3860 C.2   316  ASP316      0.3668
     88  OD1       15.5010   21.8170   27.3070 O.co2 316  ASP316     -0.2456
     89  OD2       17.3980   21.5150   28.4650 O.co2 316  ASP316     -0.2456
     90  N         12.8360   20.0150   27.7660 N.am  317  GLY317     -0.1942
     91  CA        12.7330   18.8260   26.9660 C.3   317  GLY317      0.2014
     92  C         11.3960   18.1130   27.1160 C.2   317  GLY317      0.2639
     93  O         10.7960   18.1140   28.1800 O.2   317  GLY317     -0.2714
     94  N         10.9050   17.5140   26.0340 N.am  318  GLY318     -0.1939
     95  CA         9.7510   16.6380   26.1700 C.3   318  GLY318      0.2014
     96  C          8.4600   17.4280   26.0850 C.2   318  GLY318      0.2639
     97  O          7.4100   16.8100   26.2170 O.2   318  GLY318     -0.2714
     98  N          8.5020   18.7630   25.8380 N.am  319  ILE319     -0.1963
     99  CA         7.2470   19.5220   25.6950 C.3   319  ILE319      0.1727
    100  C          6.7410   19.3190   24.2770 C.2   319  ILE319      0.2616
    101  O          7.4430   19.6430   23.3460 O.2   319  ILE319     -0.2715
    102  CB         7.4740   21.0160   25.9150 C.3   319  ILE319      0.0290
    103  CG1        8.0160   21.2830   27.3570 C.3   319  ILE319      0.0022
    104  CG2        6.2190   21.8100   25.6000 C.3   319  ILE319      0.0023
    105  CD1        6.9930   21.1250   28.4800 C.3   319  ILE319      0.0001
    106  N          5.5390   18.7730   24.0950 N.am  320  ARG320     -0.1977
    107  CA         5.0820   18.4560   22.7270 C.3   320  ARG320      0.1597
    108  C          3.8280   19.2530   22.3840 C.2   320  ARG320      0.2287
    109  O          3.6480   19.5800   21.2570 O.2   320  ARG320     -0.2864
    110  CB         4.7080   16.9800   22.5950 C.3   320  ARG320      0.0334
    111  CG         5.8750   16.0250   22.7450 C.3   320  ARG320      0.0492
    112  CD         5.3970   14.7240   23.3780 C.3   320  ARG320      0.2205
    113  NE         4.5720   15.0540   24.5690 N.pl3 320  ARG320     -0.0865
    114  CZ         3.7330   14.2240   25.2090 C.cat 320  ARG320      0.5346
    115  NH1        3.5700   12.9390   24.8170 N.pl3 320  ARG320      0.1354
    116  NH2        3.0030   14.6920   26.2190 N.pl3 320  ARG320      0.1354
    117  N         12.0470   24.9950   25.1630 N.3   337  VAL337     -0.1231
    118  CA        11.5990   24.1700   24.0040 C.3   337  VAL337      0.1692
    119  C         12.5120   24.1850   22.7850 C.2   337  VAL337      0.2593
    120  O         13.0800   25.2320   22.4360 O.2   337  VAL337     -0.2718
    121  CB        10.1860   24.5230   23.5300 C.3   337  VAL337      0.0266
    122  CG1        9.1740   24.1820   24.6220 C.3   337  VAL337      0.0020
    123  CG2       10.0840   26.0100   23.1530 C.3   337  VAL337      0.0020
    124  N         12.6830   23.0010   22.1770 N.am  338  GLY338     -0.1942
    125  CA        13.3710   22.8150   20.8730 C.3   338  GLY338      0.2014
    126  C         12.3770   22.5470   19.7390 C.2   338  GLY338      0.2639
    127  O         12.0310   23.4610   18.9750 O.2   338  GLY338     -0.2714
    128  N         11.8750   21.3030   19.6370 N.am  339  SER339     -0.1949
    129  CA        11.0330   20.9440   18.5260 C.3   339  SER339      0.1924
    130  C          9.8580   21.8890   18.3940 C.2   339  SER339      0.2314
    131  O          9.4370   22.1380   17.2960 O.2   339  SER339     -0.2863
    132  CB        10.5090   19.5220   18.6440 C.3   339  SER339      0.2116
    133  OG         9.6320   19.4820   19.7080 O.3   339  SER339     -0.2180
    134  N         16.0250   19.4610   12.0850 N.3   361  TYR361     -0.1227
    135  CA        16.0960   19.5500   13.5300 C.3   361  TYR361      0.1736
    136  C         16.9630   18.3990   14.0490 C.2   361  TYR361      0.2595
    137  O         16.6820   17.2340   13.7760 O.2   361  TYR361     -0.2718
    138  CB        14.7010   19.5180   14.1290 C.3   361  TYR361      0.0548
    139  CG        14.6890   19.5990   15.6470 C.ar  361  TYR361     -0.0200
    140  CD1       15.3910   20.6000   16.3100 C.ar  361  TYR361     -0.0009
    141  CD2       13.9720   18.6440   16.4250 C.ar  361  TYR361     -0.0009
    142  CE1       15.3990   20.6670   17.7020 C.ar  361  TYR361      0.0417
    143  CE2       13.9680   18.7040   17.8170 C.ar  361  TYR361      0.0417
    144  CZ        14.6900   19.7260   18.4540 C.ar  361  TYR361      0.1957
    145  OH        14.6820   19.8160   19.8300 O.3   361  TYR361     -0.2866
    146  N         18.0210   18.7160   14.7890 N.am  362  ARG362     -0.1966
    147  CA        18.9200   17.6580   15.2580 C.3   362  ARG362      0.1729
    148  C         19.3700   17.8210   16.7220 C.2   362  ARG362      0.2616
    149  O         19.5450   18.9420   17.2200 O.2   362  ARG362     -0.2715
    150  CB        20.1380   17.5690   14.3300 C.3   362  ARG362      0.0348
    151  CG        20.9830   18.8250   14.3400 C.3   362  ARG362      0.0492
    152  CD        22.1210   18.6960   13.3380 C.3   362  ARG362      0.2205
    153  NE        23.0820   19.7890   13.4790 N.pl3 362  ARG362     -0.0865
    154  CZ        24.1240   19.9490   12.6690 C.cat 362  ARG362      0.5346
    155  NH1       24.9620   20.9650   12.8540 N.pl3 362  ARG362      0.1354
    156  NH2       24.3350   19.0820   11.6730 N.pl3 362  ARG362      0.1354
    157  N         19.5500   16.7030   17.4090 N.am  363  GLY363     -0.1955
    158  CA        20.1700   16.7110   18.7340 C.3   363  GLY363      0.1869
    159  C         21.5230   17.4050   18.6670 C.2   363  GLY363      0.2309
    160  O         22.2360   17.2860   17.6540 O.2   363  GLY363     -0.2863
    161  N         23.7680   16.4810   20.3900 N.3   364  GLY364     -0.1225
    162  CA        24.6560   15.3550   20.6210 C.3   364  GLY364      0.1811
    163  C         24.5640   14.3530   19.4820 C.2   364  GLY364      0.2280
    164  O         25.0940   13.2430   19.5980 O.2   364  GLY364     -0.2866
    165  N         24.0680   10.5790   21.2980 N.3   386  GLU386     -0.1231
    166  CA        22.9150   10.4700   22.2030 C.3   386  GLU386      0.1699
    167  C         21.7660   11.3650   21.7460 C.2   386  GLU386      0.2592
    168  O         20.8960   11.7780   22.5130 O.2   386  GLU386     -0.2718
    169  CB        23.3660   10.8100   23.6190 C.3   386  GLU386      0.0402
    170  CG        24.4100    9.8020   24.0910 C.3   386  GLU386      0.1161
    171  CD        24.8090    9.9340   25.5500 C.2   386  GLU386      0.3649
    172  OE1       25.8990    9.4360   25.8760 O.co2 386  GLU386     -0.2457
    173  OE2       24.0380   10.5070   26.3690 O.co2 386  GLU386     -0.2457
    174  N         21.7740   11.6140   20.4500 N.am  387  GLY387     -0.1957
    175  CA        20.8110   12.4500   19.7590 C.3   387  GLY387      0.1869
    176  C         20.7110   11.9770   18.3110 C.2   387  GLY387      0.2309
    177  O         21.6480   11.3420   17.7900 O.2   387  GLY387     -0.2863
@<TRIPOS>BOND
     1   156   154    1
     2   134   135    1
     3   154   155    1
     4   154   153    2
     5   152   153    1
     6   152   151    1
     7   135   136    1
     8   135   138    1
     9   137   136    2
    10   136   146   am
    11   138   139    1
    12   150   151    1
    13   150   147    1
    14   146   147    1
    15   147   148    1
    16   139   140   ar
    17   139   141   ar
    18   140   142   ar
    19   141   143   ar
    20   148   149    2
    21   148   157   am
    22   131   130    2
    23   157   158    1
    24    67    65    1
    25   160   159    2
    26   142   144   ar
    27   177   176    2
    28   143   144   ar
    29   176   175    1
    30   130   129    1
    31   144   145    1
    32   129   132    1
    33   129   128    1
    34   132   133    1
    35   159   158    1
    36    65    66    1
    37    65    62    1
    38   127   126    2
    39   163   164    2
    40   163   162    1
    41    66    68    1
    42    62    61    1
    43    62    63    1
    44   128   126   am
    45   126   125    1
    46   175   174    1
    47    64    63    2
    48    60    59    1
    49    58    57    2
    50    61    57   am
    51    59    56    1
    52    63    69   am
    53   161   162    1
    54   174   167   am
    55    57    56    1
    56   125   124    1
    57   109   108    2
    58    56    55    1
    59   165   166    1
    60     4     3    2
    61     8     9    2
    62     8     7    1
    63    69    70    1
    64   167   166    1
    65   167   168    2
    66   124   119   am
    67   166   169    1
    68   108   107    1
    69   120   119    2
    70    55    53   am
    71    71    72    2
    72    71    70    1
    73    70    73    1
    74   110   107    1
    75   110   111    1
    76     7     6    1
    77     7    10    1
    78     3     6   am
    79     3     2    1
    80     5     2    1
    81   107   106    1
    82   111   112    1
    83   119   118    1
    84     1     2    1
    85   123   121    1
    86    54    53    2
    87   101   100    2
    88   112   113    1
    89    53    52    1
    90   121   118    1
    91   121   122    1
    92   169   170    1
    93    10    11    1
    94    73    74    1
    95   118   117    1
    96   170   171    1
    97   106   100   am
    98   100    99    1
    99   113   114    2
   100    52    51    1
   101   115   114    1
   102    75    76    1
   103   114   116    1
   104   171   172   ar
   105   171   173   ar
   106   104   102    1
   107    99    98    1
   108    99   102    1
   109    98    96   am
   110   102   103    1
   111    94    95    1
   112    94    92   am
   113    76    77    1
   114    76    79    1
   115    96    95    1
   116    96    97    2
   117    80    79    1
   118    77    78    2
   119    91    92    1
   120    91    90    1
   121    79    81    1
   122    19    17   ar
   123    92    93    2
   124    50    49    2
   125    88    87   ar
   126   103   105    1
   127    90    84   am
   128    49    48    1
   129    17    16    1
   130    17    18   ar
   131    16    13    1
   132    87    89   ar
   133    87    86    1
   134    24    25    1
   135    24    21    1
   136    48    47    1
   137    15    14    2
   138    84    85    2
   139    84    83    1
   140    14    13    1
   141    20    21    1
   142    13    12    1
   143    21    22    1
   144    83    86    1
   145    83    82    1
   146    42    41    1
   147    41    40    1
   148    33    31   am
   149    40    39    1
   150    22    23    2
   151    46    45    2
   152    31    32    2
   153    31    30    1
   154    45    44    1
   155    39    38    1
   156    44    43    1
   157    30    27    1
   158    26    27    1
   159    38    35    1
   160    27    28    1
   161    35    36    1
   162    35    34    1
   163    36    37    2
   164    28    29    2
