@<TRIPOS>MOLECULE
tmp/4fxsA01.pdb
 104 94 0 0 0
SMALL
GASTEIGER

@<TRIPOS>ATOM
      1  N         19.1340   25.9780   23.2180 N.3    46  SER46      -0.1217
      2  CA        20.3640   26.4630   22.6270 C.3    46  SER46       0.1889
      3  C         20.8880   25.4690   21.5800 C.2    46  SER46       0.2288
      4  O         21.8760   24.7530   21.7990 O.2    46  SER46      -0.2866
      5  CB        21.4060   26.7090   23.7140 C.3    46  SER46       0.2089
      6  OG        21.6290   25.4590   24.3980 O.3    46  SER46      -0.2183
      7  N         26.2420   27.4510   20.9310 N.3    69  LYS69      -0.1245
      8  CA        27.7030   27.5860   20.9940 C.3    69  LYS69       0.1561
      9  C         28.4400   26.9400   19.8170 C.2    69  LYS69       0.2260
     10  O         29.6590   26.9230   19.8000 O.2    69  LYS69      -0.2867
     11  CB        28.2180   26.9550   22.2990 C.3    69  LYS69       0.0271
     12  CG        28.1830   25.4260   22.3300 C.3    69  LYS69       0.0035
     13  CD        28.8400   24.8910   23.5950 C.3    69  LYS69       0.0206
     14  CE        29.4960   23.5230   23.3780 C.3    69  LYS69       0.1093
     15  NZ        28.5450   22.4190   23.7010 N.3    69  LYS69      -0.1314
     16  N         25.3670   24.7360   29.7670 N.3   226  ASP226     -0.1225
     17  CA        24.4750   23.6460   29.4170 C.3   226  ASP226      0.1805
     18  C         25.3020   22.3690   29.3250 C.2   226  ASP226      0.2598
     19  O         26.3420   22.3730   28.7080 O.2   226  ASP226     -0.2718
     20  CB        23.7630   23.9310   28.0670 C.3   226  ASP226      0.1424
     21  CG        22.3400   23.3310   28.0200 C.2   226  ASP226      0.3668
     22  OD1       22.0190   22.6260   29.0150 O.co2 226  ASP226     -0.2456
     23  OD2       21.5230   23.5560   27.0600 O.co2 226  ASP226     -0.2456
     24  N         24.8300   21.2840   29.9410 N.am  227  SER227     -0.1938
     25  CA        25.5150   19.9830   29.8920 C.3   227  SER227      0.2055
     26  C         24.5310   18.8190   29.9350 C.2   227  SER227      0.2643
     27  O         23.4420   18.9350   30.4890 O.2   227  SER227     -0.2714
     28  CB        26.4250   19.8130   31.1020 C.3   227  SER227      0.2130
     29  OG        27.1260   18.5640   31.0220 O.3   227  SER227     -0.2179
     30  N         24.9380   17.6820   29.3890 N.am  228  SER228     -0.1949
     31  CA        24.0870   16.5080   29.4200 C.3   228  SER228      0.1924
     32  C         24.1900   15.9790   30.8250 C.2   228  SER228      0.2314
     33  O         23.4490   15.0840   31.1940 O.2   228  SER228     -0.2863
     34  CB        24.5540   15.4450   28.4200 C.3   228  SER228      0.2116
     35  OG        25.9460   15.2340   28.5930 O.3   228  SER228     -0.2180
     36  N         22.0360   20.0710   32.9220 N.3   255  ASN255     -0.1240
     37  CA        20.6960   19.6700   33.3820 C.3   255  ASN255      0.1653
     38  C         20.7700   18.6700   34.4790 C.2   255  ASN255      0.2266
     39  O         21.6670   17.8190   34.4840 O.2   255  ASN255     -0.2867
     40  CB        19.9180   19.0750   32.2000 C.3   255  ASN255      0.1155
     41  CG        19.3580   20.1300   31.2950 C.2   255  ASN255      0.2627
     42  OD1       19.7890   21.3090   31.3370 O.2   255  ASN255     -0.2716
     43  ND2       18.3520   19.7450   30.4820 N.am  255  ASN255     -0.0877
     44  N         16.1880   18.2990   33.0610 N.3   276  GLY276     -0.1210
     45  CA        15.7300   17.2910   32.0770 C.3   276  GLY276      0.1956
     46  C         16.8700   16.4110   31.6590 C.2   276  GLY276      0.2612
     47  O         17.8440   16.8780   31.0690 O.2   276  GLY276     -0.2717
     48  N         16.7940   15.1460   32.0090 N.am  277  ILE277     -0.1965
     49  CA        17.7930   14.2050   31.5620 C.3   277  ILE277      0.1727
     50  C         17.0000   13.1710   30.7590 C.2   277  ILE277      0.2617
     51  O         16.2350   12.3550   31.3330 O.2   277  ILE277     -0.2715
     52  CB        18.5080   13.5530   32.7100 C.3   277  ILE277      0.0290
     53  CG1       19.3340   14.6380   33.4980 C.3   277  ILE277      0.0022
     54  CG2       19.4530   12.4240   32.1990 C.3   277  ILE277      0.0023
     55  CD1       20.5960   15.0760   32.7460 C.3   277  ILE277      0.0001
     56  N         17.0960   13.2980   29.4340 N.am  278  GLY278     -0.1941
     57  CA        16.5370   12.3340   28.4940 C.3   278  GLY278      0.1998
     58  C         15.1290   12.5680   27.9420 C.2   278  GLY278      0.2480
     59  O         14.6890   11.7670   27.1340 O.2   278  GLY278     -0.2729
     60  N         14.4180   13.6650   28.3250 N.am  279  PRO279     -0.2726
     61  CA        13.0530   13.6360   27.8080 C.3   279  PRO279      0.1402
     62  C         12.9730   14.2620   26.3900 C.2   279  PRO279      0.2269
     63  O         11.9190   14.2750   25.7890 O.2   279  PRO279     -0.2865
     64  CB        12.2860   14.5200   28.7930 C.3   279  PRO279      0.0296
     65  CG        13.3360   15.5890   29.1370 C.3   279  PRO279      0.0237
     66  CD        14.5850   14.7440   29.3300 C.3   279  PRO279      0.0939
     67  N         16.2590   12.9730   21.6280 N.3   283  CYS283     -0.1235
     68  CA        17.2200   12.4120   22.5820 C.3   283  CYS283      0.1677
     69  C         17.1870   10.9090   22.5310 C.2   283  CYS283      0.2270
     70  O         16.0880   10.3240   22.5580 O.2   283  CYS283     -0.2867
     71  CB        16.7810   12.7890   23.9980 C.3   283  CYS283      0.0956
     72  SG        17.9840   12.3680   25.2660 S.3   283  CYS283     -0.0801
     73  N         19.4660    9.3800   24.8550 N.3   285  THR285     -0.1218
     74  CA        20.2260    9.0660   26.0660 C.3   285  THR285      0.1862
     75  C         19.6230    7.9000   26.8280 C.2   285  THR285      0.2287
     76  O         20.3290    6.9650   27.2110 O.2   285  THR285     -0.2866
     77  CB        20.3360   10.3060   26.9770 C.3   285  THR285      0.1770
     78  OG1       20.9950   11.3300   26.2410 O.3   285  THR285     -0.2211
     79  CG2       21.1680   10.0140   28.2300 C.3   285  THR285      0.0375
     80  N         13.1460   21.5400   30.7850 N.3   316  ASP316     -0.1239
     81  CA        13.8090   21.5000   29.4550 C.3   316  ASP316      0.1674
     82  C         13.6770   20.1210   28.7920 C.2   316  ASP316      0.2266
     83  O         14.3490   19.1860   29.2140 O.2   316  ASP316     -0.2867
     84  CB        15.3090   21.8090   29.6630 C.3   316  ASP316      0.1410
     85  CG        16.1260   21.7230   28.3860 C.2   316  ASP316      0.3668
     86  OD1       15.5010   21.8170   27.3070 O.co2 316  ASP316     -0.2456
     87  OD2       17.3980   21.5150   28.4650 O.co2 316  ASP316     -0.2456
     88  N         19.5500   16.7030   17.4090 N.3   363  GLY363     -0.1225
     89  CA        20.1700   16.7110   18.7340 C.3   363  GLY363      0.1811
     90  C         21.5230   17.4050   18.6670 C.2   363  GLY363      0.2280
     91  O         22.2360   17.2860   17.6540 O.2   363  GLY363     -0.2866
     92  N         23.7680   16.4810   20.3900 N.3   364  GLY364     -0.1225
     93  CA        24.6560   15.3550   20.6210 C.3   364  GLY364      0.1811
     94  C         24.5640   14.3530   19.4820 C.2   364  GLY364      0.2280
     95  O         25.0940   13.2430   19.5980 O.2   364  GLY364     -0.2866
     96  N         24.0680   10.5790   21.2980 N.3   386  GLU386     -0.1245
     97  CA        22.9150   10.4700   22.2030 C.3   386  GLU386      0.1567
     98  C         21.7660   11.3650   21.7460 C.2   386  GLU386      0.2260
     99  O         20.8960   11.7780   22.5130 O.2   386  GLU386     -0.2867
    100  CB        23.3660   10.8100   23.6190 C.3   386  GLU386      0.0388
    101  CG        24.4100    9.8020   24.0910 C.3   386  GLU386      0.1160
    102  CD        24.8090    9.9340   25.5500 C.2   386  GLU386      0.3649
    103  OE1       25.8990    9.4360   25.8760 O.co2 386  GLU386     -0.2457
    104  OE2       24.0380   10.5070   26.3690 O.co2 386  GLU386     -0.2457
@<TRIPOS>BOND
     1    88    89    1
     2    91    90    2
     3    90    89    1
     4    94    95    2
     5    94    93    1
     6    10     9    2
     7     9     8    1
     8    92    93    1
     9     7     8    1
    10     8    11    1
    11    96    97    1
    12     3     4    2
    13     3     2    1
    14    67    68    1
    15    98    97    1
    16    98    99    2
    17    97   100    1
    18    11    12    1
    19    12    13    1
    20    69    70    2
    21    69    68    1
    22    68    71    1
    23     2     1    1
    24     2     5    1
    25    14    13    1
    26    14    15    1
    27   100   101    1
    28     5     6    1
    29    71    72    1
    30   101   102    1
    31    73    74    1
    32   102   103   ar
    33   102   104   ar
    34    63    62    2
    35    74    75    1
    36    74    77    1
    37    78    77    1
    38    62    61    1
    39    75    76    2
    40    77    79    1
    41    23    21   ar
    42    59    58    2
    43    86    85   ar
    44    61    60    1
    45    61    64    1
    46    58    60   am
    47    58    57    1
    48    21    20    1
    49    21    22   ar
    50    20    17    1
    51    60    66    1
    52    85    87   ar
    53    85    84    1
    54    34    35    1
    55    34    31    1
    56    57    56    1
    57    19    18    2
    58    82    83    2
    59    82    81    1
    60    64    65    1
    61    65    66    1
    62    18    17    1
    63    18    24   am
    64    30    31    1
    65    30    26   am
    66    17    16    1
    67    31    32    1
    68    56    50   am
    69    81    84    1
    70    81    80    1
    71    25    26    1
    72    25    24    1
    73    25    28    1
    74    26    27    2
    75    43    41   am
    76    50    51    2
    77    50    49    1
    78    32    33    2
    79    29    28    1
    80    47    46    2
    81    41    42    2
    82    41    40    1
    83    49    48    1
    84    49    52    1
    85    46    48   am
    86    46    45    1
    87    45    44    1
    88    54    52    1
    89    40    37    1
    90    52    53    1
    91    55    53    1
    92    36    37    1
    93    37    38    1
    94    38    39    2
