@<TRIPOS>MOLECULE
tmp/4fxyA00.pdb
 210 198 0 0 0
SMALL
GASTEIGER

@<TRIPOS>ATOM
      1  N         45.1780    4.7770   33.6220 N.3    31  THR31      -0.1218
      2  CA        44.7660    4.7590   35.0170 C.3    31  THR31       0.1862
      3  C         44.5610    6.1890   35.5080 C.2    31  THR31       0.2287
      4  O         43.6670    6.4580   36.3130 O.2    31  THR31      -0.2866
      5  CB        45.8060    4.0560   35.9060 C.3    31  THR31       0.1770
      6  OG1       46.2250    2.8270   35.2930 O.3    31  THR31      -0.2211
      7  CG2       45.2250    3.7690   37.2800 C.3    31  THR31       0.0375
      8  N         41.1220    8.2790   37.4620 N.3    35  TYR35      -0.1241
      9  CA        41.2630    9.1870   38.5950 C.3    35  TYR35       0.1605
     10  C         40.7790   10.5820   38.2140 C.2    35  TYR35       0.2264
     11  O         40.0360   11.2230   38.9590 O.2    35  TYR35      -0.2867
     12  CB        42.7300    9.2690   39.0220 C.3    35  TYR35       0.0534
     13  CG        43.1830    8.2060   40.0010 C.ar   35  TYR35      -0.0201
     14  CD1       43.4580    6.9130   39.5790 C.ar   35  TYR35      -0.0009
     15  CD2       43.3640    8.5080   41.3450 C.ar   35  TYR35      -0.0009
     16  CE1       43.8840    5.9440   40.4730 C.ar   35  TYR35       0.0417
     17  CE2       43.7900    7.5450   42.2460 C.ar   35  TYR35       0.0417
     18  CZ        44.0480    6.2670   41.8050 C.ar   35  TYR35       0.1957
     19  OH        44.4720    5.3070   42.6960 O.3    35  TYR35      -0.2866
     20  N         36.6480    2.8830   40.5690 N.3    55  LEU55      -0.1245
     21  CA        37.9270    2.8960   41.2620 C.3    55  LEU55       0.1561
     22  C         38.4250    1.4690   41.4700 C.2    55  LEU55       0.2260
     23  O         39.6100    1.1790   41.3010 O.2    55  LEU55      -0.2867
     24  CB        37.7970    3.6210   42.6040 C.3    55  LEU55       0.0270
     25  CG        38.5700    4.9320   42.7650 C.3    55  LEU55       0.0019
     26  CD1       38.6240    5.7050   41.4540 C.3    55  LEU55       0.0001
     27  CD2       37.9530    5.7880   43.8640 C.3    55  LEU55       0.0001
     28  N         39.4470   -0.2450   37.9900 N.3    58  ILE58      -0.1231
     29  CA        40.7420    0.1740   37.4710 C.3    58  ILE58       0.1692
     30  C         41.8660   -0.3510   38.3620 C.2    58  ILE58       0.2591
     31  O         43.0020   -0.4960   37.9150 O.2    58  ILE58      -0.2718
     32  CB        40.8320    1.7170   37.3120 C.3    58  ILE58       0.0266
     33  CG1       41.9480    2.0990   36.3350 C.3    58  ILE58       0.0019
     34  CG2       41.0230    2.4010   38.6620 C.3    58  ILE58       0.0020
     35  CD1       41.7130    1.6150   34.9190 C.3    58  ILE58       0.0001
     36  N         41.5360   -0.6550   39.6150 N.am   59  GLU59      -0.1979
     37  CA        42.5160   -1.1870   40.5580 C.3    59  GLU59       0.1602
     38  C         42.8900   -2.6260   40.2030 C.2    59  GLU59       0.2287
     39  O         44.0510   -3.0190   40.3200 O.2    59  GLU59      -0.2864
     40  CB        41.9940   -1.1080   41.9980 C.3    59  GLU59       0.0415
     41  CG        43.0830   -1.2860   43.0580 C.3    59  GLU59       0.1163
     42  CD        42.5490   -1.2550   44.4810 C.2    59  GLU59       0.3649
     43  OE1       43.3220   -1.5640   45.4140 O.co2  59  GLU59      -0.2457
     44  OE2       41.3620   -0.9180   44.6700 O.co2  59  GLU59      -0.2457
     45  N         44.8270   -2.3970   36.9140 N.3    62  TYR62      -0.1227
     46  CA        46.1640   -1.8900   37.1930 C.3    62  TYR62       0.1736
     47  C         47.0750   -3.0100   37.6770 C.2    62  TYR62       0.2595
     48  O         48.1720   -3.2010   37.1600 O.2    62  TYR62      -0.2718
     49  CB        46.1030   -0.7760   38.2430 C.3    62  TYR62       0.0548
     50  CG        47.4510   -0.1830   38.5780 C.ar   62  TYR62      -0.0200
     51  CD1       48.0100    0.8060   37.7830 C.ar   62  TYR62      -0.0009
     52  CD2       48.1680   -0.6120   39.6890 C.ar   62  TYR62      -0.0009
     53  CE1       49.2470    1.3510   38.0830 C.ar   62  TYR62       0.0417
     54  CE2       49.4050   -0.0740   39.9940 C.ar   62  TYR62       0.0417
     55  CZ        49.9390    0.9080   39.1890 C.ar   62  TYR62       0.1957
     56  OH        51.1680    1.4440   39.4950 O.3    62  TYR62      -0.2866
     57  N         46.6000   -3.7430   38.6760 N.am   63  ILE63      -0.1980
     58  CA        47.3880   -4.7790   39.3390 C.3    63  ILE63       0.1595
     59  C         47.8840   -5.8770   38.3880 C.2    63  ILE63       0.2287
     60  O         49.0570   -6.2560   38.4270 O.2    63  ILE63      -0.2864
     61  CB        46.5990   -5.3880   40.5170 C.3    63  ILE63       0.0276
     62  CG1       46.6110   -4.4220   41.7030 C.3    63  ILE63       0.0022
     63  CG2       47.1670   -6.7420   40.9240 C.3    63  ILE63       0.0022
     64  CD1       45.7010   -4.8280   42.8400 C.3    63  ILE63       0.0001
     65  N         50.3430   -4.5680   35.7450 N.3    66  ARG66      -0.1245
     66  CA        51.5810   -4.1780   36.4070 C.3    66  ARG66       0.1563
     67  C         52.4920   -5.3850   36.5780 C.2    66  ARG66       0.2260
     68  O         53.7120   -5.2730   36.4730 O.2    66  ARG66      -0.2867
     69  CB        51.2870   -3.5540   37.7730 C.3    66  ARG66       0.0307
     70  CG        52.2500   -2.4450   38.1870 C.3    66  ARG66       0.0489
     71  CD        52.6910   -2.6130   39.6340 C.3    66  ARG66       0.2205
     72  NE        52.6910   -1.3540   40.3760 N.pl3  66  ARG66      -0.0865
     73  CZ        53.7790   -0.7840   40.8860 C.cat  66  ARG66       0.5346
     74  NH1       54.9640   -1.3600   40.7410 N.pl3  66  ARG66       0.1354
     75  NH2       53.6830    0.3620   41.5470 N.pl3  66  ARG66       0.1354
     76  N         54.4460    7.0070   39.8840 N.3    95  PHE95      -0.1227
     77  CA        53.0470    7.2350   39.5510 C.3    95  PHE95       0.1736
     78  C         52.1260    6.9930   40.7440 C.2    95  PHE95       0.2595
     79  O         51.0700    7.6190   40.8550 O.2    95  PHE95      -0.2718
     80  CB        52.6310    6.3440   38.3750 C.3    95  PHE95       0.0547
     81  CG        51.1840    6.4710   38.0010 C.ar   95  PHE95      -0.0202
     82  CD1       50.6890    7.6670   37.5030 C.ar   95  PHE95      -0.0042
     83  CD2       50.3160    5.3980   38.1490 C.ar   95  PHE95      -0.0042
     84  CE1       49.3520    7.7960   37.1570 C.ar   95  PHE95      -0.0003
     85  CE2       48.9740    5.5180   37.8040 C.ar   95  PHE95      -0.0003
     86  CZ        48.4930    6.7200   37.3070 C.ar   95  PHE95      -0.0000
     87  N         52.5260    6.0910   41.6360 N.am   96  ASP96      -0.1960
     88  CA        51.7070    5.7580   42.7990 C.3    96  ASP96       0.1840
     89  C         51.7760    6.8250   43.8940 C.2    96  ASP96       0.2621
     90  O         50.7740    7.1200   44.5450 O.2    96  ASP96      -0.2715
     91  CB        52.0910    4.3850   43.3530 C.3    96  ASP96       0.1450
     92  CG        51.8580    3.2700   42.3530 C.2    96  ASP96       0.3671
     93  OD1       51.0690    3.4730   41.4070 O.co2  96  ASP96      -0.2456
     94  OD2       52.4660    2.1920   42.5130 O.co2  96  ASP96      -0.2456
     95  N         52.9620    7.3940   44.0910 N.am   97  ILE97      -0.1977
     96  CA        53.1300    8.5190   45.0000 C.3    97  ILE97       0.1596
     97  C         52.2450    9.6690   44.5290 C.2    97  ILE97       0.2287
     98  O         51.5870   10.3320   45.3300 O.2    97  ILE97      -0.2864
     99  CB        54.6060    8.9630   45.0660 C.3    97  ILE97       0.0276
    100  CG1       55.4220    7.9520   45.8710 C.3    97  ILE97       0.0022
    101  CG2       54.7340   10.3530   45.6670 C.3    97  ILE97       0.0022
    102  CD1       56.9050    7.9830   45.5880 C.3    97  ILE97       0.0001
    103  N         49.4970    9.3920   42.6850 N.3    99  MET99      -0.1230
    104  CA        48.1000    9.0210   42.8800 C.3    99  MET99       0.1702
    105  C         47.6960    9.0280   44.3550 C.2    99  MET99       0.2593
    106  O         46.5260    9.2240   44.6820 O.2    99  MET99      -0.2718
    107  CB        47.8060    7.6580   42.2470 C.3    99  MET99       0.0401
    108  CG        47.7520    7.6820   40.7280 C.3    99  MET99       0.0596
    109  SD        46.5980    8.9260   40.1150 S.3    99  MET99      -0.1393
    110  CE        47.7200   10.1020   39.3540 C.3    99  MET99       0.0692
    111  N         48.6670    8.8270   45.2400 N.am  100  SER100     -0.1952
    112  CA        48.4010    8.8030   46.6750 C.3   100  SER100      0.1924
    113  C         47.9890   10.1770   47.2040 C.2   100  SER100      0.2314
    114  O         47.4510   10.2900   48.3060 O.2   100  SER100     -0.2863
    115  CB        49.6220    8.2970   47.4430 C.3   100  SER100      0.2116
    116  OG        50.6700    9.2480   47.4250 O.3   100  SER100     -0.2180
    117  N         45.9550   12.3330   45.4350 N.3   102  ARG102     -0.1245
    118  CA        44.7930   12.7910   44.6840 C.3   102  ARG102      0.1563
    119  C         43.6190   13.1300   45.6080 C.2   102  ARG102      0.2260
    120  O         42.7930   12.2720   45.9260 O.2   102  ARG102     -0.2867
    121  CB        44.3960   11.7540   43.6320 C.3   102  ARG102      0.0307
    122  CG        45.4330   11.6030   42.5280 C.3   102  ARG102      0.0489
    123  CD        45.6050   12.9090   41.7630 C.3   102  ARG102      0.2205
    124  NE        44.4260   13.2030   40.9550 N.pl3 102  ARG102     -0.0865
    125  CZ        44.4170   13.2240   39.6270 C.cat 102  ARG102      0.5346
    126  NH1       45.5320   12.9880   38.9510 N.pl3 102  ARG102      0.1354
    127  NH2       43.2930   13.4900   38.9740 N.pl3 102  ARG102      0.1354
    128  N         39.8310   12.9050   44.1600 N.3   105  VAL105     -0.1231
    129  CA        39.2040   11.5920   44.2120 C.3   105  VAL105      0.1692
    130  C         38.8330   11.2370   45.6490 C.2   105  VAL105      0.2592
    131  O         37.8460   10.5440   45.8950 O.2   105  VAL105     -0.2718
    132  CB        40.1400   10.5090   43.6440 C.3   105  VAL105      0.0266
    133  CG1       39.3680    9.2280   43.3600 C.3   105  VAL105      0.0020
    134  CG2       40.8270   11.0110   42.3820 C.3   105  VAL105      0.0020
    135  N         39.6320   11.7210   46.5950 N.am  106  PHE106     -0.1976
    136  CA        39.3900   11.4680   48.0100 C.3   106  PHE106      0.1639
    137  C         38.1350   12.1920   48.4800 C.2   106  PHE106      0.2290
    138  O         37.3590   11.6630   49.2770 O.2   106  PHE106     -0.2864
    139  CB        40.6000   11.9020   48.8440 C.3   106  PHE106      0.0560
    140  CG        40.3600   11.8730   50.3290 C.ar  106  PHE106     -0.0200
    141  CD1       40.3560   10.6720   51.0240 C.ar  106  PHE106     -0.0042
    142  CD2       40.1470   13.0480   51.0320 C.ar  106  PHE106     -0.0042
    143  CE1       40.1350   10.6440   52.3960 C.ar  106  PHE106     -0.0003
    144  CE2       39.9260   13.0270   52.4010 C.ar  106  PHE106     -0.0003
    145  CZ        39.9210   11.8230   53.0840 C.ar  106  PHE106     -0.0000
    146  N         34.6190   10.3990   47.6390 N.3   109  ILE109     -0.1245
    147  CA        34.1860    9.2060   48.3580 C.3   109  ILE109      0.1561
    148  C         33.9180    9.4700   49.8410 C.2   109  ILE109      0.2260
    149  O         33.2430    8.6780   50.5010 O.2   109  ILE109     -0.2867
    150  CB        35.1930    8.0540   48.1950 C.3   109  ILE109      0.0252
    151  CG1       36.6110    8.5510   48.4660 C.3   109  ILE109      0.0019
    152  CG2       35.0960    7.4690   46.7930 C.3   109  ILE109      0.0019
    153  CD1       37.6730    7.5340   48.1370 C.3   109  ILE109      0.0001
    154  N         35.7210   -1.4730   51.5490 N.3   128  TYR128     -0.1241
    155  CA        36.4890   -0.8070   50.5030 C.3   128  TYR128      0.1605
    156  C         36.3250    0.7010   50.6370 C.2   128  TYR128      0.2264
    157  O         37.2480    1.4610   50.3560 O.2   128  TYR128     -0.2867
    158  CB        36.0390   -1.2760   49.1140 C.3   128  TYR128      0.0534
    159  CG        36.9570   -0.8500   47.9860 C.ar  128  TYR128     -0.0201
    160  CD1       38.2660   -1.3100   47.9200 C.ar  128  TYR128     -0.0009
    161  CD2       36.5110    0.0030   46.9830 C.ar  128  TYR128     -0.0009
    162  CE1       39.1120   -0.9250   46.8920 C.ar  128  TYR128      0.0417
    163  CE2       37.3500    0.3920   45.9480 C.ar  128  TYR128      0.0417
    164  CZ        38.6480   -0.0760   45.9100 C.ar  128  TYR128      0.1957
    165  OH        39.4820    0.3070   44.8850 O.3   128  TYR128     -0.2866
    166  N         39.5460    3.0240   52.0910 N.3   132  SER132     -0.1217
    167  CA        40.0780    3.9410   51.0920 C.3   132  SER132      0.1889
    168  C         40.1060    5.3510   51.6690 C.2   132  SER132      0.2288
    169  O         40.9750    6.1570   51.3370 O.2   132  SER132     -0.2866
    170  CB        39.2350    3.8990   49.8210 C.3   132  SER132      0.2089
    171  OG        39.2490    2.6070   49.2480 O.3   132  SER132     -0.2183
    172  N         42.7710    5.4840   54.1980 N.3   135  MET135     -0.1230
    173  CA        44.0000    5.5620   53.4180 C.3   135  MET135      0.1702
    174  C         44.3840    7.0120   53.1480 C.2   135  MET135      0.2592
    175  O         45.5380    7.4070   53.3330 O.2   135  MET135     -0.2718
    176  CB        43.8220    4.8260   52.0910 C.3   135  MET135      0.0401
    177  CG        44.8010    3.6900   51.8660 C.3   135  MET135      0.0596
    178  SD        44.1680    2.4720   50.6940 S.3   135  MET135     -0.1393
    179  CE        45.2200    2.7730   49.2780 C.3   135  MET135      0.0692
    180  N         43.4050    7.7970   52.7060 N.am  136  GLY136     -0.1957
    181  CA        43.6270    9.1870   52.3510 C.3   136  GLY136      0.1869
    182  C         43.8450   10.1020   53.5420 C.2   136  GLY136      0.2309
    183  O         44.4370   11.1720   53.4030 O.2   136  GLY136     -0.2863
    184  N         47.3800    9.8820   54.5900 N.3   139  ASN139     -0.1240
    185  CA        48.2400   10.6670   53.7170 C.3   139  ASN139      0.1653
    186  C         47.9830   12.1510   53.9230 C.2   139  ASN139      0.2266
    187  O         48.7010   12.9910   53.3920 O.2   139  ASN139     -0.2867
    188  CB        48.0370   10.2770   52.2450 C.3   139  ASN139      0.1155
    189  CG        48.9590    9.1560   51.8050 C.2   139  ASN139      0.2627
    190  OD1       50.1340    9.3830   51.5110 O.2   139  ASN139     -0.2716
    191  ND2       48.4310    7.9390   51.7630 N.am  139  ASN139     -0.0877
    192  N         45.0930   13.8800   53.1870 N.3   141  LEU141     -0.1245
    193  CA        44.2930   14.5050   52.1350 C.3   141  LEU141      0.1561
    194  C         43.1310   15.3450   52.6740 C.2   141  LEU141      0.2260
    195  O         42.5540   16.1490   51.9430 O.2   141  LEU141     -0.2867
    196  CB        43.7760   13.4490   51.1520 C.3   141  LEU141      0.0270
    197  CG        44.8410   12.6020   50.4540 C.3   141  LEU141      0.0019
    198  CD1       44.2160   11.6820   49.4120 C.3   141  LEU141      0.0001
    199  CD2       45.9140   13.4810   49.8270 C.3   141  LEU141      0.0001
    200  N         41.8430   -5.2810   46.5380 N.3   477  ARG477     -0.1245
    201  CA        42.6350   -4.7910   47.6600 C.3   477  ARG477      0.1563
    202  C         42.6530   -5.7880   48.8200 C.2   477  ARG477      0.2260
    203  O         43.5700   -5.7820   49.6390 O.2   477  ARG477     -0.2867
    204  CB        42.1220   -3.4240   48.1310 C.3   477  ARG477      0.0307
    205  CG        43.1580   -2.6050   48.8950 C.3   477  ARG477      0.0489
    206  CD        42.6230   -1.2390   49.2920 C.3   477  ARG477      0.2205
    207  NE        42.4070   -0.3620   48.1450 N.pl3 477  ARG477     -0.0865
    208  CZ        41.8180    0.8280   48.2190 C.cat 477  ARG477      0.5346
    209  NH1       41.3860    1.2820   49.3860 N.pl3 477  ARG477      0.1354
    210  NH2       41.6590    1.5640   47.1280 N.pl3 477  ARG477      0.1354
@<TRIPOS>BOND
     1     1     2    1
     2    35    33    1
     3     2     3    1
     4     2     5    1
     5     6     5    1
     6     3     4    2
     7    65    66    1
     8     5     7    1
     9    33    32    1
    10    66    67    1
    11    66    69    1
    12    68    67    2
    13    45    46    1
    14    84    86   ar
    15    84    82   ar
    16    48    47    2
    17    46    47    1
    18    46    49    1
    19    86    85   ar
    20    32    29    1
    21    32    34    1
    22     8     9    1
    23    29    28    1
    24    29    30    1
    25    82    81   ar
    26    47    57   am
    27    69    70    1
    28    51    53   ar
    29    51    50   ar
    30    85    83   ar
    31    31    30    2
    32    81    83   ar
    33    81    80    1
    34    53    55   ar
    35    70    71    1
    36    10     9    1
    37    10    11    2
    38    49    50    1
    39    30    36   am
    40    80    77    1
    41    59    60    2
    42    59    58    1
    43    50    52   ar
    44     9    12    1
    45    57    58    1
    46   126   125    1
    47   127   125    1
    48    12    13    1
    49    55    56    1
    50    55    54   ar
    51    58    61    1
    52   110   109    1
    53    77    76    1
    54    77    78    1
    55    14    13   ar
    56    14    16   ar
    57    36    37    1
    58   125   124    2
    59    71    72    1
    60    52    54   ar
    61    13    15   ar
    62   109   108    1
    63    38    39    2
    64    38    37    1
    65    72    73    2
    66    16    18   ar
    67    61    63    1
    68    61    62    1
    69    37    40    1
    70    20    21    1
    71   108   107    1
    72    74    73    1
    73    78    79    2
    74    78    87   am
    75    73    75    1
    76   124   123    1
    77    21    22    1
    78    21    24    1
    79    23    22    2
    80    15    17   ar
    81    93    92   ar
    82    26    25    1
    83    87    88    1
    84    62    64    1
    85   123   122    1
    86    18    17   ar
    87    18    19    1
    88    40    41    1
    89   107   104    1
    90    92    94   ar
    91    92    91    1
    92   134   132    1
    93   122   121    1
    94    24    25    1
    95   103   104    1
    96    25    27    1
    97    88    91    1
    98    88    89    1
    99   104   105    1
   100    41    42    1
   101   133   132    1
   102   121   118    1
   103   132   129    1
   104    89    95   am
   105    89    90    2
   106    95    96    1
   107   128   129    1
   108   129   130    1
   109   105   106    2
   110   105   111   am
   111    42    44   ar
   112    42    43   ar
   113    97    96    1
   114    97    98    2
   115   118   117    1
   116   118   119    1
   117   165   164    1
   118    96    99    1
   119    99   101    1
   120    99   100    1
   121   111   112    1
   122   102   100    1
   123   119   120    2
   124   130   131    2
   125   130   135   am
   126   164   163   ar
   127   164   162   ar
   128   163   161   ar
   129   200   201    1
   130   135   136    1
   131   112   113    1
   132   112   115    1
   133   152   150    1
   134   162   160   ar
   135   161   159   ar
   136   210   208    1
   137   113   114    2
   138   116   115    1
   139   146   147    1
   140   201   204    1
   141   201   202    1
   142   160   159   ar
   143   159   158    1
   144   136   137    1
   145   136   139    1
   146   204   205    1
   147   153   151    1
   148   207   208    2
   149   207   206    1
   150   150   147    1
   151   150   151    1
   152   208   209    1
   153   147   148    1
   154   137   138    2
   155   202   203    2
   156   139   140    1
   157   205   206    1
   158   158   155    1
   159   171   170    1
   160   179   178    1
   161   198   197    1
   162   170   167    1
   163   199   197    1
   164   148   149    2
   165   140   141   ar
   166   140   142   ar
   167   157   156    2
   168   197   196    1
   169   155   156    1
   170   155   154    1
   171   178   177    1
   172   141   143   ar
   173   142   144   ar
   174   167   168    1
   175   167   166    1
   176   196   193    1
   177   169   168    2
   178   190   189    2
   179   191   189   am
   180   189   188    1
   181   177   176    1
   182   195   194    2
   183   176   173    1
   184   193   194    1
   185   193   192    1
   186   188   185    1
   187   181   180    1
   188   181   182    1
   189   143   145   ar
   190   144   145   ar
   191   180   174   am
   192   174   175    2
   193   174   173    1
   194   187   186    2
   195   183   182    2
   196   173   172    1
   197   185   186    1
   198   185   184    1
