@<TRIPOS>MOLECULE
tmp/4fycA00.pdb
 90 88 0 0 0
SMALL
GASTEIGER

@<TRIPOS>ATOM
      1  N        -31.7170  -18.1940    0.0710 N.3    31  ARG31      -0.1245
      2  CA       -32.7190  -17.7120   -0.8780 C.3    31  ARG31       0.1563
      3  C        -32.7790  -18.5610   -2.1540 C.2    31  ARG31       0.2260
      4  O        -31.8520  -19.3400   -2.4300 O.2    31  ARG31      -0.2867
      5  CB       -32.4940  -16.2360   -1.2180 C.3    31  ARG31       0.0307
      6  CG       -31.2270  -15.9450   -1.9810 C.3    31  ARG31       0.0489
      7  CD       -31.2490  -14.5060   -2.4620 C.3    31  ARG31       0.2205
      8  NE       -30.0130  -14.1950   -3.1650 N.pl3  31  ARG31      -0.0865
      9  CZ       -29.8080  -14.4400   -4.4560 C.cat  31  ARG31       0.5346
     10  NH1      -30.7570  -14.9960   -5.1910 N.pl3  31  ARG31       0.1354
     11  NH2      -28.6520  -14.1220   -5.0080 N.pl3  31  ARG31       0.1354
     12  N        -29.6570  -19.1750   -5.3770 N.3    34  CYS34      -0.1235
     13  CA       -28.2930  -18.8920   -4.9480 C.3    34  CYS34       0.1677
     14  C        -27.5070  -20.1960   -5.0490 C.2    34  CYS34       0.2270
     15  O        -27.8500  -21.1750   -4.3830 O.2    34  CYS34      -0.2867
     16  CB       -28.2970  -18.3220   -3.5280 C.3    34  CYS34       0.0956
     17  SG       -26.7010  -18.3100   -2.6930 S.3    34  CYS34      -0.0801
     18  N        -24.6450  -21.0010   -3.9150 N.3    36  TYR36      -0.1241
     19  CA       -23.9990  -21.3580   -2.6620 C.3    36  TYR36       0.1605
     20  C        -24.9730  -21.9910   -1.6750 C.2    36  TYR36       0.2264
     21  O        -24.6280  -22.9700   -1.0170 O.2    36  TYR36      -0.2867
     22  CB       -23.2280  -20.1580   -2.0850 C.3    36  TYR36       0.0534
     23  CG       -22.1750  -19.6730   -3.0630 C.ar   36  TYR36      -0.0201
     24  CD1      -22.3180  -18.4620   -3.7330 C.ar   36  TYR36      -0.0009
     25  CD2      -21.0650  -20.4630   -3.3670 C.ar   36  TYR36      -0.0009
     26  CE1      -21.3650  -18.0260   -4.6480 C.ar   36  TYR36       0.0417
     27  CE2      -20.1090  -20.0400   -4.2850 C.ar   36  TYR36       0.0417
     28  CZ       -20.2620  -18.8240   -4.9200 C.ar   36  TYR36       0.1957
     29  OH       -19.3130  -18.4120   -5.8230 O.3    36  TYR36      -0.2866
     30  N        -26.6790  -10.0730    4.7660 N.3    98  GLN98      -0.1231
     31  CA       -26.4570   -9.3220    3.5220 C.3    98  GLN98       0.1698
     32  C        -25.9430  -10.1530    2.3780 C.2    98  GLN98       0.2593
     33  O        -25.8930   -9.6800    1.2400 O.2    98  GLN98      -0.2718
     34  CB       -25.5530   -8.1060    3.7450 C.3    98  GLN98       0.0381
     35  CG       -26.3580   -6.8160    3.8550 C.3    98  GLN98       0.0905
     36  CD       -25.5930   -5.6850    4.5070 C.2    98  GLN98       0.2608
     37  OE1      -24.5720   -5.2280    3.9850 O.2    98  GLN98      -0.2717
     38  NE2      -26.0900   -5.2170    5.6550 N.am   98  GLN98      -0.0878
     39  N        -25.5430  -11.3800    2.6790 N.am   99  SER99      -0.1938
     40  CA       -25.2070  -12.3460    1.6530 C.3    99  SER99       0.2055
     41  C        -25.7590  -13.7220    2.0490 C.2    99  SER99       0.2643
     42  O        -26.2250  -13.9130    3.1720 O.2    99  SER99      -0.2714
     43  CB       -23.7000  -12.3880    1.4330 C.3    99  SER99       0.2130
     44  OG       -23.0370  -12.6160    2.6510 O.3    99  SER99      -0.2179
     45  N        -25.7360  -14.6660    1.1160 N.am  100  THR100     -0.1950
     46  CA       -26.2860  -15.9810    1.3870 C.3   100  THR100      0.1897
     47  C        -25.3240  -17.0750    0.9350 C.2   100  THR100      0.2313
     48  O        -24.5630  -16.8750   -0.0090 O.2   100  THR100     -0.2863
     49  CB       -27.6850  -16.1750    0.7570 C.3   100  THR100      0.1794
     50  OG1      -27.6040  -15.9960   -0.6580 O.3   100  THR100     -0.2208
     51  CG2      -28.7400  -15.2070    1.3820 C.3   100  THR100      0.0378
     52  N        -21.1300  -17.0560   10.2290 N.3   116  LEU116     -0.1231
     53  CA       -20.4600  -17.2410    8.9630 C.3   116  LEU116      0.1678
     54  C        -21.3440  -16.7140    7.8800 C.2   116  LEU116      0.2434
     55  O        -22.5130  -16.9720    7.8620 O.2   116  LEU116     -0.2733
     56  CB       -20.1800  -18.6880    8.6810 C.3   116  LEU116      0.0284
     57  CG       -19.6920  -19.5400    9.8150 C.3   116  LEU116      0.0019
     58  CD1      -19.5360  -20.9330    9.2830 C.3   116  LEU116      0.0001
     59  CD2      -18.3710  -19.0220   10.2780 C.3   116  LEU116      0.0001
     60  N        -20.7790  -15.8930    7.0000 N.am  117  PRO117     -0.2718
     61  CA       -21.5720  -15.1920    5.9810 C.3   117  PRO117      0.1535
     62  C        -21.5910  -15.8650    4.6100 C.2   117  PRO117      0.2599
     63  O        -22.1780  -15.3130    3.6790 O.2   117  PRO117     -0.2715
     64  CB       -20.8790  -13.8310    5.8830 C.3   117  PRO117      0.0310
     65  CG       -20.2680  -13.6280    7.2280 C.3   117  PRO117      0.0237
     66  CD       -19.8420  -14.9920    7.6920 C.3   117  PRO117      0.0939
     67  N        -20.9510  -17.0210    4.4790 N.am  118  GLY118     -0.1941
     68  CA       -20.7640  -17.6160    3.1930 C.3   118  GLY118      0.2014
     69  C        -20.7700  -19.1090    3.2880 C.2   118  GLY118      0.2639
     70  O        -20.7610  -19.6470    4.3520 O.2   118  GLY118     -0.2714
     71  N        -20.7810  -19.7740    2.1570 N.am  119  TYR119     -0.1959
     72  CA       -20.6420  -21.1920    2.1200 C.3   119  TYR119      0.1771
     73  C        -19.2540  -21.5700    2.5550 C.2   119  TYR119      0.2619
     74  O        -18.3140  -20.9470    2.1600 O.2   119  TYR119     -0.2715
     75  CB       -20.8820  -21.6760    0.7050 C.3   119  TYR119      0.0574
     76  CG       -20.4700  -23.0850    0.4430 C.ar  119  TYR119     -0.0198
     77  CD1      -19.3730  -23.3740   -0.3040 C.ar  119  TYR119     -0.0009
     78  CD2      -21.1940  -24.1210    0.9250 C.ar  119  TYR119     -0.0009
     79  CE1      -19.0130  -24.6660   -0.5410 C.ar  119  TYR119      0.0417
     80  CE2      -20.8370  -25.4060    0.6990 C.ar  119  TYR119      0.0417
     81  CZ       -19.7530  -25.6690   -0.0370 C.ar  119  TYR119      0.1957
     82  OH       -19.4180  -26.9540   -0.2450 O.3   119  TYR119     -0.2866
     83  N        -19.1400  -22.6210    3.3510 N.am  120  MET120     -0.1977
     84  CA       -17.8780  -23.2270    3.6810 C.3   120  MET120      0.1605
     85  C        -17.9320  -24.6930    3.3680 C.2   120  MET120      0.2287
     86  O        -18.8840  -25.3270    3.6780 O.2   120  MET120     -0.2864
     87  CB       -17.6330  -23.0790    5.1520 C.3   120  MET120      0.0413
     88  CG       -16.2480  -22.6410    5.4800 C.3   120  MET120      0.0598
     89  SD       -16.0190  -22.7370    7.2330 S.3   120  MET120     -0.1393
     90  CE       -16.4910  -21.1120    7.7020 C.3   120  MET120      0.0692
@<TRIPOS>BOND
     1    29    28    1
     2    12    13    1
     3    10     9    1
     4    14    13    1
     5    14    15    2
     6    11     9    1
     7    13    16    1
     8    28    26   ar
     9    28    27   ar
    10    26    24   ar
    11     9     8    2
    12    27    25   ar
    13    18    19    1
    14    24    23   ar
    15    16    17    1
    16    25    23   ar
    17     8     7    1
    18    23    22    1
    19    19    22    1
    20    19    20    1
    21     7     6    1
    22     4     3    2
    23     3     2    1
    24     6     5    1
    25    20    21    2
    26     5     2    1
    27     2     1    1
    28    50    49    1
    29    79    77   ar
    30    79    81   ar
    31    77    76   ar
    32    82    81    1
    33    81    80   ar
    34    48    47    2
    35    76    75    1
    36    76    78   ar
    37    80    78   ar
    38    75    72    1
    39    49    51    1
    40    49    46    1
    41    47    46    1
    42    45    46    1
    43    45    41   am
    44    33    32    2
    45    43    40    1
    46    43    44    1
    47    40    41    1
    48    40    39    1
    49    41    42    2
    50    72    71    1
    51    72    73    1
    52    71    69   am
    53    74    73    2
    54    32    39   am
    55    32    31    1
    56    73    83   am
    57    68    69    1
    58    68    67    1
    59    69    70    2
    60    83    84    1
    61    85    86    2
    62    85    84    1
    63    31    34    1
    64    31    30    1
    65    63    62    2
    66    84    87    1
    67    34    35    1
    68    35    36    1
    69    37    36    2
    70    67    62   am
    71    36    38   am
    72    62    61    1
    73    87    88    1
    74    88    89    1
    75    64    61    1
    76    64    65    1
    77    61    60    1
    78    60    66    1
    79    60    54   am
    80    65    66    1
    81    89    90    1
    82    55    54    2
    83    54    53    1
    84    56    53    1
    85    56    57    1
    86    53    52    1
    87    58    57    1
    88    57    59    1
