@<TRIPOS>MOLECULE
tmp/4fydA00.pdb
 142 139 0 0 0
SMALL
GASTEIGER

@<TRIPOS>ATOM
      1  N         15.1330  -20.3530   34.9950 N.3   483  ASP483     -0.1225
      2  CA        15.5410  -19.0300   34.5390 C.3   483  ASP483      0.1805
      3  C         16.9210  -19.0860   33.8780 C.2   483  ASP483      0.2598
      4  O         17.7780  -19.8770   34.2770 O.2   483  ASP483     -0.2718
      5  CB        15.5580  -18.0680   35.7310 C.3   483  ASP483      0.1424
      6  CG        15.9090  -16.6490   35.3390 C.2   483  ASP483      0.3668
      7  OD1       15.0260  -15.9450   34.8040 O.co2 483  ASP483     -0.2456
      8  OD2       17.0630  -16.2340   35.5810 O.co2 483  ASP483     -0.2456
      9  N         17.1250  -18.2500   32.8620 N.am  484  PHE484     -0.1962
     10  CA        18.4250  -18.1220   32.2070 C.3   484  PHE484      0.1771
     11  C         19.2110  -16.9470   32.7830 C.2   484  PHE484      0.2620
     12  O         18.8500  -15.7880   32.5770 O.2   484  PHE484     -0.2715
     13  CB        18.2510  -17.9220   30.6990 C.3   484  PHE484      0.0574
     14  CG        18.2190  -19.2020   29.9110 C.ar  484  PHE484     -0.0200
     15  CD1       17.0570  -19.6150   29.2820 C.ar  484  PHE484     -0.0042
     16  CD2       19.3530  -19.9870   29.7930 C.ar  484  PHE484     -0.0042
     17  CE1       17.0260  -20.7890   28.5510 C.ar  484  PHE484     -0.0003
     18  CE2       19.3270  -21.1610   29.0650 C.ar  484  PHE484     -0.0003
     19  CZ        18.1630  -21.5630   28.4440 C.ar  484  PHE484     -0.0000
     20  N         20.2840  -17.2500   33.5060 N.am  485  ASN485     -0.1958
     21  CA        21.1240  -16.2160   34.1030 C.3   485  ASN485      0.1819
     22  C         21.6500  -15.2290   33.0640 C.2   485  ASN485      0.2622
     23  O         22.4460  -15.5940   32.2000 O.2   485  ASN485     -0.2715
     24  CB        22.2960  -16.8530   34.8530 C.3   485  ASN485      0.1195
     25  CG        21.8560  -17.5840   36.1080 C.2   485  ASN485      0.2630
     26  OD1       20.8190  -17.2710   36.6940 O.2   485  ASN485     -0.2716
     27  ND2       22.6440  -18.5690   36.5250 N.am  485  ASN485     -0.0877
     28  N         21.1970  -13.9820   33.1520 N.am  486  SER486     -0.1936
     29  CA        21.6060  -12.9410   32.2140 C.3   486  SER486      0.2055
     30  C         21.4010  -13.4230   30.7860 C.2   486  SER486      0.2643
     31  O         22.3660  -13.6510   30.0600 O.2   486  SER486     -0.2714
     32  CB        23.0750  -12.5650   32.4280 C.3   486  SER486      0.2130
     33  OG        23.3360  -12.2480   33.7840 O.3   486  SER486     -0.2179
     34  N         20.1460  -13.5640   30.3740 N.am  487  LEU487     -0.1963
     35  CA        19.8620  -14.1320   29.0630 C.3   487  LEU487      0.1728
     36  C         20.5670  -13.3690   27.9500 C.2   487  LEU487      0.2616
     37  O         21.4860  -13.8930   27.3320 O.2   487  LEU487     -0.2715
     38  CB        18.3580  -14.1740   28.7860 C.3   487  LEU487      0.0311
     39  CG        18.0140  -14.7310   27.4020 C.3   487  LEU487      0.0022
     40  CD1       18.5640  -16.1430   27.2430 C.3   487  LEU487      0.0001
     41  CD2       16.5140  -14.7070   27.1580 C.3   487  LEU487      0.0001
     42  N         20.1480  -12.1300   27.7090 N.am  488  TYR488     -0.1960
     43  CA        20.6780  -11.3470   26.5950 C.3   488  TYR488      0.1756
     44  C         22.1980  -11.1850   26.6680 C.2   488  TYR488      0.2461
     45  O         22.8960  -11.4520   25.6880 O.2   488  TYR488     -0.2730
     46  CB        20.0030   -9.9730   26.5140 C.3   488  TYR488      0.0574
     47  CG        18.5680  -10.0020   26.0310 C.ar  488  TYR488     -0.0198
     48  CD1       17.9590   -8.8470   25.5610 C.ar  488  TYR488     -0.0009
     49  CD2       17.8180  -11.1740   26.0560 C.ar  488  TYR488     -0.0009
     50  CE1       16.6490   -8.8540   25.1200 C.ar  488  TYR488      0.0417
     51  CE2       16.5050  -11.1910   25.6160 C.ar  488  TYR488      0.0417
     52  CZ        15.9250  -10.0260   25.1490 C.ar  488  TYR488      0.1957
     53  OH        14.6180  -10.0250   24.7100 O.3   488  TYR488     -0.2866
     54  N         22.7200  -10.7340   27.8200 N.am  489  PRO489     -0.2727
     55  CA        24.1740  -10.5770   27.9250 C.3   489  PRO489      0.1402
     56  C         24.8950  -11.8710   27.5640 C.2   489  PRO489      0.2269
     57  O         25.9060  -11.8410   26.8640 O.2   489  PRO489     -0.2865
     58  CB        24.3730  -10.2460   29.4040 C.3   489  PRO489      0.0296
     59  CG        23.1070   -9.5700   29.7880 C.3   489  PRO489      0.0237
     60  CD        22.0480  -10.3550   29.0750 C.3   489  PRO489      0.0939
     61  N         29.2310   -9.5140   38.2880 N.3   536  ARG536     -0.1245
     62  CA        27.9640   -9.7980   38.9580 C.3   536  ARG536      0.1563
     63  C         27.9620  -11.1860   39.5920 C.2   536  ARG536      0.2260
     64  O         27.3250  -11.4030   40.6230 O.2   536  ARG536     -0.2867
     65  CB        26.7880   -9.6790   37.9910 C.3   536  ARG536      0.0307
     66  CG        25.4590   -9.5190   38.7060 C.3   536  ARG536      0.0489
     67  CD        24.2830   -9.8140   37.8030 C.3   536  ARG536      0.2205
     68  NE        23.0730  -10.0830   38.5730 N.pl3 536  ARG536     -0.0865
     69  CZ        21.9220  -10.4850   38.0450 C.cat 536  ARG536      0.5346
     70  NH1       21.8140  -10.6600   36.7340 N.pl3 536  ARG536      0.1354
     71  NH2       20.8760  -10.7060   38.8290 N.pl3 536  ARG536      0.1354
     72  N         27.3690  -11.7930   43.6260 N.3   540  LYS540     -0.1245
     73  CA        26.3370  -12.7160   44.0840 C.3   540  LYS540      0.1561
     74  C         26.9730  -13.8390   44.8970 C.2   540  LYS540      0.2260
     75  O         26.3290  -14.4290   45.7660 O.2   540  LYS540     -0.2867
     76  CB        25.5490  -13.2910   42.9050 C.3   540  LYS540      0.0271
     77  CG        24.3340  -12.4610   42.5140 C.3   540  LYS540      0.0035
     78  CD        23.8660  -12.7760   41.1030 C.3   540  LYS540      0.0206
     79  CE        22.9960  -14.0220   41.0700 C.3   540  LYS540      0.1093
     80  NZ        22.7070  -14.4630   39.6780 N.3   540  LYS540     -0.1314
     81  N         23.7720   -5.6260   37.0110 N.3   563  LYS563     -0.1231
     82  CA        22.7800   -6.2340   36.1360 C.3   563  LYS563      0.1693
     83  C         22.2390   -5.1700   35.1960 C.2   563  LYS563      0.2591
     84  O         22.2660   -5.3410   33.9840 O.2   563  LYS563     -0.2718
     85  CB        21.6260   -6.8400   36.9390 C.3   563  LYS563      0.0285
     86  CG        20.6060   -7.5740   36.0730 C.3   563  LYS563      0.0035
     87  CD        19.5110   -8.2380   36.8970 C.3   563  LYS563      0.0206
     88  CE        18.3350   -7.2990   37.1350 C.3   563  LYS563      0.1093
     89  NZ        17.2180   -7.9680   37.8640 N.3   563  LYS563     -0.1314
     90  N         21.7430   -4.0730   35.7620 N.am  564  LEU564     -0.1980
     91  CA        21.2820   -2.9440   34.9600 C.3   564  LEU564      0.1596
     92  C         22.3180   -2.5200   33.9200 C.2   564  LEU564      0.2287
     93  O         21.9730   -2.2510   32.7720 O.2   564  LEU564     -0.2864
     94  CB        20.9450   -1.7540   35.8610 C.3   564  LEU564      0.0297
     95  CG        20.6380   -0.4440   35.1320 C.3   564  LEU564      0.0022
     96  CD1       19.3740   -0.5740   34.2970 C.3   564  LEU564      0.0001
     97  CD2       20.5190    0.6970   36.1300 C.3   564  LEU564      0.0001
     98  N         22.5680   -5.1650   30.9880 N.3   567  ASN567     -0.1225
     99  CA        21.3470   -5.0900   30.2040 C.3   567  ASN567      0.1785
    100  C         21.3200   -3.8050   29.3880 C.2   567  ASN567      0.2597
    101  O         20.7950   -3.7810   28.2790 O.2   567  ASN567     -0.2718
    102  CB        20.1190   -5.1620   31.1130 C.3   567  ASN567      0.1169
    103  CG        19.9110   -6.5450   31.7060 C.2   567  ASN567      0.2627
    104  OD1       20.3840   -7.5440   31.1630 O.2   567  ASN567     -0.2716
    105  ND2       19.2010   -6.6070   32.8280 N.am  567  ASN567     -0.0877
    106  N         21.8840   -2.7380   29.9480 N.am  568  SER568     -0.1952
    107  CA        21.9230   -1.4480   29.2710 C.3   568  SER568      0.1924
    108  C         22.8280   -1.5350   28.0540 C.2   568  SER568      0.2314
    109  O         22.5730   -0.8970   27.0320 O.2   568  SER568     -0.2863
    110  CB        22.4100   -0.3510   30.2160 C.3   568  SER568      0.2116
    111  OG        21.4850   -0.1420   31.2680 O.3   568  SER568     -0.2180
    112  N         22.9670   -3.8990   26.0770 N.3   570  TYR570     -0.1227
    113  CA        22.0970   -4.3830   25.0120 C.3   570  TYR570      0.1736
    114  C         21.1340   -3.2980   24.5450 C.2   570  TYR570      0.2596
    115  O         21.0350   -3.0130   23.3540 O.2   570  TYR570     -0.2718
    116  CB        21.2930   -5.6020   25.4700 C.3   570  TYR570      0.0548
    117  CG        19.9250   -5.6650   24.8310 C.ar  570  TYR570     -0.0200
    118  CD1       19.7810   -6.0050   23.4920 C.ar  570  TYR570     -0.0009
    119  CD2       18.7800   -5.3660   25.5570 C.ar  570  TYR570     -0.0009
    120  CE1       18.5380   -6.0560   22.8960 C.ar  570  TYR570      0.0417
    121  CE2       17.5290   -5.4150   24.9690 C.ar  570  TYR570      0.0417
    122  CZ        17.4160   -5.7600   23.6380 C.ar  570  TYR570      0.1957
    123  OH        16.1760   -5.8090   23.0430 O.3   570  TYR570     -0.2866
    124  N         20.4240   -2.7000   25.4930 N.am  571  GLY571     -0.1957
    125  CA        19.4150   -1.7040   25.1910 C.3   571  GLY571      0.1869
    126  C         19.9200   -0.5940   24.2940 C.2   571  GLY571      0.2309
    127  O         19.1960   -0.1180   23.4200 O.2   571  GLY571     -0.2863
    128  N         10.2270  -14.2340   28.3880 N.3   616  THR616     -0.1203
    129  CA        11.5320  -13.7540   27.9390 C.3   616  THR616      0.1994
    130  C         12.6590  -14.7640   28.1580 C.2   616  THR616      0.2617
    131  O         13.3040  -15.1900   27.2000 O.2   616  THR616     -0.2717
    132  CB        11.9140  -12.4270   28.6270 C.3   616  THR616      0.1784
    133  OG1       10.8700  -11.4640   28.4340 O.3   616  THR616     -0.2211
    134  CG2       13.2090  -11.8820   28.0500 C.3   616  THR616      0.0376
    135  N         12.8990  -15.1440   29.4110 N.am  617  ASN617     -0.1974
    136  CA        14.0150  -16.0290   29.7310 C.3   617  ASN617      0.1688
    137  C         13.6770  -17.1020   30.7620 C.2   617  ASN617      0.2292
    138  O         14.5780  -17.7430   31.3040 O.2   617  ASN617     -0.2864
    139  CB        15.1970  -15.2100   30.2480 C.3   617  ASN617      0.1181
    140  CG        14.9550  -14.6480   31.6330 C.2   617  ASN617      0.2629
    141  OD1       13.8140  -14.5270   32.0770 O.2   617  ASN617     -0.2716
    142  ND2       16.0330  -14.3070   32.3280 N.am  617  ASN617     -0.0877
@<TRIPOS>BOND
     1   120   118   ar
     2   120   122   ar
     3   123   122    1
     4   115   114    2
     5   127   126    2
     6   118   117   ar
     7   122   121   ar
     8   126   125    1
     9   114   113    1
    10   114   124   am
    11    53    52    1
    12   117   116    1
    13   117   119   ar
    14   121   119   ar
    15   113   116    1
    16   113   112    1
    17    50    52   ar
    18    50    48   ar
    19    52    51   ar
    20   125   124    1
    21    48    47   ar
    22    51    49   ar
    23    45    44    2
    24    47    49   ar
    25    47    46    1
    26    46    43    1
    27    43    44    1
    28    43    42    1
    29    44    54   am
    30    57    56    2
    31   109   108    2
    32    41    39    1
    33   131   130    2
    34    40    39    1
    35    37    36    2
    36    39    38    1
    37    56    55    1
    38    42    36   am
    39    54    55    1
    40    54    60    1
    41    55    58    1
    42   129   130    1
    43   129   128    1
    44   129   132    1
    45    36    35    1
    46   134   132    1
    47   108   107    1
    48   130   135   am
    49   101   100    2
    50   133   132    1
    51    19    17   ar
    52    19    18   ar
    53    17    15   ar
    54    38    35    1
    55    35    34    1
    56    18    16   ar
    57    60    59    1
    58   107   106    1
    59   107   110    1
    60    15    14   ar
    61   100   106   am
    62   100    99    1
    63    58    59    1
    64   135   136    1
    65   136   139    1
    66   136   137    1
    67    16    14   ar
    68    14    13    1
    69    31    30    2
    70    99    98    1
    71    99   102    1
    72   110   111    1
    73   139   140    1
    74    34    30   am
    75    13    10    1
    76   137   138    2
    77    30    29    1
    78   102   103    1
    79   104   103    2
    80   140   141    2
    81   140   142   am
    82   103   105   am
    83    23    22    2
    84    10    11    1
    85    10     9    1
    86    29    32    1
    87    29    28    1
    88    32    33    1
    89    12    11    2
    90    93    92    2
    91    11    20   am
    92     9     3   am
    93    22    28   am
    94    22    21    1
    95    20    21    1
    96     3     4    2
    97     3     2    1
    98    92    91    1
    99    84    83    2
   100    21    24    1
   101    96    95    1
   102     2     1    1
   103     2     5    1
   104     7     6   ar
   105    24    25    1
   106    91    90    1
   107    91    94    1
   108    95    94    1
   109    95    97    1
   110    83    90   am
   111    83    82    1
   112     6     8   ar
   113     6     5    1
   114    86    87    1
   115    86    85    1
   116    25    27   am
   117    25    26    2
   118    82    85    1
   119    82    81    1
   120    70    69    1
   121    87    88    1
   122    88    89    1
   123    67    68    1
   124    67    66    1
   125    65    66    1
   126    65    62    1
   127    69    68    2
   128    69    71    1
   129    61    62    1
   130    62    63    1
   131    63    64    2
   132    80    79    1
   133    79    78    1
   134    78    77    1
   135    77    76    1
   136    76    73    1
   137    72    73    1
   138    73    74    1
   139    74    75    2
