@<TRIPOS>MOLECULE
tmp/4fygA00.pdb
 177 171 0 0 0
SMALL
GASTEIGER

@<TRIPOS>ATOM
      1  N         -9.6390   41.9460   10.3650 N.3   233  HIS233     -0.1241
      2  CA        -9.7850   42.0690    8.9310 C.3   233  HIS233      0.1621
      3  C        -10.9500   42.8700    8.4510 C.2   233  HIS233      0.2264
      4  O        -11.2730   42.8390    7.2530 O.2   233  HIS233     -0.2867
      5  CB        -9.7570   40.7040    8.2760 C.3   233  HIS233      0.0745
      6  CG        -8.4130   40.0400    8.3510 C.ar  233  HIS233      0.0817
      7  ND1       -8.1400   39.0710    9.2290 N.ar  233  HIS233     -0.2268
      8  CD2       -7.2470   40.2630    7.6360 C.ar  233  HIS233      0.1154
      9  CE1       -6.8710   38.6780    9.0770 C.ar  233  HIS233      0.1986
     10  NE2       -6.3240   39.4100    8.1020 N.ar  233  HIS233     -0.2212
     11  N          9.7580   46.7480    4.6390 N.3   365  GLN365     -0.1245
     12  CA         9.7480   45.5020    3.9000 C.3   365  GLN365      0.1566
     13  C          9.3200   45.7320    2.4480 C.2   365  GLN365      0.2260
     14  O          8.4070   46.4920    2.1690 O.2   365  GLN365     -0.2867
     15  CB         8.9100   44.4860    4.6360 C.3   365  GLN365      0.0367
     16  CG         8.2710   43.4500    3.7750 C.3   365  GLN365      0.0905
     17  CD         7.6340   42.3660    4.6240 C.2   365  GLN365      0.2608
     18  OE1        7.1320   41.3790    4.0980 O.2   365  GLN365     -0.2717
     19  NE2        7.6570   42.5410    5.9470 N.am  365  GLN365     -0.0878
     20  N          8.6430   43.1630   -0.0290 N.3   367  VAL367     -0.1231
     21  CA         7.9140   42.1080   -0.7240 C.3   367  VAL367      0.1692
     22  C          6.8400   41.5230    0.1760 C.2   367  VAL367      0.2591
     23  O          7.0950   41.3050    1.3600 O.2   367  VAL367     -0.2718
     24  CB         8.8480   41.0000   -1.2730 C.3   367  VAL367      0.0266
     25  CG1        9.7490   41.5710   -2.3840 C.3   367  VAL367      0.0020
     26  CG2        9.6520   40.3320   -0.1610 C.3   367  VAL367      0.0020
     27  N          5.6490   41.2740   -0.3880 N.am  368  ALA368     -0.1980
     28  CA         4.4000   41.1460    0.3830 C.3   368  ALA368      0.1597
     29  C          4.3280   42.2970    1.3920 C.2   368  ALA368      0.2287
     30  O          4.1090   42.0680    2.6190 O.2   368  ALA368     -0.2864
     31  CB         4.3290   39.7860    1.0950 C.3   368  ALA368      0.0319
     32  N          2.3810   44.5730    1.9970 N.3   370  GLU370     -0.1245
     33  CA         1.0630   44.5960    2.6090 C.3   370  GLU370      0.1567
     34  C          0.9540   45.9810    3.1720 C.2   370  GLU370      0.2260
     35  O          0.5250   46.1770    4.3130 O.2   370  GLU370     -0.2867
     36  CB         0.8970   43.5720    3.7480 C.3   370  GLU370      0.0388
     37  CG         0.9640   42.1010    3.3810 C.3   370  GLU370      0.1160
     38  CD         1.4430   41.2500    4.5660 C.2   370  GLU370      0.3649
     39  OE1        0.7600   41.2710    5.6300 O.co2 370  GLU370     -0.2457
     40  OE2        2.5150   40.5760    4.4490 O.co2 370  GLU370     -0.2457
     41  N          2.8130   47.7900    4.6710 N.3   372  GLN372     -0.1245
     42  CA         3.4060   48.0100    5.9810 C.3   372  GLN372      0.1566
     43  C          4.0940   49.3630    6.1500 C.2   372  GLN372      0.2260
     44  O          4.2060   49.8300    7.2420 O.2   372  GLN372     -0.2867
     45  CB         4.3910   46.9100    6.2950 C.3   372  GLN372      0.0367
     46  CG         3.8190   45.7970    7.1340 C.3   372  GLN372      0.0905
     47  CD         4.8370   44.6910    7.3470 C.2   372  GLN372      0.2608
     48  OE1        5.4740   44.1950    6.4050 O.2   372  GLN372     -0.2717
     49  NE2        4.9990   44.2990    8.5880 N.am  372  GLN372     -0.0878
     50  N          9.8700   40.1060   12.1590 N.3   419  ASN419     -0.1225
     51  CA         9.8060   38.9800   11.2910 C.3   419  ASN419      0.1785
     52  C         11.1110   38.7390   10.5530 C.2   419  ASN419      0.2597
     53  O         12.1520   39.3880   10.7910 O.2   419  ASN419     -0.2718
     54  CB         8.6530   39.1520   10.3240 C.3   419  ASN419      0.1169
     55  CG         8.9050   40.2350    9.3000 C.2   419  ASN419      0.2627
     56  OD1        9.9570   40.8550    9.2920 O.2   419  ASN419     -0.2716
     57  ND2        7.9400   40.4620    8.4160 N.am  419  ASN419     -0.0877
     58  N         11.0680   37.8060    9.6170 N.am  420  TRP420     -0.1962
     59  CA        12.2640   37.5090    8.8820 C.3   420  TRP420      0.1771
     60  C         12.9550   38.7090    8.2200 C.2   420  TRP420      0.2619
     61  O         14.1720   38.6800    8.0350 O.2   420  TRP420     -0.2715
     62  CB        11.9410   36.4240    7.9280 C.3   420  TRP420      0.0590
     63  CG        13.1510   35.7500    7.3660 C.ar  420  TRP420      0.0006
     64  CD1       13.8580   34.6590    7.8830 C.ar  420  TRP420      0.0946
     65  CD2       13.8150   36.0790    6.1080 C.ar  420  TRP420      0.0152
     66  NE1       14.9010   34.3260    7.0470 N.ar  420  TRP420     -0.2442
     67  CE2       14.9260   35.1400    5.9710 C.ar  420  TRP420      0.0810
     68  CE3       13.6020   37.0300    5.1140 C.ar  420  TRP420      0.0012
     69  CZ2       15.7660   35.1680    4.8790 C.ar  420  TRP420      0.0191
     70  CZ3       14.4630   37.0570    4.0230 C.ar  420  TRP420      0.0001
     71  CH2       15.5160   36.1480    3.9110 C.ar  420  TRP420      0.0015
     72  N         12.1880   39.7430    7.9030 N.am  421  PHE421     -0.1974
     73  CA        12.6700   40.9220    7.1940 C.3   421  PHE421      0.1639
     74  C         13.0650   42.0660    8.1110 C.2   421  PHE421      0.2290
     75  O         13.3390   43.1570    7.6520 O.2   421  PHE421     -0.2864
     76  CB        11.5960   41.4340    6.2450 C.3   421  PHE421      0.0560
     77  CG        11.2160   40.4630    5.1730 C.ar  421  PHE421     -0.0200
     78  CD1       10.1000   39.6700    5.3080 C.ar  421  PHE421     -0.0042
     79  CD2       11.9630   40.3620    4.0230 C.ar  421  PHE421     -0.0042
     80  CE1        9.7400   38.7840    4.3220 C.ar  421  PHE421     -0.0003
     81  CE2       11.6130   39.4770    3.0320 C.ar  421  PHE421     -0.0003
     82  CZ        10.4990   38.6860    3.1810 C.ar  421  PHE421     -0.0000
     83  N          0.5620   44.7040   15.3980 N.3   645  SER645     -0.1202
     84  CA         0.9820   44.3810   14.0830 C.3   645  SER645      0.2020
     85  C         -0.1730   44.7930   13.1700 C.2   645  SER645      0.2619
     86  O         -0.9270   45.7170   13.4790 O.2   645  SER645     -0.2717
     87  CB         1.2810   42.8750   14.0310 C.3   645  SER645      0.2103
     88  OG         0.2090   42.0910   14.5670 O.3   645  SER645     -0.2182
     89  N         -0.3110   44.1320   12.0340 N.am  646  LYS646     -0.1965
     90  CA        -1.2550   44.5770   11.0420 C.3   646  LYS646      0.1728
     91  C         -2.6620   44.1930   11.4650 C.2   646  LYS646      0.2616
     92  O         -3.5620   45.0250   11.4970 O.2   646  LYS646     -0.2715
     93  CB        -0.8540   44.0070    9.6940 C.3   646  LYS646      0.0311
     94  CG        -1.8840   44.1180    8.6160 C.3   646  LYS646      0.0038
     95  CD        -1.6140   43.0180    7.6220 C.3   646  LYS646      0.0206
     96  CE        -2.8190   42.7480    6.7590 C.3   646  LYS646      0.1093
     97  NZ        -2.7890   41.3250    6.3480 N.3   646  LYS646     -0.1314
     98  N         -2.8420   42.9400   11.8360 N.am  647  SER647     -0.1950
     99  CA        -4.1500   42.4730   12.2250 C.3   647  SER647      0.1924
    100  C         -4.1370   42.0700   13.6860 C.2   647  SER647      0.2314
    101  O         -5.1650   41.6970   14.2330 O.2   647  SER647     -0.2863
    102  CB        -4.5510   41.3140   11.3220 C.3   647  SER647      0.2116
    103  OG        -3.6050   40.2960   11.4660 O.3   647  SER647     -0.2180
    104  N         -2.6730   39.4880   15.4950 N.3   649  ASN649     -0.1225
    105  CA        -3.1430   38.1170   15.6360 C.3   649  ASN649      0.1785
    106  C         -1.9410   37.2330   15.7730 C.2   649  ASN649      0.2597
    107  O         -1.9510   36.2170   16.4510 O.2   649  ASN649     -0.2718
    108  CB        -3.9640   37.7000   14.4100 C.3   649  ASN649      0.1169
    109  CG        -5.4530   37.9550   14.5920 C.2   649  ASN649      0.2627
    110  OD1       -5.9470   38.0280   15.7120 O.2   649  ASN649     -0.2716
    111  ND2       -6.1690   38.1010   13.4900 N.am  649  ASN649     -0.0877
    112  N         -0.8830   37.6510   15.1190 N.am  650  ASP650     -0.1960
    113  CA         0.3020   36.8780   15.0450 C.3   650  ASP650      0.1840
    114  C          1.4050   37.7070   15.7150 C.2   650  ASP650      0.2621
    115  O          1.6600   37.5560   16.9150 O.2   650  ASP650     -0.2715
    116  CB         0.5400   36.4880   13.5760 C.3   650  ASP650      0.1450
    117  CG        -0.7200   35.8210   12.9180 C.2   650  ASP650      0.3671
    118  OD1       -1.5350   35.1690   13.6050 O.co2 650  ASP650     -0.2456
    119  OD2       -0.9240   35.9420   11.6890 O.co2 650  ASP650     -0.2456
    120  N          2.0190   38.6340   15.0100 N.am  651  ARG651     -0.1977
    121  CA         3.1640   39.3230   15.6360 C.3   651  ARG651      0.1597
    122  C          2.8120   40.1010   16.9060 C.2   651  ARG651      0.2287
    123  O          3.5980   40.1130   17.8950 O.2   651  ARG651     -0.2864
    124  CB         3.8750   40.2320   14.6540 C.3   651  ARG651      0.0334
    125  CG         4.4660   39.4610   13.5180 C.3   651  ARG651      0.0492
    126  CD         4.8970   40.4620   12.5010 C.3   651  ARG651      0.2205
    127  NE         3.7110   40.9490   11.8340 N.pl3 651  ARG651     -0.0865
    128  CZ         3.7520   41.7000   10.7500 C.cat 651  ARG651      0.5346
    129  NH1        4.9280   42.0360   10.2290 N.pl3 651  ARG651      0.1354
    130  NH2        2.6140   42.1050   10.2070 N.pl3 651  ARG651      0.1354
    131  N         -0.2310   32.5950   13.9140 N.3   717  LYS717     -0.1231
    132  CA         0.7120   31.8600   13.0390 C.3   717  LYS717      0.1693
    133  C          2.0480   32.5580   12.8500 C.2   717  LYS717      0.2592
    134  O          2.6860   32.3680   11.8340 O.2   717  LYS717     -0.2718
    135  CB         0.0860   31.4890   11.6620 C.3   717  LYS717      0.0285
    136  CG        -0.2450   32.6830   10.7750 C.3   717  LYS717      0.0035
    137  CD        -1.1460   32.3520    9.5940 C.3   717  LYS717      0.0206
    138  CE        -2.1220   33.4990    9.2670 C.3   717  LYS717      0.1093
    139  NZ        -1.5620   34.8670    9.5230 N.3   717  LYS717     -0.1314
    140  N          2.4950   33.3290   13.8290 N.am  718  PHE718     -0.1962
    141  CA         3.7970   33.9840   13.7490 C.3   718  PHE718      0.1771
    142  C          4.8520   32.9580   13.4750 C.2   718  PHE718      0.2619
    143  O          4.9270   32.0120   14.1940 O.2   718  PHE718     -0.2715
    144  CB         4.1430   34.5930   15.0780 C.3   718  PHE718      0.0574
    145  CG         5.5550   35.1250   15.1590 C.ar  718  PHE718     -0.0200
    146  CD1        5.9270   36.2680   14.4660 C.ar  718  PHE718     -0.0042
    147  CD2        6.5030   34.5190   15.9880 C.ar  718  PHE718     -0.0042
    148  CE1        7.2070   36.7710   14.5710 C.ar  718  PHE718     -0.0003
    149  CE2        7.8040   35.0210   16.0950 C.ar  718  PHE718     -0.0003
    150  CZ         8.1590   36.1410   15.3750 C.ar  718  PHE718     -0.0000
    151  N          5.6710   33.1610   12.4530 N.am  719  GLU719     -0.1977
    152  CA         6.8110   32.3060   12.1800 C.3   719  GLU719      0.1602
    153  C          7.9320   32.6430   13.1340 C.2   719  GLU719      0.2287
    154  O          8.5830   33.6790   13.0080 O.2   719  GLU719     -0.2864
    155  CB         7.2910   32.4980   10.7430 C.3   719  GLU719      0.0415
    156  CG         6.3040   32.0840    9.6530 C.3   719  GLU719      0.1163
    157  CD         6.1080   30.5750    9.6200 C.2   719  GLU719      0.3649
    158  OE1        4.9630   30.1120    9.3630 O.co2 719  GLU719     -0.2457
    159  OE2        7.1060   29.8580    9.8850 O.co2 719  GLU719     -0.2457
    160  N         11.3520   32.9600   14.7870 N.3   721  GLN721     -0.1245
    161  CA        12.6580   33.1440   14.1480 C.3   721  GLN721      0.1566
    162  C         13.7940   32.4520   14.8850 C.2   721  GLN721      0.2260
    163  O         14.8190   32.1500   14.2700 O.2   721  GLN721     -0.2867
    164  CB        12.9930   34.6250   14.0170 C.3   721  GLN721      0.0367
    165  CG        11.9550   35.4240   13.2520 C.3   721  GLN721      0.0905
    166  CD        11.8610   35.0450   11.7930 C.2   721  GLN721      0.2608
    167  OE1       10.8030   34.6490   11.3220 O.2   721  GLN721     -0.2717
    168  NE2       12.9600   35.1820   11.0630 N.am  721  GLN721     -0.0878
    169  N         -7.6170   31.1990    6.3450 N.3   740  LYS740     -0.1245
    170  CA        -7.0010   31.6500    5.1130 C.3   740  LYS740      0.1561
    171  C         -7.5610   31.0260    3.8430 C.2   740  LYS740      0.2260
    172  O         -7.6910   31.7040    2.8310 O.2   740  LYS740     -0.2867
    173  CB        -5.4940   31.4100    5.1740 C.3   740  LYS740      0.0271
    174  CG        -4.6560   32.5140    4.5550 C.3   740  LYS740      0.0035
    175  CD        -4.7200   33.7890    5.3780 C.3   740  LYS740      0.0206
    176  CE        -3.4320   34.5860    5.2580 C.3   740  LYS740      0.1093
    177  NZ        -3.4310   35.8010    6.1180 N.3   740  LYS740     -0.1314
@<TRIPOS>BOND
     1    25    24    1
     2    24    21    1
     3    24    26    1
     4    21    20    1
     5    21    22    1
     6    27    22   am
     7    27    28    1
     8    22    23    2
     9    28    31    1
    10    28    29    1
    11    29    30    2
    12    32    33    1
    13    14    13    2
    14    13    12    1
    15    33    34    1
    16    33    36    1
    17   172   171    2
    18    81    82   ar
    19    81    79   ar
    20    34    35    2
    21    82    80   ar
    22    37    36    1
    23    37    38    1
    24    16    17    1
    25    16    15    1
    26   171   170    1
    27    12    15    1
    28    12    11    1
    29    71    70   ar
    30    71    69   ar
    31    70    68   ar
    32    79    77   ar
    33    18    17    2
    34    80    78   ar
    35    40    38   ar
    36   174   173    1
    37   174   175    1
    38    38    39   ar
    39    17    19   am
    40    41    42    1
    41    69    67   ar
    42   170   173    1
    43   170   169    1
    44    68    65   ar
    45    77    78   ar
    46    77    76    1
    47   176   175    1
    48   176   177    1
    49    67    65   ar
    50    67    66   ar
    51    42    43    1
    52    42    45    1
    53    65    63   ar
    54    43    44    2
    55    76    73    1
    56    45    46    1
    57    97    96    1
    58    48    47    2
    59    96    95    1
    60    66    64   ar
    61    46    47    1
    62    73    72    1
    63    73    74    1
    64     4     3    2
    65    47    49   am
    66    63    64   ar
    67    63    62    1
    68    95    94    1
    69     8    10   ar
    70     8     6   ar
    71    75    74    2
    72    72    60   am
    73    62    59    1
    74    61    60    2
    75    10     9   ar
    76    60    59    1
    77     5     6    1
    78     5     2    1
    79     6     7   ar
    80    57    55   am
    81     3     2    1
    82    94    93    1
    83    59    58    1
    84     2     1    1
    85     9     7   ar
    86   138   139    1
    87   138   137    1
    88    56    55    2
    89    55    54    1
    90   158   157   ar
    91   137   136    1
    92    58    52   am
    93   157   156    1
    94   157   159   ar
    95   156   155    1
    96    93    90    1
    97   130   128    1
    98   129   128    1
    99    54    51    1
   100    52    53    2
   101    52    51    1
   102   155   152    1
   103   128   127    2
   104   136   135    1
   105    90    91    1
   106    90    89    1
   107   168   166   am
   108    51    50    1
   109   102   103    1
   110   102    99    1
   111   167   166    2
   112    91    92    2
   113    91    98   am
   114   135   132    1
   115   119   117   ar
   116   166   165    1
   117   134   133    2
   118   127   126    1
   119    98    99    1
   120    89    85   am
   121   152   151    1
   122   152   153    1
   123    99   100    1
   124   151   142   am
   125   126   125    1
   126   133   132    1
   127   133   140   am
   128   117   116    1
   129   117   118   ar
   130   154   153    2
   131   132   131    1
   132    85    86    2
   133    85    84    1
   134   165   164    1
   135   142   141    1
   136   142   143    2
   137   111   109   am
   138   125   124    1
   139   116   113    1
   140   100   101    2
   141   141   140    1
   142   141   144    1
   143   164   161    1
   144    87    84    1
   145    87    88    1
   146    84    83    1
   147   161   160    1
   148   161   162    1
   149   163   162    2
   150   108   109    1
   151   108   105    1
   152   146   148   ar
   153   146   145   ar
   154   148   150   ar
   155   109   110    2
   156   124   121    1
   157   120   121    1
   158   120   114   am
   159   113   112    1
   160   113   114    1
   161   144   145    1
   162   112   106   am
   163   145   147   ar
   164   150   149   ar
   165   104   105    1
   166   121   122    1
   167   105   106    1
   168   114   115    2
   169   106   107    2
   170   147   149   ar
   171   122   123    2
