@<TRIPOS>MOLECULE
tmp/4fyhB00.pdb
 135 130 0 0 0
SMALL
GASTEIGER

@<TRIPOS>ATOM
      1  N         13.5770   52.1710   25.1070 N.3     5  TYR5       -0.1227
      2  CA        12.6460   51.6950   24.0810 C.3     5  TYR5        0.1736
      3  C         12.9540   50.2350   23.8080 C.2     5  TYR5        0.2595
      4  O         14.0850   49.9040   23.4260 O.2     5  TYR5       -0.2718
      5  CB        12.8390   52.5060   22.7990 C.3     5  TYR5        0.0548
      6  CG        11.7750   52.3300   21.7330 C.ar    5  TYR5       -0.0200
      7  CD1       10.8600   53.3500   21.4670 C.ar    5  TYR5       -0.0009
      8  CD2       11.7020   51.1610   20.9700 C.ar    5  TYR5       -0.0009
      9  CE1        9.8910   53.2170   20.4780 C.ar    5  TYR5        0.0417
     10  CE2       10.7250   51.0110   19.9780 C.ar    5  TYR5        0.0417
     11  CZ         9.8240   52.0480   19.7380 C.ar    5  TYR5        0.1957
     12  OH         8.8610   51.9090   18.7570 O.3     5  TYR5       -0.2866
     13  N         11.9670   49.3610   24.0110 N.am    6  PHE6       -0.1962
     14  CA        12.1580   47.9230   23.7850 C.3     6  PHE6        0.1771
     15  C         11.4730   47.4500   22.5080 C.2     6  PHE6        0.2620
     16  O         10.3100   47.7880   22.2710 O.2     6  PHE6       -0.2715
     17  CB        11.6680   47.0780   24.9800 C.3     6  PHE6        0.0574
     18  CG        11.6850   45.5980   24.7000 C.ar    6  PHE6       -0.0200
     19  CD1       10.5120   44.9210   24.4160 C.ar    6  PHE6       -0.0042
     20  CD2       12.8920   44.9040   24.6470 C.ar    6  PHE6       -0.0042
     21  CE1       10.5280   43.5680   24.1190 C.ar    6  PHE6       -0.0003
     22  CE2       12.9210   43.5500   24.3490 C.ar    6  PHE6       -0.0003
     23  CZ        11.7320   42.8800   24.0850 C.ar    6  PHE6       -0.0000
     24  N         12.1910   46.6520   21.7100 N.am    7  CYS7       -0.1954
     25  CA        11.7040   46.1450   20.4120 C.3     7  CYS7        0.1843
     26  C         11.5690   44.6270   20.4050 C.2     7  CYS7        0.2626
     27  O         12.5060   43.9170   20.7640 O.2     7  CYS7       -0.2714
     28  CB        12.6590   46.5230   19.2780 C.3     7  CYS7        0.0997
     29  SG        13.1210   48.2610   19.1590 S.3     7  CYS7       -0.0797
     30  N         10.4200   44.1280   19.9690 N.am    8  GLY8       -0.1954
     31  CA        10.1920   42.6870   19.9240 C.3     8  GLY8        0.1869
     32  C          9.1130   42.3440   18.9210 C.2     8  GLY8        0.2309
     33  O          8.1290   43.0790   18.7880 O.2     8  GLY8       -0.2863
     34  N          6.0100   41.1780   16.8750 N.3    10  ILE10      -0.1231
     35  CA         4.5910   41.0390   17.1670 C.3    10  ILE10       0.1692
     36  C          3.9070   40.3390   15.9940 C.2    10  ILE10       0.2592
     37  O          3.5430   39.1680   16.1020 O.2    10  ILE10      -0.2718
     38  CB         3.9070   42.3890   17.5230 C.3    10  ILE10       0.0266
     39  CG1        4.6340   43.0780   18.6870 C.3    10  ILE10       0.0019
     40  CG2        2.4370   42.1640   17.8870 C.3    10  ILE10       0.0020
     41  CD1        4.0670   44.4680   19.0650 C.3    10  ILE10       0.0001
     42  N          3.7590   41.0240   14.8670 N.am   11  ARG11      -0.1966
     43  CA         3.1880   40.3660   13.6880 C.3    11  ARG11       0.1729
     44  C          4.1680   39.3950   12.9850 C.2    11  ARG11       0.2616
     45  O          3.7480   38.5310   12.2160 O.2    11  ARG11      -0.2715
     46  CB         2.5670   41.3750   12.7240 C.3    11  ARG11       0.0348
     47  CG         1.4780   42.2070   13.3830 C.3    11  ARG11       0.0492
     48  CD         0.2150   42.2890   12.5340 C.3    11  ARG11       0.2205
     49  NE        -0.5850   41.0760   12.6640 N.pl3  11  ARG11      -0.0865
     50  CZ        -1.8420   41.0360   13.1000 C.cat  11  ARG11       0.5346
     51  NH1       -2.4870   42.1480   13.4320 N.pl3  11  ARG11       0.1354
     52  NH2       -2.4680   39.8740   13.1740 N.pl3  11  ARG11       0.1354
     53  N          5.4600   39.5380   13.2660 N.am   12  GLY12      -0.1955
     54  CA         6.4500   38.5290   12.8880 C.3    12  GLY12       0.1869
     55  C          6.2820   37.2380   13.6820 C.2    12  GLY12       0.2309
     56  O          6.8350   36.1980   13.3220 O.2    12  GLY12      -0.2863
     57  N          7.7490   51.6780   25.7040 N.3    35  THR35      -0.1218
     58  CA         6.9060   50.8460   24.8510 C.3    35  THR35       0.1862
     59  C          5.9600   49.9420   25.6500 C.2    35  THR35       0.2287
     60  O          6.3900   48.9880   26.3110 O.2    35  THR35      -0.2866
     61  CB         7.7680   50.0180   23.8510 C.3    35  THR35       0.1770
     62  OG1        8.9380   49.5140   24.5140 O.3    35  THR35      -0.2211
     63  CG2        8.2090   50.8880   22.6910 C.3    35  THR35       0.0375
     64  N         -3.1060   52.2310   12.3550 N.3    37  ASP37      -0.1239
     65  CA        -1.6920   51.9350   12.1050 C.3    37  ASP37       0.1674
     66  C         -0.7890   53.1730   12.1150 C.2    37  ASP37       0.2266
     67  O          0.3430   53.1090   12.6050 O.2    37  ASP37      -0.2867
     68  CB        -1.5240   51.1590   10.7930 C.3    37  ASP37       0.1410
     69  CG        -2.1570   49.7750   10.8430 C.2    37  ASP37       0.3668
     70  OD1       -3.0030   49.4760    9.9790 O.co2  37  ASP37      -0.2456
     71  OD2       -1.8280   48.9870   11.7440 O.co2  37  ASP37      -0.2456
     72  N         -0.1340   54.1380   15.7130 N.3    40  ILE40      -0.1245
     73  CA         0.8740   53.2170   16.2200 C.3    40  ILE40       0.1561
     74  C          2.2630   53.6670   15.7770 C.2    40  ILE40       0.2260
     75  O          3.1710   53.7920   16.6120 O.2    40  ILE40      -0.2867
     76  CB         0.5900   51.7610   15.7960 C.3    40  ILE40       0.0252
     77  CG1       -0.5110   51.1760   16.6860 C.3    40  ILE40       0.0019
     78  CG2        1.8500   50.9000   15.9140 C.3    40  ILE40       0.0019
     79  CD1       -1.2520   50.0100   16.0780 C.3    40  ILE40       0.0001
     80  N          5.0310   55.4380   18.3170 N.3    44  ASN44      -0.1240
     81  CA         6.3130   54.7470   18.3890 C.3    44  ASN44       0.1653
     82  C          7.4910   55.6150   17.9790 C.2    44  ASN44       0.2266
     83  O          8.5010   55.6420   18.6800 O.2    44  ASN44      -0.2867
     84  CB         6.2830   53.4580   17.5670 C.3    44  ASN44       0.1155
     85  CG         5.5240   52.3440   18.2630 C.2    44  ASN44       0.2627
     86  OD1        5.2980   52.3930   19.4680 O.2    44  ASN44      -0.2716
     87  ND2        5.1270   51.3380   17.5060 N.am   44  ASN44      -0.0877
     88  N          8.0570   58.1250   20.8020 N.3    47  TRP47      -0.1241
     89  CA         8.7740   57.4660   21.9010 C.3    47  TRP47       0.1605
     90  C         10.2380   57.1700   21.5570 C.2    47  TRP47       0.2264
     91  O         11.1140   57.2640   22.4200 O.2    47  TRP47      -0.2867
     92  CB         8.0700   56.1670   22.3240 C.3    47  TRP47       0.0550
     93  CG         6.8000   56.3420   23.1210 C.ar   47  TRP47       0.0003
     94  CD1        6.4950   57.3720   23.9780 C.ar   47  TRP47       0.0946
     95  CD2        5.6800   55.4420   23.1700 C.ar   47  TRP47       0.0152
     96  NE1        5.2540   57.1750   24.5340 N.ar   47  TRP47      -0.2442
     97  CE2        4.7330   55.9980   24.0630 C.ar   47  TRP47       0.0810
     98  CE3        5.3800   54.2300   22.5380 C.ar   47  TRP47       0.0012
     99  CZ2        3.5000   55.3820   24.3360 C.ar   47  TRP47       0.0191
    100  CZ3        4.1610   53.6090   22.8170 C.ar   47  TRP47       0.0001
    101  CH2        3.2350   54.1900   23.7060 C.ar   47  TRP47       0.0015
    102  N         11.3260   40.0530   12.2200 N.3    62  SER62      -0.1202
    103  CA        10.2200   40.9950   12.2710 C.3    62  SER62       0.2020
    104  C         10.5340   42.2680   11.4870 C.2    62  SER62       0.2619
    105  O         11.6030   42.8750   11.6640 O.2    62  SER62      -0.2717
    106  CB         9.8820   41.3330   13.7260 C.3    62  SER62       0.2103
    107  OG         9.0970   42.5140   13.8150 O.3    62  SER62      -0.2182
    108  N          9.5960   42.6650   10.6310 N.am   63  LEU63      -0.1965
    109  CA         9.6890   43.9190    9.8710 C.3    63  LEU63       0.1728
    110  C          9.7470   45.1330   10.7920 C.2    63  LEU63       0.2617
    111  O         10.6040   46.0060   10.6160 O.2    63  LEU63      -0.2715
    112  CB         8.4860   44.0590    8.9250 C.3    63  LEU63       0.0311
    113  CG         8.5270   43.7830    7.4120 C.3    63  LEU63       0.0022
    114  CD1        9.6340   42.8640    6.9440 C.3    63  LEU63       0.0001
    115  CD2        7.1610   43.2760    6.9490 C.3    63  LEU63       0.0001
    116  N          8.8400   45.1800   11.7740 N.am   64  GLY64      -0.1940
    117  CA         8.7520   46.3040   12.7120 C.3    64  GLY64       0.2014
    118  C          9.9890   46.5030   13.5740 C.2    64  GLY64       0.2638
    119  O         10.4450   47.6350   13.7700 O.2    64  GLY64      -0.2714
    120  N         10.5430   45.4100   14.0900 N.am   65  VAL65      -0.1977
    121  CA        11.7710   45.4780   14.8860 C.3    65  VAL65       0.1596
    122  C         12.9050   46.0450   14.0460 C.2    65  VAL65       0.2287
    123  O         13.6060   46.9700   14.4830 O.2    65  VAL65      -0.2864
    124  CB        12.1520   44.1010   15.4880 C.3    65  VAL65       0.0276
    125  CG1       13.4390   44.1900   16.2600 C.3    65  VAL65       0.0022
    126  CG2       11.0430   43.6100   16.4080 C.3    65  VAL65       0.0022
    127  N         12.2910   49.7370   13.3430 N.3    68  GLU68      -0.1245
    128  CA        12.5920   50.4710   14.5730 C.3    68  GLU68       0.1567
    129  C         14.1000   50.6680   14.7240 C.2    68  GLU68       0.2260
    130  O         14.5540   51.8020   14.9210 O.2    68  GLU68      -0.2867
    131  CB        12.0020   49.7630   15.8020 C.3    68  GLU68       0.0388
    132  CG        10.4940   49.9900   15.9690 C.3    68  GLU68       0.1160
    133  CD         9.8540   49.0870   17.0150 C.2    68  GLU68       0.3649
    134  OE1        8.8650   49.5250   17.6220 O.co2  68  GLU68      -0.2457
    135  OE2       10.3230   47.9490   17.2340 O.co2  68  GLU68      -0.2457
@<TRIPOS>BOND
     1   114   113    1
     2   115   113    1
     3   113   112    1
     4   112   109    1
     5   109   108    1
     6   109   110    1
     7    70    69   ar
     8   111   110    2
     9   108   104   am
    10   110   116   am
    11    68    69    1
    12    68    65    1
    13    69    71   ar
    14   104   105    2
    15   104   103    1
    16   116   117    1
    17    65    66    1
    18    65    64    1
    19    66    67    2
    20    45    44    2
    21   102   103    1
    22   103   106    1
    23    48    49    1
    24    48    47    1
    25    49    50    2
    26   117   118    1
    27    46    47    1
    28    46    43    1
    29    54    53    1
    30    54    55    1
    31    44    53   am
    32    44    43    1
    33    50    52    1
    34    50    51    1
    35    56    55    2
    36   127   128    1
    37   118   119    2
    38   118   120   am
    39    43    42    1
    40   106   107    1
    41   122   123    2
    42   122   121    1
    43   120   121    1
    44   128   129    1
    45   128   131    1
    46   129   130    2
    47    42    36   am
    48   121   124    1
    49   124   125    1
    50   124   126    1
    51    72    73    1
    52    74    73    1
    53    74    75    2
    54    76    78    1
    55    76    73    1
    56    76    77    1
    57   131   132    1
    58   132   133    1
    59    36    37    2
    60    36    35    1
    61    79    77    1
    62    34    35    1
    63   133   135   ar
    64   133   134   ar
    65    35    38    1
    66    87    85   am
    67    38    40    1
    68    38    39    1
    69    84    85    1
    70    84    81    1
    71    82    81    1
    72    82    83    2
    73    85    86    2
    74    80    81    1
    75    39    41    1
    76    12    11    1
    77    33    32    2
    78    32    31    1
    79    29    28    1
    80    28    25    1
    81    11    10   ar
    82    11     9   ar
    83    31    30    1
    84    30    26   am
    85    10     8   ar
    86    26    25    1
    87    26    27    2
    88    25    24    1
    89     9     7   ar
    90    88    89    1
    91     8     6   ar
    92     7     6   ar
    93    90    89    1
    94    90    91    2
    95    24    15   am
    96     6     5    1
    97    89    92    1
    98    16    15    2
    99    92    93    1
   100    15    14    1
   101    98   100   ar
   102    98    95   ar
   103    63    61    1
   104     5     2    1
   105   100   101   ar
   106    93    95   ar
   107    93    94   ar
   108    95    97   ar
   109     4     3    2
   110   101    99   ar
   111    14    13    1
   112    14    17    1
   113     3    13   am
   114     3     2    1
   115    61    62    1
   116    61    58    1
   117    94    96   ar
   118    97    99   ar
   119    97    96   ar
   120     2     1    1
   121    23    21   ar
   122    23    22   ar
   123    21    19   ar
   124    22    20   ar
   125    19    18   ar
   126    20    18   ar
   127    18    17    1
   128    58    59    1
   129    58    57    1
   130    59    60    2
