@<TRIPOS>MOLECULE
tmp/4fyiC00.pdb
 135 130 0 0 0
SMALL
GASTEIGER

@<TRIPOS>ATOM
      1  N         32.3320   52.3540   30.7660 N.3     4  TYR4       -0.1227
      2  CA        33.2740   51.8750   31.7710 C.3     4  TYR4        0.1736
      3  C         32.9200   50.4120   32.0410 C.2     4  TYR4        0.2595
      4  O         31.7820   50.1200   32.3960 O.2     4  TYR4       -0.2718
      5  CB        33.1240   52.7120   33.0390 C.3     4  TYR4        0.0548
      6  CG        34.1490   52.4560   34.1270 C.ar    4  TYR4       -0.0200
      7  CD1       35.1750   53.3710   34.3700 C.ar    4  TYR4       -0.0009
      8  CD2       34.0840   51.3190   34.9300 C.ar    4  TYR4       -0.0009
      9  CE1       36.1020   53.1600   35.3670 C.ar    4  TYR4        0.0417
     10  CE2       35.0090   51.0960   35.9270 C.ar    4  TYR4        0.0417
     11  CZ        36.0230   52.0220   36.1410 C.ar    4  TYR4        0.1957
     12  OH        36.9540   51.8220   37.1270 O.3     4  TYR4       -0.2866
     13  N         33.8670   49.4970   31.8400 N.am    5  PHE5       -0.1962
     14  CA        33.6300   48.0710   32.1010 C.3     5  PHE5        0.1771
     15  C         34.3190   47.6200   33.3840 C.2     5  PHE5        0.2620
     16  O         35.4920   47.9130   33.5760 O.2     5  PHE5       -0.2715
     17  CB        34.1030   47.1870   30.9370 C.3     5  PHE5        0.0574
     18  CG        33.9990   45.7220   31.2440 C.ar    5  PHE5       -0.0200
     19  CD1       35.1260   44.9710   31.5240 C.ar    5  PHE5       -0.0042
     20  CD2       32.7570   45.1130   31.3390 C.ar    5  PHE5       -0.0042
     21  CE1       35.0190   43.6240   31.8570 C.ar    5  PHE5       -0.0003
     22  CE2       32.6410   43.7570   31.6800 C.ar    5  PHE5       -0.0003
     23  CZ        33.7750   43.0190   31.9250 C.ar    5  PHE5       -0.0000
     24  N         33.5970   46.8790   34.2270 N.am    6  CYS6       -0.1954
     25  CA        34.1150   46.3230   35.4920 C.3     6  CYS6        0.1843
     26  C         34.1660   44.7910   35.4750 C.2     6  CYS6        0.2626
     27  O         33.2000   44.1220   35.0880 O.2     6  CYS6       -0.2714
     28  CB        33.2290   46.7120   36.6920 C.3     6  CYS6        0.0997
     29  SG        32.5950   48.3920   36.7330 S.3     6  CYS6       -0.0797
     30  N         35.2870   44.2370   35.9100 N.am    7  GLY7       -0.1954
     31  CA        35.4160   42.7900   36.0610 C.3     7  GLY7        0.1869
     32  C         36.5150   42.4830   37.0450 C.2     7  GLY7        0.2309
     33  O         37.4410   43.2720   37.1840 O.2     7  GLY7       -0.2863
     34  N         39.7430   41.2870   39.0040 N.3     9  ILE9       -0.1231
     35  CA        41.1690   41.1120   38.7180 C.3     9  ILE9        0.1692
     36  C         41.8100   40.3890   39.9030 C.2     9  ILE9        0.2592
     37  O         42.0490   39.1830   39.8170 O.2     9  ILE9       -0.2718
     38  CB        41.8800   42.4450   38.3720 C.3     9  ILE9        0.0266
     39  CG1       41.2730   43.0490   37.1060 C.3     9  ILE9        0.0019
     40  CG2       43.4030   42.2160   38.1510 C.3     9  ILE9        0.0020
     41  CD1       41.8410   44.4250   36.7450 C.3     9  ILE9        0.0001
     42  N         42.0250   41.0930   41.0190 N.am   10  ARG10      -0.1966
     43  CA        42.5470   40.4590   42.2390 C.3    10  ARG10       0.1729
     44  C         41.4980   39.6170   42.9540 C.2    10  ARG10       0.2616
     45  O         41.8360   38.7720   43.7800 O.2    10  ARG10      -0.2715
     46  CB        43.1800   41.4880   43.1850 C.3    10  ARG10       0.0348
     47  CG        44.5510   41.9030   42.7040 C.3    10  ARG10       0.0492
     48  CD        45.2340   42.9150   43.6040 C.3    10  ARG10       0.2205
     49  NE        46.5760   43.2270   43.1100 N.pl3  10  ARG10      -0.0865
     50  CZ        47.2910   44.3070   43.4310 C.cat  10  ARG10       0.5346
     51  NH1       46.8170   45.2480   44.2510 N.pl3  10  ARG10       0.1354
     52  NH2       48.5100   44.4480   42.9190 N.pl3  10  ARG10       0.1354
     53  N         40.2230   39.8210   42.6300 N.am   11  GLY11      -0.1955
     54  CA        39.1920   38.8680   43.0410 C.3    11  GLY11       0.1869
     55  C         39.3390   37.5010   42.3680 C.2    11  GLY11       0.2309
     56  O         38.7620   36.5120   42.8250 O.2    11  GLY11      -0.2863
     57  N         38.0520   51.6020   30.0520 N.3    34  THR34      -0.1218
     58  CA        38.9030   50.7360   30.8420 C.3    34  THR34       0.1862
     59  C         39.7800   49.8630   29.9140 C.2    34  THR34       0.2287
     60  O         41.0200   49.9970   29.9090 O.2    34  THR34      -0.2866
     61  CB        38.0510   49.9620   31.8800 C.3    34  THR34       0.1770
     62  OG1       36.8330   49.5130   31.2790 O.3    34  THR34      -0.2211
     63  CG2       37.6930   50.8720   33.0440 C.3    34  THR34       0.0375
     64  N         48.9340   51.8150   43.2530 N.3    37  ASP37      -0.1239
     65  CA        47.5100   51.7060   43.5600 C.3    37  ASP37       0.1674
     66  C         46.7900   53.0540   43.5370 C.2    37  ASP37       0.2266
     67  O         45.6750   53.1460   43.0490 O.2    37  ASP37      -0.2867
     68  CB        47.3030   51.0560   44.9330 C.3    37  ASP37       0.1410
     69  CG        47.9390   49.6700   45.0370 C.2    37  ASP37       0.3668
     70  OD1       48.6700   49.4280   46.0250 O.co2  37  ASP37      -0.2456
     71  OD2       47.7220   48.8390   44.1360 O.co2  37  ASP37      -0.2456
     72  N         46.0590   53.9610   39.9890 N.3    40  ILE40      -0.1245
     73  CA        45.0060   53.0780   39.4740 C.3    40  ILE40       0.1561
     74  C         43.6460   53.5600   39.9540 C.2    40  ILE40       0.2260
     75  O         42.7330   53.7480   39.1510 O.2    40  ILE40      -0.2867
     76  CB        45.2170   51.6070   39.8900 C.3    40  ILE40       0.0252
     77  CG1       46.3990   51.0080   39.1280 C.3    40  ILE40       0.0019
     78  CG2       43.9430   50.7720   39.6500 C.3    40  ILE40       0.0019
     79  CD1       46.9130   49.7410   39.7370 C.3    40  ILE40       0.0001
     80  N         40.8940   55.4580   37.4960 N.3    44  ASN44      -0.1240
     81  CA        39.6100   54.7580   37.3300 C.3    44  ASN44       0.1653
     82  C         38.4410   55.6280   37.7540 C.2    44  ASN44       0.2266
     83  O         37.4190   55.6700   37.0740 O.2    44  ASN44      -0.2867
     84  CB        39.5920   53.4150   38.0780 C.3    44  ASN44       0.1155
     85  CG        40.2980   52.3200   37.3200 C.2    44  ASN44       0.2627
     86  OD1       40.6550   52.4870   36.1560 O.2    44  ASN44      -0.2716
     87  ND2       40.5050   51.1830   37.9780 N.am   44  ASN44      -0.0877
     88  N         37.8690   58.1690   34.9640 N.3    47  TRP47      -0.1241
     89  CA        37.1550   57.4990   33.8680 C.3    47  TRP47       0.1605
     90  C         35.6830   57.2400   34.2090 C.2    47  TRP47       0.2264
     91  O         34.7980   57.4340   33.3720 O.2    47  TRP47      -0.2867
     92  CB        37.8430   56.1830   33.5020 C.3    47  TRP47       0.0550
     93  CG        39.1140   56.3190   32.6910 C.ar   47  TRP47       0.0003
     94  CD1       39.4580   57.3430   31.8420 C.ar   47  TRP47       0.0946
     95  CD2       40.1710   55.3560   32.6050 C.ar   47  TRP47       0.0152
     96  NE1       40.6860   57.0780   31.2570 N.ar   47  TRP47      -0.2442
     97  CE2       41.1380   55.8650   31.7090 C.ar   47  TRP47       0.0810
     98  CE3       40.4070   54.1240   33.2180 C.ar   47  TRP47       0.0012
     99  CZ2       42.3140   55.1750   31.4130 C.ar   47  TRP47       0.0191
    100  CZ3       41.5740   53.4370   32.9180 C.ar   47  TRP47       0.0001
    101  CH2       42.5150   53.9660   32.0270 C.ar   47  TRP47       0.0015
    102  N         34.4120   40.2970   43.8810 N.3    62  SER62      -0.1202
    103  CA        35.5300   41.2450   43.7700 C.3    62  SER62       0.2020
    104  C         35.2130   42.5260   44.5490 C.2    62  SER62       0.2619
    105  O         34.1400   43.0960   44.3880 O.2    62  SER62      -0.2717
    106  CB        35.7610   41.5810   42.2850 C.3    62  SER62       0.2103
    107  OG        36.5160   42.7730   42.1120 O.3    62  SER62      -0.2182
    108  N         36.1390   42.9600   45.4020 N.am   63  LEU63      -0.1965
    109  CA        36.0130   44.2370   46.1110 C.3    63  LEU63       0.1728
    110  C         36.0140   45.4270   45.1540 C.2    63  LEU63       0.2617
    111  O         35.2410   46.3730   45.3220 O.2    63  LEU63      -0.2715
    112  CB        37.1430   44.4140   47.1250 C.3    63  LEU63       0.0311
    113  CG        37.1440   43.4920   48.3350 C.3    63  LEU63       0.0022
    114  CD1       38.5040   43.5850   49.0640 C.3    63  LEU63       0.0001
    115  CD2       35.9910   43.8380   49.2720 C.3    63  LEU63       0.0001
    116  N         36.8940   45.3810   44.1610 N.am   64  GLY64      -0.1940
    117  CA        37.0660   46.5070   43.2460 C.3    64  GLY64       0.2014
    118  C         35.8360   46.7540   42.4020 C.2    64  GLY64       0.2638
    119  O         35.4140   47.9090   42.2090 O.2    64  GLY64      -0.2714
    120  N         35.2510   45.6690   41.9090 N.am   65  VAL65      -0.1977
    121  CA        34.0620   45.7460   41.0830 C.3    65  VAL65       0.1596
    122  C         32.9040   46.2920   41.9080 C.2    65  VAL65       0.2287
    123  O         32.1710   47.1800   41.4620 O.2    65  VAL65      -0.2864
    124  CB        33.6570   44.3710   40.5210 C.3    65  VAL65       0.0276
    125  CG1       32.2530   44.4580   39.9210 C.3    65  VAL65       0.0022
    126  CG2       34.6940   43.8860   39.4640 C.3    65  VAL65       0.0022
    127  N         33.5050   50.0040   42.5020 N.3    68  GLU68      -0.1245
    128  CA        33.1790   50.7380   41.2850 C.3    68  GLU68       0.1567
    129  C         31.6630   50.9360   41.1130 C.2    68  GLU68       0.2260
    130  O         31.2280   52.0190   40.7520 O.2    68  GLU68      -0.2867
    131  CB        33.7840   50.0270   40.0590 C.3    68  GLU68       0.0388
    132  CG        35.3100   50.1560   39.9590 C.3    68  GLU68       0.1160
    133  CD        35.9660   49.2230   38.9360 C.2    68  GLU68       0.3649
    134  OE1       36.9990   49.6190   38.3500 O.co2  68  GLU68      -0.2457
    135  OE2       35.4820   48.0910   38.7300 O.co2  68  GLU68      -0.2457
@<TRIPOS>BOND
     1    60    59    2
     2    59    58    1
     3    57    58    1
     4     1     2    1
     5    58    61    1
     6    17    18    1
     7    17    14    1
     8    18    20   ar
     9    18    19   ar
    10    96    97   ar
    11    96    94   ar
    12    62    61    1
    13    20    22   ar
    14    99    97   ar
    15    99   101   ar
    16    19    21   ar
    17    22    23   ar
    18    97    95   ar
    19     2     3    1
    20     2     5    1
    21    13     3   am
    22    13    14    1
    23    94    93   ar
    24    21    23   ar
    25    61    63    1
    26   101   100   ar
    27     3     4    2
    28    14    15    1
    29    95    93   ar
    30    95    98   ar
    31    93    92    1
    32   100    98   ar
    33     5     6    1
    34    91    90    2
    35    15    16    2
    36    15    24   am
    37    92    89    1
    38    89    90    1
    39    89    88    1
    40     6     7   ar
    41     6     8   ar
    42    24    25    1
    43     7     9   ar
    44     8    10   ar
    45    27    26    2
    46     9    11   ar
    47    26    25    1
    48    26    30   am
    49    25    28    1
    50    30    31    1
    51    10    11   ar
    52    31    32    1
    53    11    12    1
    54    86    85    2
    55    28    29    1
    56    41    39    1
    57    32    33    2
    58    83    82    2
    59    39    38    1
    60    85    87   am
    61    85    84    1
    62    81    80    1
    63    81    82    1
    64    81    84    1
    65    40    38    1
    66   134   133   ar
    67    38    35    1
    68    35    34    1
    69    35    36    1
    70   135   133   ar
    71   133   132    1
    72    77    79    1
    73    77    76    1
    74    75    74    2
    75   126   124    1
    76    73    76    1
    77    73    74    1
    78    73    72    1
    79    78    76    1
    80    37    36    2
    81    36    42   am
    82   125   124    1
    83   132   131    1
    84   131   128    1
    85   124   121    1
    86   130   129    2
    87    42    43    1
    88   121   122    1
    89   121   120    1
    90   129   128    1
    91   128   127    1
    92   123   122    2
    93   120   118   am
    94   107   106    1
    95   119   118    2
    96    43    44    1
    97    43    46    1
    98   106   103    1
    99    55    56    2
   100    55    54    1
   101   118   117    1
   102    53    44   am
   103    53    54    1
   104    47    46    1
   105    47    48    1
   106    52    50    1
   107    44    45    2
   108    67    66    2
   109    49    50    2
   110    49    48    1
   111   117   116    1
   112    64    65    1
   113    50    51    1
   114    66    65    1
   115    65    68    1
   116   103   102    1
   117   103   104    1
   118    71    69   ar
   119   116   110   am
   120   105   104    2
   121   104   108   am
   122    68    69    1
   123    69    70   ar
   124   110   111    2
   125   110   109    1
   126   108   109    1
   127   109   112    1
   128   112   113    1
   129   113   114    1
   130   113   115    1
