@<TRIPOS>MOLECULE
tmp/4fynA00.pdb
 170 159 0 0 0
SMALL
GASTEIGER

@<TRIPOS>ATOM
      1  N         -1.7160   -6.4180    6.1680 N.3    14  GLU14      -0.1231
      2  CA        -1.1930   -5.0740    6.2060 C.3    14  GLU14       0.1699
      3  C         -1.7380   -4.4190    7.4760 C.2    14  GLU14       0.2592
      4  O         -2.9500   -4.3740    7.6710 O.2    14  GLU14      -0.2718
      5  CB        -1.7050   -4.3480    4.9720 C.3    14  GLU14       0.0402
      6  CG        -0.8290   -3.2630    4.4420 C.3    14  GLU14       0.1161
      7  CD        -1.2170   -2.8990    3.0320 C.2    14  GLU14       0.3649
      8  OE1       -0.8380   -3.6420    2.1010 O.co2  14  GLU14      -0.2457
      9  OE2       -1.9060   -1.8750    2.8510 O.co2  14  GLU14      -0.2457
     10  N         -0.8550   -3.9360    8.3470 N.am   15  LEU15      -0.1980
     11  CA        -1.2880   -3.2980    9.5940 C.3    15  LEU15       0.1596
     12  C         -1.8860   -1.9130    9.3750 C.2    15  LEU15       0.2287
     13  O         -2.8820   -1.5540   10.0100 O.2    15  LEU15      -0.2864
     14  CB        -0.1370   -3.1940   10.5940 C.3    15  LEU15       0.0297
     15  CG         0.3090   -4.4220   11.3860 C.3    15  LEU15       0.0022
     16  CD1        1.4880   -4.0300   12.2620 C.3    15  LEU15       0.0001
     17  CD2       -0.8220   -4.9950   12.2230 C.3    15  LEU15       0.0001
     18  N          3.3560    6.9300    2.0820 N.3    19  PHE19      -0.1241
     19  CA         4.6450    6.3310    1.7290 C.3    19  PHE19       0.1605
     20  C          4.5190    4.9320    1.1390 C.2    19  PHE19       0.2264
     21  O          5.3840    4.4870    0.3780 O.2    19  PHE19      -0.2867
     22  CB         5.4980    6.2330    2.9980 C.3    19  PHE19       0.0534
     23  CG         4.8100    5.5040    4.1220 C.ar   19  PHE19      -0.0203
     24  CD1        3.9940    6.1940    5.0170 C.ar   19  PHE19      -0.0042
     25  CD2        4.9450    4.1240    4.2630 C.ar   19  PHE19      -0.0042
     26  CE1        3.3360    5.5240    6.0410 C.ar   19  PHE19      -0.0003
     27  CE2        4.2830    3.4430    5.2850 C.ar   19  PHE19      -0.0003
     28  CZ         3.4830    4.1460    6.1770 C.ar   19  PHE19      -0.0000
     29  N          2.5600   -0.6590    6.0460 N.3    22  VAL22      -0.1245
     30  CA         3.1190   -1.1200    7.3090 C.3    22  VAL22       0.1561
     31  C          2.6620   -2.5640    7.4960 C.2    22  VAL22       0.2260
     32  O          1.4660   -2.8380    7.5770 O.2    22  VAL22      -0.2867
     33  CB         2.6550   -0.2450    8.5110 C.3    22  VAL22       0.0252
     34  CG1        3.1300   -0.8300    9.8390 C.3    22  VAL22       0.0019
     35  CG2        3.1550    1.1820    8.3760 C.3    22  VAL22       0.0019
     36  N          7.1760   -4.5820   13.4060 N.3    37  ALA37      -0.1245
     37  CA         6.3500   -3.8610   12.4600 C.3    37  ALA37       0.1562
     38  C          7.2960   -3.2840   11.4220 C.2    37  ALA37       0.2260
     39  O          8.3820   -2.8170   11.7660 O.2    37  ALA37      -0.2867
     40  CB         5.5610   -2.7630   13.1650 C.3    37  ALA37       0.0290
     41  N          7.7790   -0.6320    8.2860 N.3    39  LYS39      -0.1245
     42  CA         7.4350    0.4410    7.3640 C.3    39  LYS39       0.1561
     43  C          8.0900    0.2070    5.9780 C.2    39  LYS39       0.2260
     44  O          9.3160    0.1630    5.8640 O.2    39  LYS39      -0.2867
     45  CB         7.8590    1.7780    7.9650 C.3    39  LYS39       0.0271
     46  CG         7.2220    2.9640    7.3080 C.3    39  LYS39       0.0035
     47  CD         7.9940    4.2200    7.6200 C.3    39  LYS39       0.0206
     48  CE         7.3820    5.4050    6.9010 C.3    39  LYS39       0.1093
     49  NZ         7.6660    6.6690    7.6330 N.3    39  LYS39      -0.1314
     50  N         14.7370    9.3220    9.1560 N.3    52  GLU52      -0.1245
     51  CA        13.8710    8.7760   10.2010 C.3    52  GLU52       0.1567
     52  C         14.5840    7.6830   11.0180 C.2    52  GLU52       0.2260
     53  O         14.6510    7.7590   12.2470 O.2    52  GLU52      -0.2867
     54  CB        12.5820    8.2450    9.5740 C.3    52  GLU52       0.0388
     55  CG        11.6440    7.5110   10.5270 C.3    52  GLU52       0.1160
     56  CD        10.2620    7.2700    9.9440 C.2    52  GLU52       0.3649
     57  OE1       10.1050    7.3560    8.6930 O.co2  52  GLU52      -0.2457
     58  OE2        9.3320    6.9840   10.7450 O.co2  52  GLU52      -0.2457
     59  N         15.8060    7.3980   15.2380 N.3    56  MET56      -0.1245
     60  CA        15.4460    6.3080   16.1560 C.3    56  MET56       0.1570
     61  C         16.6990    5.6070   16.6410 C.2    56  MET56       0.2261
     62  O         16.7830    5.1840   17.7930 O.2    56  MET56      -0.2867
     63  CB        14.4840    5.3240   15.4890 C.3    56  MET56       0.0387
     64  CG        13.1590    5.9610   15.0870 C.3    56  MET56       0.0595
     65  SD        11.9650    4.8210   14.3740 S.3    56  MET56      -0.1393
     66  CE        11.4480    3.9120   15.8400 C.3    56  MET56       0.0692
     67  N          9.4200    3.8770   20.9510 N.3    65  VAL65      -0.1245
     68  CA         9.5510    2.7240   20.0570 C.3    65  VAL65       0.1561
     69  C         11.0110    2.5580   19.6290 C.2    65  VAL65       0.2260
     70  O         11.6700    3.5380   19.2740 O.2    65  VAL65      -0.2867
     71  CB         8.6230    2.8700   18.7960 C.3    65  VAL65       0.0252
     72  CG1        8.9310    1.8120   17.7160 C.3    65  VAL65       0.0019
     73  CG2        7.1560    2.8060   19.2020 C.3    65  VAL65       0.0019
     74  N         11.7720   -0.2150    7.0250 N.3    78  LEU78      -0.1245
     75  CA        12.1730    0.1940    8.3680 C.3    78  LEU78       0.1561
     76  C         11.5230   -0.7320    9.4050 C.2    78  LEU78       0.2260
     77  O         10.3000   -0.7240    9.5970 O.2    78  LEU78      -0.2867
     78  CB        11.8120    1.6690    8.6240 C.3    78  LEU78       0.0270
     79  CG        12.1170    2.3420    9.9730 C.3    78  LEU78       0.0019
     80  CD1       13.6000    2.3020   10.2860 C.3    78  LEU78       0.0001
     81  CD2       11.6520    3.7820    9.9690 C.3    78  LEU78       0.0001
     82  N         10.9810   -2.3110   13.1120 N.3    80  MET80      -0.1230
     83  CA        10.8910   -1.8520   14.5000 C.3    80  MET80       0.1702
     84  C         10.2220   -2.8910   15.3740 C.2    80  MET80       0.2592
     85  O          9.3870   -3.6610   14.8960 O.2    80  MET80      -0.2718
     86  CB        10.0450   -0.5890   14.5880 C.3    80  MET80       0.0401
     87  CG        10.5860    0.6380   13.8800 C.3    80  MET80       0.0596
     88  SD         9.2080    1.7740   13.5410 S.3    80  MET80      -0.1393
     89  CE         8.5380    1.0350   12.0380 C.3    80  MET80       0.0692
     90  N         10.5790   -2.8780   16.6610 N.am   81  GLU81      -0.1966
     91  CA         9.8760   -3.6310   17.6970 C.3    81  GLU81       0.1733
     92  C          8.3900   -3.4760   17.4840 C.2    81  GLU81       0.2616
     93  O          7.9230   -2.3840   17.1800 O.2    81  GLU81      -0.2715
     94  CB        10.2080   -3.0690   19.0760 C.3    81  GLU81       0.0429
     95  CG        11.3590   -3.7400   19.7960 C.3    81  GLU81       0.1163
     96  CD        11.2300   -3.6570   21.3230 C.2    81  GLU81       0.3649
     97  OE1       10.6720   -2.6590   21.8360 O.co2  81  GLU81      -0.2457
     98  OE2       11.6910   -4.5930   22.0160 O.co2  81  GLU81      -0.2457
     99  N          7.6360   -4.5510   17.6520 N.am   82  MET82      -0.1963
    100  CA         6.1870   -4.4550   17.4940 C.3    82  MET82       0.1736
    101  C          5.5020   -3.9560   18.7700 C.2    82  MET82       0.2616
    102  O          5.7830   -4.4530   19.8590 O.2    82  MET82      -0.2715
    103  CB         5.6000   -5.7880   17.0390 C.3    82  MET82       0.0427
    104  CG         4.1030   -5.8470   17.1200 C.3    82  MET82       0.0599
    105  SD         3.3200   -4.8590   15.8440 S.3    82  MET82      -0.1393
    106  CE         3.2780   -6.0730   14.5520 C.3    82  MET82       0.0692
    107  N          4.6300   -2.9530   18.6140 N.am   83  ALA83      -0.1963
    108  CA         3.6950   -2.5260   19.6540 C.3    83  ALA83       0.1728
    109  C          2.3090   -3.1130   19.3490 C.2    83  ALA83       0.2616
    110  O          1.5570   -2.5830   18.5110 O.2    83  ALA83      -0.2715
    111  CB         3.6420   -1.0170   19.7300 C.3    83  ALA83       0.0334
    112  N          1.9650   -4.1870   20.0620 N.am   84  GLU84      -0.1963
    113  CA         0.8780   -5.0850   19.6540 C.3    84  GLU84       0.1733
    114  C         -0.5040   -4.4560   19.5640 C.2    84  GLU84       0.2616
    115  O         -1.2670   -4.7770   18.6360 O.2    84  GLU84      -0.2715
    116  CB         0.8200   -6.3340   20.5530 C.3    84  GLU84       0.0429
    117  CG         2.0800   -7.1870   20.5390 C.3    84  GLU84       0.1163
    118  CD         2.2630   -8.0160   19.2510 C.2    84  GLU84       0.3649
    119  OE1        3.3640   -8.5990   19.1180 O.co2  84  GLU84      -0.2457
    120  OE2        1.3370   -8.0920   18.3870 O.co2  84  GLU84      -0.2457
    121  N         -0.8250   -3.5880   20.5250 N.am   85  LEU85      -0.1963
    122  CA        -2.1650   -3.0260   20.6450 C.3    85  LEU85       0.1728
    123  C         -2.4050   -1.7630   19.7910 C.2    85  LEU85       0.2617
    124  O         -3.5180   -1.2450   19.7500 O.2    85  LEU85      -0.2715
    125  CB        -2.5080   -2.7790   22.1200 C.3    85  LEU85       0.0311
    126  CG        -3.0120   -3.9030   23.0460 C.3    85  LEU85       0.0022
    127  CD1       -2.2810   -5.2130   22.8630 C.3    85  LEU85       0.0001
    128  CD2       -2.8950   -3.4780   24.4850 C.3    85  LEU85       0.0001
    129  N         -1.3670   -1.2740   19.1070 N.am   86  GLY86      -0.1941
    130  CA        -1.5150   -0.1710   18.1500 C.3    86  GLY86       0.1998
    131  C         -1.7940    1.1980   18.7490 C.2    86  GLY86       0.2480
    132  O         -1.6280    1.3910   19.9670 O.2    86  GLY86      -0.2729
    133  N         -2.2380    2.1530   17.8990 N.am   87  PRO87      -0.2726
    134  CA        -2.4320    3.5790   18.2210 C.3    87  PRO87       0.1402
    135  C         -3.3550    3.8360   19.4090 C.2    87  PRO87       0.2269
    136  O         -4.4540    3.2940   19.4490 O.2    87  PRO87      -0.2865
    137  CB        -3.0730    4.1570   16.9540 C.3    87  PRO87       0.0296
    138  CG        -2.8110    3.1980   15.8830 C.3    87  PRO87       0.0237
    139  CD        -2.5920    1.8490   16.4970 C.3    87  PRO87       0.0939
    140  N         -7.1880    4.9090   18.7790 N.3    90  LYS90      -0.1245
    141  CA        -8.0930    3.8820   18.2970 C.3    90  LYS90       0.1561
    142  C         -8.3900    2.8830   19.3810 C.2    90  LYS90       0.2260
    143  O         -9.4810    2.3380   19.4300 O.2    90  LYS90      -0.2867
    144  CB        -7.5060    3.1580   17.0830 C.3    90  LYS90       0.0271
    145  CG        -7.6990    3.8970   15.8020 C.3    90  LYS90       0.0035
    146  CD        -6.7650    3.3590   14.7480 C.3    90  LYS90       0.0206
    147  CE        -7.0840    3.9220   13.3600 C.3    90  LYS90       0.1093
    148  NZ        -5.8260    3.9580   12.5390 N.3    90  LYS90      -0.1314
    149  N          1.6900    4.3340   20.6360 N.3   133  LEU133     -0.1245
    150  CA         1.3130    2.9480   20.4510 C.3   133  LEU133      0.1561
    151  C          1.3440    2.1980   21.7740 C.2   133  LEU133      0.2260
    152  O          2.1460    2.5210   22.6530 O.2   133  LEU133     -0.2867
    153  CB         2.2290    2.2670   19.4190 C.3   133  LEU133      0.0270
    154  CG         2.4880    3.0240   18.1180 C.3   133  LEU133      0.0019
    155  CD1        3.2680    2.1710   17.1930 C.3   133  LEU133      0.0001
    156  CD2        1.2100    3.5080   17.4170 C.3   133  LEU133      0.0001
    157  N          5.7960    6.9710   18.8960 N.3   143  SER143     -0.1202
    158  CA         6.2210    6.5360   17.5700 C.3   143  SER143      0.2020
    159  C          6.2470    7.7020   16.6030 C.2   143  SER143      0.2618
    160  O          6.0300    8.8510   17.0020 O.2   143  SER143     -0.2717
    161  CB         5.3080    5.4300   17.0290 C.3   143  SER143      0.2103
    162  OG         4.1090    5.9550   16.4910 O.3   143  SER143     -0.2182
    163  N          6.4970    7.3650   15.3360 N.am  144  ASP144     -0.1973
    164  CA         6.5190    8.2700   14.1760 C.3   144  ASP144      0.1709
    165  C          7.4620    9.4540   14.2430 C.2   144  ASP144      0.2293
    166  O          7.0490   10.5830   14.5520 O.2   144  ASP144     -0.2864
    167  CB         5.1270    8.7300   13.7530 C.3   144  ASP144      0.1436
    168  CG         5.1410    9.4120   12.3720 C.2   144  ASP144      0.3671
    169  OD1        4.0690    9.8540   11.8980 O.co2 144  ASP144     -0.2456
    170  OD2        6.2370    9.5130   11.7570 O.co2 144  ASP144     -0.2456
@<TRIPOS>BOND
     1    21    20    2
     2    20    19    1
     3    19    18    1
     4    19    22    1
     5     8     7   ar
     6     9     7   ar
     7    22    23    1
     8     7     6    1
     9    23    25   ar
    10    23    24   ar
    11    25    27   ar
    12     6     5    1
    13     5     2    1
    14    24    26   ar
    15    27    28   ar
    16    44    43    2
    17    43    42    1
    18    26    28   ar
    19    29    30    1
    20     1     2    1
    21     2     3    1
    22    48    47    1
    23    48    49    1
    24    74    75    1
    25    46    47    1
    26    46    45    1
    27    30    31    1
    28    30    33    1
    29    42    45    1
    30    42    41    1
    31     3     4    2
    32     3    10   am
    33    31    32    2
    34    10    11    1
    35    75    78    1
    36    75    76    1
    37    35    33    1
    38    33    34    1
    39    78    79    1
    40    57    56   ar
    41    50    51    1
    42    12    11    1
    43    12    13    2
    44    76    77    2
    45    54    51    1
    46    54    55    1
    47    11    14    1
    48    56    55    1
    49    56    58   ar
    50    81    79    1
    51    79    80    1
    52    51    52    1
    53    14    15    1
    54    52    53    2
    55    15    17    1
    56    15    16    1
    57    38    39    2
    58    38    37    1
    59   170   168   ar
    60   169   168   ar
    61    89    88    1
    62   168   167    1
    63    37    40    1
    64    37    36    1
    65   148   147    1
    66    82    83    1
    67   147   146    1
    68    88    87    1
    69   167   164    1
    70    87    86    1
    71   164   165    1
    72   164   163    1
    73   165   166    2
    74    65    64    1
    75    65    66    1
    76    83    86    1
    77    83    84    1
    78   106   105    1
    79   146   145    1
    80    85    84    2
    81    64    63    1
    82    59    60    1
    83   163   159   am
    84    84    90   am
    85    63    60    1
    86   145   144    1
    87   105   104    1
    88   138   139    1
    89   138   137    1
    90    60    61    1
    91   162   161    1
    92   139   133    1
    93   159   160    2
    94   159   158    1
    95    61    62    2
    96    90    91    1
    97   137   134    1
    98   161   158    1
    99   103   104    1
   100   103   100    1
   101   144   141    1
   102    93    92    2
   103   155   154    1
   104   156   154    1
   105    92    99   am
   106    92    91    1
   107   100    99    1
   108   100   101    1
   109   158   157    1
   110    91    94    1
   111    72    71    1
   112   133   134    1
   113   133   131   am
   114   154   153    1
   115   130   131    1
   116   130   129    1
   117   134   135    1
   118   141   140    1
   119   141   142    1
   120   120   118   ar
   121   110   109    2
   122   107   101   am
   123   107   108    1
   124   115   114    2
   125   131   132    2
   126   101   102    2
   127    71    73    1
   128    71    68    1
   129    94    95    1
   130   129   123   am
   131   119   118   ar
   132   118   117    1
   133    70    69    2
   134   109   108    1
   135   109   112   am
   136   142   143    2
   137   135   136    2
   138   153   150    1
   139   114   113    1
   140   114   121   am
   141    69    68    1
   142   113   112    1
   143   113   116    1
   144   108   111    1
   145   124   123    2
   146   123   122    1
   147    95    96    1
   148    68    67    1
   149   150   149    1
   150   150   151    1
   151   121   122    1
   152   117   116    1
   153   122   125    1
   154    96    97   ar
   155    96    98   ar
   156   151   152    2
   157   125   126    1
   158   127   126    1
   159   126   128    1
