@<TRIPOS>MOLECULE
tmp/4fyoA00.pdb
 175 165 0 0 0
SMALL
GASTEIGER

@<TRIPOS>ATOM
      1  N         -0.9910   -3.2150    8.1320 N.3    15  LEU15      -0.1231
      2  CA        -1.4890   -2.7140    9.4120 C.3    15  LEU15       0.1693
      3  C         -2.1230   -1.3360    9.2500 C.2    15  LEU15       0.2593
      4  O         -3.2380   -1.0980    9.7200 O.2    15  LEU15      -0.2718
      5  CB        -0.3650   -2.6520   10.4530 C.3    15  LEU15       0.0284
      6  CG         0.1060   -3.9440   11.1270 C.3    15  LEU15       0.0019
      7  CD1        1.4300   -3.7010   11.8300 C.3    15  LEU15       0.0001
      8  CD2       -0.9310   -4.4750   12.1120 C.3    15  LEU15       0.0001
      9  N         -1.4050   -0.4390    8.5780 N.am   16  GLY16      -0.1942
     10  CA        -1.8550    0.9340    8.3750 C.3    16  GLY16       0.2014
     11  C         -0.7480    1.8300    7.8530 C.2    16  GLY16       0.2640
     12  O          0.4090    1.4100    7.7500 O.2    16  GLY16      -0.2714
     13  N         -1.1070    3.0700    7.5290 N.am   17  SER17      -0.1935
     14  CA        -0.1570    4.0350    6.9800 C.3    17  SER17       0.2055
     15  C         -0.1540    5.3450    7.7590 C.2    17  SER17       0.2643
     16  O         -1.2120    5.8710    8.1160 O.2    17  SER17      -0.2714
     17  CB        -0.4660    4.3110    5.5070 C.3    17  SER17       0.2130
     18  OG        -0.4480    3.1160    4.7460 O.3    17  SER17      -0.2179
     19  N          1.0450    5.8630    8.0170 N.am   18  GLY18      -0.1954
     20  CA         1.2120    7.1770    8.6310 C.3    18  GLY18       0.1869
     21  C          1.3170    8.2610    7.5730 C.2    18  GLY18       0.2309
     22  O          0.6930    8.1610    6.5110 O.2    18  GLY18      -0.2863
     23  N          2.9380    0.3400    6.8360 N.3    23  VAL23      -0.1245
     24  CA         3.4560   -0.5680    7.8580 C.3    23  VAL23       0.1561
     25  C          2.7970   -1.9500    7.7920 C.2    23  VAL23       0.2260
     26  O          1.5700   -2.0660    7.7380 O.2    23  VAL23      -0.2867
     27  CB         3.3530    0.0560    9.2820 C.3    23  VAL23       0.0252
     28  CG1        3.7320   -0.9500   10.3640 C.3    23  VAL23       0.0019
     29  CG2        4.2410    1.2960    9.3810 C.3    23  VAL23       0.0019
     30  N          7.1500   -4.6090   13.3750 N.3    38  ALA38      -0.1245
     31  CA         6.3550   -3.7630   12.5000 C.3    38  ALA38       0.1562
     32  C          7.3250   -3.1500   11.5050 C.2    38  ALA38       0.2260
     33  O          8.3590   -2.6080   11.8960 O.2    38  ALA38      -0.2867
     34  CB         5.6460   -2.6780   13.3010 C.3    38  ALA38       0.0290
     35  N          8.0020   -0.6210    8.2420 N.3    40  LYS40      -0.1245
     36  CA         7.6220    0.4680    7.3610 C.3    40  LYS40       0.1561
     37  C          8.2340    0.2390    5.9800 C.2    40  LYS40       0.2260
     38  O          9.4530    0.1310    5.8420 O.2    40  LYS40      -0.2867
     39  CB         8.0750    1.8020    7.9520 C.3    40  LYS40       0.0271
     40  CG         7.5270    3.0150    7.2410 C.3    40  LYS40       0.0035
     41  CD         7.5900    4.2220    8.1500 C.3    40  LYS40       0.0206
     42  CE         7.2510    5.4770    7.3900 C.3    40  LYS40       0.1093
     43  NZ         7.1370    6.6480    8.2860 N.3    40  LYS40      -0.1314
     44  N          9.4880    3.6950   20.8320 N.3    65  VAL65      -0.1245
     45  CA         9.6020    2.5410   19.9330 C.3    65  VAL65       0.1561
     46  C         11.0510    2.3600   19.4700 C.2    65  VAL65       0.2260
     47  O         11.6910    3.3020   19.0000 O.2    65  VAL65      -0.2867
     48  CB         8.6490    2.6650   18.7090 C.3    65  VAL65       0.0252
     49  CG1        8.8980    1.5450   17.6960 C.3    65  VAL65       0.0019
     50  CG2        7.1910    2.6510   19.1560 C.3    65  VAL65       0.0019
     51  N         10.9710   -2.2130   13.0350 N.3    80  MET80      -0.1230
     52  CA        10.8160   -1.7400   14.4090 C.3    80  MET80       0.1702
     53  C         10.2280   -2.8460   15.2740 C.2    80  MET80       0.2592
     54  O          9.5690   -3.7460   14.7610 O.2    80  MET80      -0.2718
     55  CB         9.8860   -0.5230   14.4420 C.3    80  MET80       0.0401
     56  CG        10.3950    0.6880   13.6660 C.3    80  MET80       0.0596
     57  SD         9.1030    1.9130   13.3520 S.3    80  MET80      -0.1393
     58  CE         8.1650    1.1160   12.0510 C.3    80  MET80       0.0692
     59  N         10.4620   -2.7740   16.5830 N.am   81  GLU81      -0.1966
     60  CA         9.7900   -3.6680   17.5300 C.3    81  GLU81       0.1733
     61  C          8.2770   -3.4590   17.4610 C.2    81  GLU81       0.2616
     62  O          7.8100   -2.3270   17.3380 O.2    81  GLU81      -0.2715
     63  CB        10.2970   -3.4390   18.9580 C.3    81  GLU81       0.0429
     64  CG        10.2660   -1.9840   19.4030 C.3    81  GLU81       0.1163
     65  CD        10.3640   -1.7950   20.9090 C.2    81  GLU81       0.3649
     66  OE1       10.6700   -2.7670   21.6370 O.co2  81  GLU81      -0.2457
     67  OE2       10.1450   -0.6540   21.3600 O.co2  81  GLU81      -0.2457
     68  N          7.5210   -4.5500   17.5210 N.am   82  MET82      -0.1963
     69  CA         6.0640   -4.4840   17.4070 C.3    82  MET82       0.1736
     70  C          5.3960   -4.0150   18.7000 C.2    82  MET82       0.2616
     71  O          5.7040   -4.5130   19.7860 O.2    82  MET82      -0.2715
     72  CB         5.5000   -5.8490   16.9760 C.3    82  MET82       0.0427
     73  CG         3.9720   -5.9630   17.0230 C.3    82  MET82       0.0599
     74  SD         3.1160   -4.8410   15.8980 S.3    82  MET82      -0.1393
     75  CE         3.3190   -5.7120   14.3520 C.3    82  MET82       0.0692
     76  N          4.4930   -3.0470   18.5690 N.am   83  ALA83      -0.1963
     77  CA         3.5780   -2.6840   19.6480 C.3    83  ALA83       0.1728
     78  C          2.2060   -3.2330   19.2620 C.2    83  ALA83       0.2616
     79  O          1.5180   -2.6720   18.4090 O.2    83  ALA83      -0.2715
     80  CB         3.5390   -1.1740   19.8470 C.3    83  ALA83       0.0334
     81  N          1.8300   -4.3500   19.8840 N.am   84  GLU84      -0.1963
     82  CA         0.7090   -5.1760   19.4170 C.3    84  GLU84       0.1733
     83  C         -0.6790   -4.5290   19.4310 C.2    84  GLU84       0.2616
     84  O         -1.5240   -4.8590   18.5940 O.2    84  GLU84      -0.2715
     85  CB         0.6590   -6.5010   20.1890 C.3    84  GLU84       0.0429
     86  CG         1.8490   -7.4330   19.9410 C.3    84  GLU84       0.1163
     87  CD         1.7600   -8.2180   18.6380 C.2    84  GLU84       0.3649
     88  OE1        2.7060   -8.9820   18.3540 O.co2  84  GLU84      -0.2457
     89  OE2        0.7630   -8.0780   17.8980 O.co2  84  GLU84      -0.2457
     90  N         -0.9150   -3.6210   20.3730 N.am   85  LEU85      -0.1963
     91  CA        -2.2510   -3.0460   20.5430 C.3    85  LEU85       0.1728
     92  C         -2.5110   -1.8280   19.6490 C.2    85  LEU85       0.2617
     93  O         -3.6620   -1.4260   19.4710 O.2    85  LEU85      -0.2715
     94  CB        -2.5370   -2.7410   22.0180 C.3    85  LEU85       0.0311
     95  CG        -3.0040   -3.9050   22.9070 C.3    85  LEU85       0.0022
     96  CD1       -1.9950   -5.0490   22.9900 C.3    85  LEU85       0.0001
     97  CD2       -3.3200   -3.3980   24.3010 C.3    85  LEU85       0.0001
     98  N         -1.4470   -1.2620   19.0800 N.am   86  GLY86      -0.1941
     99  CA        -1.5730   -0.1920   18.0870 C.3    86  GLY86       0.1998
    100  C         -1.8160    1.2070   18.6310 C.2    86  GLY86       0.2480
    101  O         -1.6490    1.4500   19.8270 O.2    86  GLY86      -0.2729
    102  N         -2.2070    2.1450   17.7440 N.am   87  PRO87      -0.2726
    103  CA        -2.4000    3.5500   18.1050 C.3    87  PRO87       0.1402
    104  C         -3.3650    3.7570   19.2720 C.2    87  PRO87       0.2269
    105  O         -4.4200    3.1150   19.3410 O.2    87  PRO87      -0.2865
    106  CB        -2.9650    4.1630   16.8200 C.3    87  PRO87       0.0296
    107  CG        -2.3850    3.3250   15.7390 C.3    87  PRO87       0.0237
    108  CD        -2.4040    1.9280   16.2980 C.3    87  PRO87       0.0939
    109  N         -5.2810    6.3620   20.1440 N.3    89  ASN89      -0.1225
    110  CA        -6.5970    6.9160   19.8220 C.3    89  ASN89       0.1785
    111  C         -7.5750    5.8370   19.3590 C.2    89  ASN89       0.2597
    112  O         -8.7050    5.7770   19.8470 O.2    89  ASN89      -0.2718
    113  CB        -6.5090    8.0830   18.8230 C.3    89  ASN89       0.1169
    114  CG        -5.9700    7.6710   17.4600 C.2    89  ASN89       0.2627
    115  OD1       -5.1470    6.7620   17.3420 O.2    89  ASN89      -0.2716
    116  ND2       -6.4300    8.3570   16.4190 N.am   89  ASN89      -0.0877
    117  N         -7.1220    4.9720   18.4510 N.am   90  LYS90      -0.1980
    118  CA        -7.9430    3.8690   17.9410 C.3    90  LYS90       0.1596
    119  C         -8.2970    2.8560   19.0270 C.2    90  LYS90       0.2287
    120  O         -9.4220    2.3500   19.0630 O.2    90  LYS90      -0.2864
    121  CB        -7.2590    3.1690   16.7580 C.3    90  LYS90       0.0298
    122  CG        -7.0180    4.0550   15.5340 C.3    90  LYS90       0.0038
    123  CD        -8.2990    4.7140   15.0300 C.3    90  LYS90       0.0206
    124  CE        -8.0020    5.7310   13.9420 C.3    90  LYS90       0.1093
    125  NZ        -9.1680    6.6220   13.6650 N.3    90  LYS90      -0.1314
    126  N        -12.2090    2.0250   20.7240 N.3    94  GLN94      -0.1245
    127  CA       -12.7490    0.6680   20.7460 C.3    94  GLN94       0.1566
    128  C        -12.9240    0.1430   22.1700 C.2    94  GLN94       0.2260
    129  O        -13.5870   -0.8730   22.3850 O.2    94  GLN94      -0.2867
    130  CB       -11.8470   -0.2720   19.9400 C.3    94  GLN94       0.0367
    131  CG       -11.8200    0.0230   18.4430 C.3    94  GLN94       0.0905
    132  CD       -10.6020   -0.5590   17.7410 C.2    94  GLN94       0.2608
    133  OE1      -10.1090   -1.6310   18.1010 O.2    94  GLN94      -0.2717
    134  NE2      -10.1150    0.1480   16.7270 N.am   94  GLN94      -0.0878
    135  N         -2.4580    9.4230   17.8960 N.3   130  ARG130     -0.1231
    136  CA        -2.2430    8.4400   16.8250 C.3   130  ARG130      0.1694
    137  C         -0.8090    7.9110   16.8090 C.2   130  ARG130      0.2592
    138  O         -0.5530    6.8180   16.3010 O.2   130  ARG130     -0.2718
    139  CB        -2.5850    9.0440   15.4530 C.3   130  ARG130      0.0321
    140  CG        -1.6920   10.2200   15.0540 C.3   130  ARG130      0.0489
    141  CD        -2.0790   10.8280   13.7120 C.3   130  ARG130      0.2205
    142  NE        -1.3200   12.0480   13.4390 N.pl3 130  ARG130     -0.0865
    143  CZ        -1.6840   13.2700   13.8260 C.cat 130  ARG130      0.5346
    144  NH1       -2.8120   13.4520   14.5020 N.pl3 130  ARG130      0.1354
    145  NH2       -0.9190   14.3140   13.5300 N.pl3 130  ARG130      0.1354
    146  N          0.1140    8.6930   17.3660 N.am  131  ASN131     -0.1974
    147  CA         1.5350    8.3570   17.3510 C.3   131  ASN131      0.1688
    148  C          2.0530    7.8120   18.6820 C.2   131  ASN131      0.2292
    149  O          3.2620    7.7160   18.9050 O.2   131  ASN131     -0.2864
    150  CB         2.3500    9.5500   16.8470 C.3   131  ASN131      0.1181
    151  CG         2.1160    9.8210   15.3710 C.2   131  ASN131      0.2629
    152  OD1        1.8060    8.9070   14.6030 O.2   131  ASN131     -0.2716
    153  ND2        2.2650   11.0740   14.9660 N.am  131  ASN131     -0.0877
    154  N          1.8070    4.3070   20.6600 N.3   133  LEU133     -0.1245
    155  CA         1.4640    2.9160   20.4020 C.3   133  LEU133      0.1561
    156  C          1.4660    2.1210   21.6920 C.2   133  LEU133      0.2260
    157  O          2.3120    2.3310   22.5640 O.2   133  LEU133     -0.2867
    158  CB         2.4330    2.2950   19.3970 C.3   133  LEU133      0.0270
    159  CG         2.4790    2.9280   18.0050 C.3   133  LEU133      0.0019
    160  CD1        3.6680    2.3950   17.2630 C.3   133  LEU133      0.0001
    161  CD2        1.2000    2.6810   17.2130 C.3   133  LEU133      0.0001
    162  N          5.9760    6.8740   18.9850 N.3   143  SER143     -0.1202
    163  CA         6.3590    6.4080   17.6570 C.3   143  SER143      0.2020
    164  C          6.3400    7.5320   16.6240 C.2   143  SER143      0.2618
    165  O          6.0600    8.6840   16.9520 O.2   143  SER143     -0.2717
    166  CB         5.4040    5.3030   17.1990 C.3   143  SER143      0.2103
    167  OG         4.1320    5.8300   16.8440 O.3   143  SER143     -0.2182
    168  N          6.6400    7.1620   15.3770 N.am  144  ASP144     -0.1973
    169  CA         6.5110    8.0280   14.1960 C.3   144  ASP144      0.1709
    170  C          7.4020    9.2630   14.2500 C.2   144  ASP144      0.2293
    171  O          6.9260   10.3890   14.4180 O.2   144  ASP144     -0.2864
    172  CB         5.0450    8.4040   13.9190 C.3   144  ASP144      0.1436
    173  CG         4.2190    7.2290   13.4020 C.2   144  ASP144      0.3671
    174  OD1        3.7770    7.2790   12.2340 O.co2 144  ASP144     -0.2456
    175  OD2        4.0030    6.2610   14.1600 O.co2 144  ASP144     -0.2456
@<TRIPOS>BOND
     1    18    17    1
     2    17    14    1
     3    38    37    2
     4    37    36    1
     5    22    21    2
     6    23    24    1
     7    14    13    1
     8    14    15    1
     9    40    39    1
    10    40    41    1
    11    36    39    1
    12    36    35    1
    13    42    41    1
    14    42    43    1
    15    13    11   am
    16    21    20    1
    17    26    25    2
    18    12    11    2
    19    15    19   am
    20    15    16    2
    21    25    24    1
    22    11    10    1
    23    24    27    1
    24    19    20    1
    25     1     2    1
    26    10     9    1
    27     9     3   am
    28     3     2    1
    29     3     4    2
    30    27    29    1
    31    27    28    1
    32     2     5    1
    33     5     6    1
    34     6     7    1
    35     6     8    1
    36    32    33    2
    37    32    31    1
    38    58    57    1
    39   174   173   ar
    40    31    34    1
    41    31    30    1
    42    51    52    1
    43    57    56    1
    44   173   172    1
    45   173   175   ar
    46   142   141    1
    47   142   143    2
    48   145   143    1
    49   125   124    1
    50    56    55    1
    51   141   140    1
    52   143   144    1
    53   172   169    1
    54   124   123    1
    55   169   170    1
    56   169   168    1
    57   170   171    2
    58    75    74    1
    59    52    55    1
    60    52    53    1
    61   152   151    2
    62    54    53    2
    63   153   151   am
    64   123   122    1
    65   140   139    1
    66    53    59   am
    67   151   150    1
    68   168   164   am
    69   139   136    1
    70   122   121    1
    71   107   108    1
    72   107   106    1
    73    74    73    1
    74   108   102    1
    75   138   137    2
    76   116   114   am
    77    59    60    1
    78   164   165    2
    79   164   163    1
    80   134   132   am
    81   121   118    1
    82   137   136    1
    83   137   146   am
    84   106   103    1
    85   136   135    1
    86   167   166    1
    87   150   147    1
    88    72    73    1
    89    72    69    1
    90   166   163    1
    91   161   159    1
    92   160   159    1
    93    62    61    2
    94   115   114    2
    95   147   146    1
    96   147   148    1
    97    69    68    1
    98    69    70    1
    99   114   113    1
   100    61    68   am
   101    61    60    1
   102    60    63    1
   103   163   162    1
   104    49    48    1
   105   132   133    2
   106   132   131    1
   107   102   103    1
   108   102   100   am
   109    89    87   ar
   110   118   117    1
   111   118   119    1
   112   159   158    1
   113    99   100    1
   114    99    98    1
   115   103   104    1
   116    88    87   ar
   117    79    78    2
   118   131   130    1
   119   117   111   am
   120    76    70   am
   121    76    77    1
   122    84    83    2
   123   100   101    2
   124    87    86    1
   125   148   149    2
   126    70    71    2
   127    48    50    1
   128    48    45    1
   129   113   110    1
   130    63    64    1
   131    47    46    2
   132   119   120    2
   133    98    92   am
   134    78    77    1
   135    78    81   am
   136   104   105    2
   137   111   110    1
   138   111   112    2
   139   158   155    1
   140    64    65    1
   141    82    83    1
   142    82    81    1
   143    82    85    1
   144    83    90   am
   145    46    45    1
   146    93    92    2
   147    77    80    1
   148    92    91    1
   149   110   109    1
   150    45    44    1
   151   130   127    1
   152    86    85    1
   153    90    91    1
   154   155   154    1
   155   155   156    1
   156    91    94    1
   157   126   127    1
   158   127   128    1
   159    65    67   ar
   160    65    66   ar
   161   156   157    2
   162    94    95    1
   163   128   129    2
   164    95    96    1
   165    95    97    1
