@<TRIPOS>MOLECULE
tmp/4fyrA08.pdb
 183 175 0 0 0
SMALL
GASTEIGER

@<TRIPOS>ATOM
      1  N        116.2580   10.8510   23.1190 N.3   147  GLN147     -0.1245
      2  CA       115.1670   11.8130   23.2830 C.3   147  GLN147      0.1566
      3  C        115.0950   12.0860   24.7780 C.2   147  GLN147      0.2260
      4  O        114.6320   11.2290   25.5630 O.2   147  GLN147     -0.2867
      5  CB       113.8150   11.2260   22.7710 C.3   147  GLN147      0.0367
      6  CG       112.5930   12.0970   23.0870 C.3   147  GLN147      0.0905
      7  CD       112.5220   13.3540   22.2430 C.2   147  GLN147      0.2608
      8  OE1      113.4890   13.7410   21.6240 O.2   147  GLN147     -0.2717
      9  NE2      111.3460   13.9820   22.1920 N.am  147  GLN147     -0.0878
     10  N        113.7570   15.1200   26.1280 N.3   149  GLN149     -0.1231
     11  CA       112.6320   15.9820   26.5760 C.3   149  GLN149      0.1698
     12  C        111.4360   15.1760   27.0770 C.2   149  GLN149      0.2592
     13  O        111.0390   14.1860   26.4270 O.2   149  GLN149     -0.2718
     14  CB       112.1810   16.9540   25.5100 C.3   149  GLN149      0.0381
     15  CG       111.7410   18.3000   26.1620 C.3   149  GLN149      0.0905
     16  CD       111.0200   19.1080   25.1420 C.2   149  GLN149      0.2608
     17  OE1      110.2800   18.5430   24.3200 O.2   149  GLN149     -0.2717
     18  NE2      111.2500   20.3920   25.1300 N.am  149  GLN149     -0.0878
     19  N        110.8930   15.5290   28.2490 N.am  150  ALA150     -0.1980
     20  CA       111.3850   16.6210   29.1250 C.3   150  ALA150      0.1597
     21  C        112.3460   16.1320   30.2160 C.2   150  ALA150      0.2287
     22  O        113.3130   16.8250   30.5820 O.2   150  ALA150     -0.2864
     23  CB       110.1910   17.3060   29.7840 C.3   150  ALA150      0.0319
     24  N        109.3740    9.6740   18.6400 N.3   286  ASN286     -0.1225
     25  CA       108.0260    9.8450   19.1840 C.3   286  ASN286      0.1785
     26  C        107.4140   11.2340   19.0770 C.2   286  ASN286      0.2597
     27  O        106.4310   11.5190   19.7380 O.2   286  ASN286     -0.2718
     28  CB       107.9580    9.3950   20.6430 C.3   286  ASN286      0.1169
     29  CG       106.7450    8.4970   20.9170 C.2   286  ASN286      0.2627
     30  OD1      105.9350    8.2190   20.0140 O.2   286  ASN286     -0.2716
     31  ND2      106.6430    7.9970   22.1570 N.am  286  ASN286     -0.0877
     32  N        108.0040   12.1020   18.2800 N.am  287  ALA287     -0.1966
     33  CA       107.4540   13.4400   18.0850 C.3   287  ALA287      0.1728
     34  C        107.7160   13.8510   16.6520 C.2   287  ALA287      0.2617
     35  O        108.3360   13.0930   15.8940 O.2   287  ALA287     -0.2715
     36  CB       108.1430   14.3990   19.0580 C.3   287  ALA287      0.0334
     37  N        107.3000   15.0560   16.2740 N.am  288  GLY288     -0.1940
     38  CA       107.7140   15.6170   14.9860 C.3   288  GLY288      0.2014
     39  C        109.2300   15.7760   14.8810 C.2   288  GLY288      0.2639
     40  O        109.8590   15.4610   13.8670 O.2   288  GLY288     -0.2714
     41  N        109.8210   16.2980   15.9400 N.am  289  ALA289     -0.1963
     42  CA       111.2490   16.6170   15.9380 C.3   289  ALA289      0.1728
     43  C        111.6250   17.0070   17.3730 C.2   289  ALA289      0.2616
     44  O        110.7560   17.0420   18.2360 O.2   289  ALA289     -0.2715
     45  CB       111.5230   17.7780   14.9860 C.3   289  ALA289      0.0334
     46  N        112.9070   17.2840   17.6280 N.am  290  MET290     -0.1963
     47  CA       113.3320   17.7570   18.9650 C.3   290  MET290      0.1736
     48  C        114.5790   18.6400   18.7890 C.2   290  MET290      0.2616
     49  O        115.5030   18.2850   18.0490 O.2   290  MET290     -0.2715
     50  CB       113.5740   16.5890   19.9380 C.3   290  MET290      0.0427
     51  CG       114.1150   17.0290   21.3000 C.3   290  MET290      0.0599
     52  SD       113.0000   18.1900   22.0990 S.3   290  MET290     -0.1393
     53  CE       114.1990   19.1010   23.1130 C.3   290  MET290      0.0692
     54  N        114.5870   19.8000   19.4490 N.am  291  GLU291     -0.1977
     55  CA       115.5070   20.8950   19.0870 C.3   291  GLU291      0.1602
     56  C        116.9170   20.8090   19.7020 C.2   291  GLU291      0.2287
     57  O        117.5580   21.8570   19.9680 O.2   291  GLU291     -0.2864
     58  CB       114.8490   22.2400   19.4880 C.3   291  GLU291      0.0415
     59  CG       114.6880   22.3790   21.0110 C.3   291  GLU291      0.1163
     60  CD       113.2770   22.1590   21.5210 C.2   291  GLU291      0.3649
     61  OE1      112.4760   21.4070   20.8790 O.co2 291  GLU291     -0.2457
     62  OE2      112.9570   22.7230   22.6150 O.co2 291  GLU291     -0.2457
     63  N        104.9280   20.8020    5.6820 N.3   317  ARG317     -0.1245
     64  CA       105.2820   20.2250    6.9840 C.3   317  ARG317      0.1563
     65  C        106.8070   20.2430    7.2210 C.2   317  ARG317      0.2260
     66  O        107.2670   20.5880    8.3070 O.2   317  ARG317     -0.2867
     67  CB       104.7220   18.8030    7.1210 C.3   317  ARG317      0.0307
     68  CG       105.0840   18.0630    8.4210 C.3   317  ARG317      0.0489
     69  CD       104.3230   18.6210    9.6180 C.3   317  ARG317      0.2205
     70  NE       104.6160   17.8410   10.8230 N.pl3 317  ARG317     -0.0865
     71  CZ       104.3740   18.2280   12.0730 C.cat 317  ARG317      0.5346
     72  NH1      103.8260   19.4130   12.3240 N.pl3 317  ARG317      0.1354
     73  NH2      104.7140   17.4230   13.0790 N.pl3 317  ARG317      0.1354
     74  N        108.3470   22.5770   10.2100 N.3   321  VAL321     -0.1245
     75  CA       108.9430   21.8690   11.3430 C.3   321  VAL321      0.1561
     76  C        110.4200   22.2590   11.4740 C.2   321  VAL321      0.2260
     77  O        110.8820   22.5140   12.5810 O.2   321  VAL321     -0.2867
     78  CB       108.7890   20.3350   11.2700 C.3   321  VAL321      0.0252
     79  CG1      109.6290   19.6380   12.3600 C.3   321  VAL321      0.0019
     80  CG2      107.3150   19.9480   11.4330 C.3   321  VAL321      0.0019
     81  N        110.4470   25.6420   13.0130 N.3   324  HIS324     -0.1226
     82  CA       110.0810   25.5570   14.4220 C.3   324  HIS324      0.1752
     83  C        111.3160   25.1160   15.2220 C.2   324  HIS324      0.2595
     84  O        111.6400   25.7030   16.2640 O.2   324  HIS324     -0.2718
     85  CB       108.9260   24.5550   14.5940 C.3   324  HIS324      0.0759
     86  CG       108.4820   24.3790   16.0130 C.ar  324  HIS324      0.0818
     87  ND1      107.2730   24.8600   16.4720 N.ar  324  HIS324     -0.2268
     88  CD2      109.0670   23.7600   17.0640 C.ar  324  HIS324      0.1154
     89  CE1      107.1310   24.5340   17.7500 C.ar  324  HIS324      0.1986
     90  NE2      108.2110   23.8730   18.1360 N.ar  324  HIS324     -0.2212
     91  N        112.0030   24.0700   14.7450 N.am  325  GLU325     -0.1979
     92  CA       113.1820   23.5740   15.4660 C.3   325  GLU325      0.1602
     93  C        114.2770   24.6580   15.5490 C.2   325  GLU325      0.2287
     94  O        114.9520   24.8060   16.5930 O.2   325  GLU325     -0.2864
     95  CB       113.7650   22.3270   14.7760 C.3   325  GLU325      0.0415
     96  CG       112.8300   21.1140   14.8250 C.3   325  GLU325      0.1163
     97  CD       112.2320   20.9110   16.2110 C.2   325  GLU325      0.3649
     98  OE1      112.9780   20.6360   17.1520 O.co2 325  GLU325     -0.2457
     99  OE2      111.0080   20.9900   16.3740 O.co2 325  GLU325     -0.2457
    100  N        113.6890   27.4070   18.0400 N.3   328  HIS328     -0.1241
    101  CA       114.0760   26.9930   19.3920 C.3   328  HIS328      0.1621
    102  C        115.5600   27.2490   19.7160 C.2   328  HIS328      0.2264
    103  O        115.9130   27.3270   20.8840 O.2   328  HIS328     -0.2867
    104  CB       113.8340   25.5010   19.6460 C.3   328  HIS328      0.0745
    105  CG       112.4430   25.1450   20.0620 C.ar  328  HIS328      0.0817
    106  ND1      111.7680   25.7740   21.0930 N.ar  328  HIS328     -0.2268
    107  CD2      111.6180   24.1670   19.6030 C.ar  328  HIS328      0.1154
    108  CE1      110.5860   25.1940   21.2510 C.ar  328  HIS328      0.1986
    109  NE2      110.4740   24.2220   20.3550 N.ar  328  HIS328     -0.2212
    110  N        107.6850   27.1570   23.6010 N.3   347  GLU347     -0.1245
    111  CA       106.8270   26.5360   22.5620 C.3   347  GLU347      0.1567
    112  C        105.9150   27.5160   21.8400 C.2   347  GLU347      0.2260
    113  O        105.6580   27.3490   20.6500 O.2   347  GLU347     -0.2867
    114  CB       105.9990   25.3610   23.1310 C.3   347  GLU347      0.0388
    115  CG       106.8510   24.1780   23.6130 C.3   347  GLU347      0.1160
    116  CD       107.8120   23.6300   22.5680 C.2   347  GLU347      0.3649
    117  OE1      107.5800   23.8530   21.3560 O.co2 347  GLU347     -0.2457
    118  OE2      108.8080   22.9470   22.9610 O.co2 347  GLU347     -0.2457
    119  N        108.1110   30.0200   13.7660 N.3   354  GLU354     -0.1245
    120  CA       108.2090   29.0690   12.6370 C.3   354  GLU354      0.1567
    121  C        107.6190   29.6420   11.3460 C.2   354  GLU354      0.2260
    122  O        108.1310   29.3860   10.2630 O.2   354  GLU354     -0.2867
    123  CB       107.5520   27.7250   12.9750 C.3   354  GLU354      0.0388
    124  CG       106.0210   27.7400   12.9510 C.3   354  GLU354      0.1160
    125  CD       105.4290   26.3750   13.2080 C.2   354  GLU354      0.3649
    126  OE1      105.6360   25.7750   14.2820 O.co2 354  GLU354     -0.2457
    127  OE2      104.7330   25.9090   12.3010 O.co2 354  GLU354     -0.2457
    128  N        104.6560   16.7300   30.9540 N.3   405  SER405     -0.1217
    129  CA       104.3020   16.2490   29.6130 C.3   405  SER405      0.1889
    130  C        102.9580   16.8260   29.1480 C.2   405  SER405      0.2288
    131  O        102.7980   17.2260   27.9850 O.2   405  SER405     -0.2866
    132  CB       104.2610   14.7000   29.6410 C.3   405  SER405      0.2089
    133  OG       103.6590   14.2140   28.4420 O.3   405  SER405     -0.2183
    134  N        102.6300   20.1460   27.2020 N.3   408  PHE408     -0.1241
    135  CA       102.9600   20.2280   25.7690 C.3   408  PHE408      0.1605
    136  C        101.6660   20.0990   24.9820 C.2   408  PHE408      0.2264
    137  O        101.3510   19.0180   24.4610 O.2   408  PHE408     -0.2867
    138  CB       103.9530   19.1240   25.3620 C.3   408  PHE408      0.0534
    139  CG       105.3510   19.3790   25.8730 C.ar  408  PHE408     -0.0203
    140  CD1      105.6570   19.1730   27.2240 C.ar  408  PHE408     -0.0042
    141  CD2      106.3290   19.8770   25.0220 C.ar  408  PHE408     -0.0042
    142  CE1      106.9470   19.4380   27.6950 C.ar  408  PHE408     -0.0003
    143  CE2      107.6220   20.1530   25.4910 C.ar  408  PHE408     -0.0003
    144  CZ       107.9200   19.9320   26.8320 C.ar  408  PHE408     -0.0000
    145  N        101.4600   25.7490   22.9500 N.3   413  TYR413     -0.1241
    146  CA       101.9050   25.9320   21.5700 C.3   413  TYR413      0.1605
    147  C        101.0760   27.0010   20.8490 C.2   413  TYR413      0.2264
    148  O        101.6000   28.0400   20.4580 O.2   413  TYR413     -0.2867
    149  CB       101.8310   24.5900   20.7740 C.3   413  TYR413      0.0534
    150  CG       102.9750   23.6330   21.0690 C.ar  413  TYR413     -0.0201
    151  CD1      103.0260   22.9170   22.2740 C.ar  413  TYR413     -0.0009
    152  CD2      103.9730   23.4160   20.1210 C.ar  413  TYR413     -0.0009
    153  CE1      104.0670   22.0270   22.5320 C.ar  413  TYR413      0.0417
    154  CE2      105.0280   22.5380   20.3650 C.ar  413  TYR413      0.0417
    155  CZ       105.0590   21.8500   21.5650 C.ar  413  TYR413      0.1957
    156  OH       106.0860   20.9890   21.7970 O.3   413  TYR413     -0.2866
    157  N        106.2970    8.1050   29.6000 N.3   830  GLY830     -0.1210
    158  CA       107.6330    8.2800   29.0370 C.3   830  GLY830      0.1956
    159  C        107.6270    9.2730   27.8900 C.2   830  GLY830      0.2613
    160  O        107.2810   10.4430   28.0780 O.2   830  GLY830     -0.2717
    161  N        108.0140    8.8100   26.7020 N.am  831  SER831     -0.1938
    162  CA       107.9370    9.6460   25.4910 C.3   831  SER831      0.2055
    163  C        106.5180    9.6850   24.8750 C.2   831  SER831      0.2643
    164  O        106.2820   10.4390   23.9330 O.2   831  SER831     -0.2714
    165  CB       108.9470    9.1710   24.4270 C.3   831  SER831      0.2130
    166  OG       110.2070    9.8220   24.5820 O.3   831  SER831     -0.2179
    167  N        105.6000    8.8680   25.4060 N.am  832  PHE832     -0.1959
    168  CA       104.2450    8.7030   24.8470 C.3   832  PHE832      0.1771
    169  C        103.2400    9.5390   25.6100 C.2   832  PHE832      0.2620
    170  O        103.4140    9.7820   26.8030 O.2   832  PHE832     -0.2715
    171  CB       103.7750    7.2470   24.9610 C.3   832  PHE832      0.0574
    172  CG       104.5480    6.2760   24.1230 C.ar  832  PHE832     -0.0200
    173  CD1      104.1110    5.9510   22.8420 C.ar  832  PHE832     -0.0042
    174  CD2      105.6990    5.6600   24.6240 C.ar  832  PHE832     -0.0042
    175  CE1      104.8200    5.0460   22.0670 C.ar  832  PHE832     -0.0003
    176  CE2      106.4100    4.7550   23.8530 C.ar  832  PHE832     -0.0003
    177  CZ       105.9700    4.4460   22.5750 C.ar  832  PHE832     -0.0000
    178  N        102.1570    9.9290   24.9340 N.am  833  SER833     -0.1950
    179  CA       101.0060   10.5350   25.6100 C.3   833  SER833      0.1924
    180  C         99.6850    9.9560   25.0870 C.2   833  SER833      0.2314
    181  O         99.5410    9.7350   23.8850 O.2   833  SER833     -0.2863
    182  CB       101.0030   12.0630   25.4590 C.3   833  SER833      0.2116
    183  OG        99.8110   12.5980   26.0440 O.3   833  SER833     -0.2180
@<TRIPOS>BOND
     1    63    64    1
     2    64    67    1
     3    64    65    1
     4    67    68    1
     5    65    66    2
     6    68    69    1
     7    69    70    1
     8    74    75    1
     9   122   121    2
    10    70    71    2
    11    78    75    1
    12    78    80    1
    13    78    79    1
    14    75    76    1
    15   121   120    1
    16    76    77    2
    17    71    72    1
    18    71    73    1
    19   127   125   ar
    20   120   123    1
    21   120   119    1
    22   124   123    1
    23   124   125    1
    24    81    82    1
    25   125   126   ar
    26    40    39    2
    27    82    85    1
    28    82    83    1
    29    85    86    1
    30    91    83   am
    31    91    92    1
    32    95    96    1
    33    95    92    1
    34    96    97    1
    35    39    38    1
    36    39    41   am
    37    45    42    1
    38    38    37    1
    39    83    84    2
    40    92    93    1
    41    93    94    2
    42    35    34    2
    43    42    41    1
    44    42    43    1
    45    86    87   ar
    46    86    88   ar
    47    97    99   ar
    48    97    98   ar
    49    37    34   am
    50    87    89   ar
    51    34    33    1
    52    88    90   ar
    53    43    46   am
    54    43    44    2
    55    46    47    1
    56    89    90   ar
    57   100   101    1
    58    49    48    2
    59    33    32    1
    60    33    36    1
    61    32    26   am
    62    24    25    1
    63    48    47    1
    64    48    54   am
    65    47    50    1
    66    26    25    1
    67    26    27    2
    68    55    54    1
    69    55    58    1
    70    55    56    1
    71    25    28    1
    72   101   104    1
    73   101   102    1
    74    58    59    1
    75   107   105   ar
    76   107   109   ar
    77   104   105    1
    78    56    57    2
    79   102   103    2
    80    50    51    1
    81    30    29    2
    82   105   106   ar
    83   152   154   ar
    84   152   150   ar
    85   109   108   ar
    86   154   155   ar
    87   148   147    2
    88    28    29    1
    89   113   112    2
    90   149   150    1
    91   149   146    1
    92   147   146    1
    93    61    60   ar
    94    29    31   am
    95    59    60    1
    96   150   151   ar
    97   106   108   ar
    98    51    52    1
    99   117   116   ar
   100    60    62   ar
   101   155   156    1
   102   155   153   ar
   103   146   145    1
   104     8     7    2
   105   112   111    1
   106   175   177   ar
   107   175   173   ar
   108    52    53    1
   109     9     7   am
   110     7     6    1
   111   151   153   ar
   112   111   114    1
   113   111   110    1
   114   116   118   ar
   115   116   115    1
   116   177   176   ar
   117     5     6    1
   118     5     2    1
   119   173   172   ar
   120     1     2    1
   121   114   115    1
   122     2     3    1
   123   176   174   ar
   124   181   180    2
   125   164   163    2
   126   172   174   ar
   127   172   171    1
   128    17    16    2
   129   165   166    1
   130   165   162    1
   131   137   136    2
   132     3     4    2
   133   168   171    1
   134   168   167    1
   135   168   169    1
   136   163   167   am
   137   163   162    1
   138   178   169   am
   139   178   179    1
   140   136   135    1
   141   141   143   ar
   142   141   139   ar
   143   180   179    1
   144    18    16   am
   145    16    15    1
   146   138   135    1
   147   138   139    1
   148   182   179    1
   149   182   183    1
   150   143   144   ar
   151   162   161    1
   152    14    15    1
   153    14    11    1
   154   169   170    2
   155   135   134    1
   156   139   140   ar
   157    10    11    1
   158    13    12    2
   159    11    12    1
   160   161   159   am
   161   144   142   ar
   162    12    19   am
   163   140   142   ar
   164   159   160    2
   165   159   158    1
   166   131   130    2
   167    19    20    1
   168   133   132    1
   169   158   157    1
   170    20    23    1
   171    20    21    1
   172   130   129    1
   173   129   132    1
   174   129   128    1
   175    21    22    2
