@<TRIPOS>MOLECULE
tmp/4fysA06.pdb
 89 83 0 0 0
SMALL
GASTEIGER

@<TRIPOS>ATOM
      1  N         71.7640   41.2700   15.7830 N.3   572  GLU572     -0.1245
      2  CA        71.3560   40.4660   14.6240 C.3   572  GLU572      0.1567
      3  C         71.1590   41.3170   13.3660 C.2   572  GLU572      0.2260
      4  O         71.3020   40.8080   12.2680 O.2   572  GLU572     -0.2867
      5  CB        70.1650   39.5440   14.9600 C.3   572  GLU572      0.0388
      6  CG        70.6830   38.3430   15.7760 C.3   572  GLU572      0.1160
      7  CD        69.6530   37.2700   16.0940 C.2   572  GLU572      0.3649
      8  OE1       68.8140   36.9150   15.2280 O.co2 572  GLU572     -0.2457
      9  OE2       69.7120   36.7530   17.2270 O.co2 572  GLU572     -0.2457
     10  N         72.7960   40.3660    9.8340 N.3   576  ARG576     -0.1245
     11  CA        72.0190   40.2660    8.5870 C.3   576  ARG576      0.1563
     12  C         72.6770   41.0830    7.4510 C.2   576  ARG576      0.2260
     13  O         72.6900   40.6030    6.3160 O.2   576  ARG576     -0.2867
     14  CB        70.5280   40.5370    8.7950 C.3   576  ARG576      0.0307
     15  CG        69.8570   39.3410    9.4990 C.3   576  ARG576      0.0489
     16  CD        68.3170   39.4370    9.5860 C.3   576  ARG576      0.2205
     17  NE        67.8740   40.7470   10.0810 N.pl3 576  ARG576     -0.0865
     18  CZ        67.7120   41.0630   11.3650 C.cat 576  ARG576      0.5346
     19  NH1       67.3220   42.2880   11.7010 N.pl3 576  ARG576      0.1354
     20  NH2       67.9430   40.1650   12.3140 N.pl3 576  ARG576      0.1354
     21  N         75.5900   38.9470    6.1730 N.3   579  GLN579     -0.1245
     22  CA        75.0260   37.9150    5.3000 C.3   579  GLN579      0.1566
     23  C         74.5880   38.4550    3.9370 C.2   579  GLN579      0.2260
     24  O         74.7830   37.8020    2.9250 O.2   579  GLN579     -0.2867
     25  CB        73.8500   37.2290    5.9920 C.3   579  GLN579      0.0367
     26  CG        74.3660   36.3550    7.1300 C.3   579  GLN579      0.0905
     27  CD        73.2930   35.8810    8.0700 C.2   579  GLN579      0.2608
     28  OE1       72.2010   36.4120    8.0830 O.2   579  GLN579     -0.2717
     29  NE2       73.6180   34.8980    8.8860 N.am  579  GLN579     -0.0878
     30  N         71.2760   32.2210   17.5210 N.3   611  PRO611     -0.2116
     31  CA        70.5710   31.0190   17.0710 C.3   611  PRO611      0.1372
     32  C         71.4510   30.1850   16.1320 C.2   611  PRO611      0.2244
     33  O         72.2130   30.7380   15.3010 O.2   611  PRO611     -0.2868
     34  CB        69.3670   31.5920   16.2700 C.3   611  PRO611      0.0268
     35  CG        69.2350   33.0010   16.7420 C.3   611  PRO611      0.0207
     36  CD        70.6380   33.4530   17.0220 C.3   611  PRO611      0.0892
     37  N         70.5840   28.6640   13.5100 N.3   613  THR613     -0.1203
     38  CA        70.2750   28.9040   12.0870 C.3   613  THR613      0.1994
     39  C         71.0690   30.1120   11.5460 C.2   613  THR613      0.2617
     40  O         71.3070   30.2180   10.3460 O.2   613  THR613     -0.2717
     41  CB        68.7610   29.1300   11.8430 C.3   613  THR613      0.1784
     42  OG1       68.3320   30.2150   12.6580 O.3   613  THR613     -0.2211
     43  CG2       67.9700   27.8960   12.2440 C.3   613  THR613      0.0376
     44  N         71.4850   31.0230   12.4320 N.am  614  LEU614     -0.1979
     45  CA        72.2950   32.1760   12.0020 C.3   614  LEU614      0.1596
     46  C         73.6600   31.6580   11.5670 C.2   614  LEU614      0.2287
     47  O         74.1760   32.0590   10.5300 O.2   614  LEU614     -0.2864
     48  CB        72.4080   33.2620   13.1160 C.3   614  LEU614      0.0297
     49  CG        73.0340   34.5960   12.6750 C.3   614  LEU614      0.0022
     50  CD1       72.5770   35.7440   13.5740 C.3   614  LEU614      0.0001
     51  CD2       74.5610   34.5170   12.6760 C.3   614  LEU614      0.0001
     52  N         73.1760   29.7400    8.3280 N.3   617  ASN617     -0.1240
     53  CA        73.0020   30.7390    7.2450 C.3   617  ASN617      0.1653
     54  C         74.3170   31.3390    6.7420 C.2   617  ASN617      0.2266
     55  O         74.4110   31.7110    5.5740 O.2   617  ASN617     -0.2867
     56  CB        72.0850   31.8730    7.6970 C.3   617  ASN617      0.1155
     57  CG        70.6090   31.4760    7.7090 C.2   617  ASN617      0.2627
     58  OD1       70.2080   30.4420    7.1550 O.2   617  ASN617     -0.2716
     59  ND2       69.7920   32.2950    8.3570 N.am  617  ASN617     -0.0877
     60  N         75.8300   29.5480    3.6810 N.3   620  LEU620     -0.1245
     61  CA        75.1100   29.5130    2.3700 C.3   620  LEU620      0.1561
     62  C         75.9860   30.0170    1.2030 C.2   620  LEU620      0.2260
     63  O         75.9970   29.4240    0.1100 O.2   620  LEU620     -0.2867
     64  CB        73.8060   30.3040    2.4700 C.3   620  LEU620      0.0270
     65  CG        72.7420   29.6440    3.3650 C.3   620  LEU620      0.0019
     66  CD1       71.5910   30.5970    3.6520 C.3   620  LEU620      0.0001
     67  CD2       72.2360   28.3510    2.7120 C.3   620  LEU620      0.0001
     68  N         66.6320   22.6890    9.2960 N.3   897  TRP897     -0.1241
     69  CA        67.4610   23.6290    8.5010 C.3   897  TRP897      0.1605
     70  C         68.2030   22.9120    7.3660 C.2   897  TRP897      0.2264
     71  O         68.1800   23.3640    6.2060 O.2   897  TRP897     -0.2867
     72  CB        68.4520   24.4290    9.4030 C.3   897  TRP897      0.0550
     73  CG        69.0780   25.5930    8.6530 C.ar  897  TRP897      0.0003
     74  CD1       68.6730   26.8950    8.7030 C.ar  897  TRP897      0.0946
     75  CD2       70.1670   25.5430    7.7160 C.ar  897  TRP897      0.0152
     76  NE1       69.4540   27.6610    7.8710 N.ar  897  TRP897     -0.2442
     77  CE2       70.3820   26.8600    7.2600 C.ar  897  TRP897      0.0810
     78  CE3       71.0070   24.5240    7.2600 C.ar  897  TRP897      0.0012
     79  CZ2       71.3920   27.1910    6.3430 C.ar  897  TRP897      0.0191
     80  CZ3       72.0270   24.8360    6.3600 C.ar  897  TRP897      0.0001
     81  CH2       72.2020   26.1710    5.8880 C.ar  897  TRP897      0.0015
     82  N         67.3060   23.5810    3.4100 N.3   901  ASN901     -0.1240
     83  CA        68.3600   24.3200    2.7010 C.3   901  ASN901      0.1653
     84  C         69.2120   23.4730    1.7770 C.2   901  ASN901      0.2266
     85  O         70.1130   23.9860    1.1040 O.2   901  ASN901     -0.2867
     86  CB        69.2580   25.0770    3.7190 C.3   901  ASN901      0.1155
     87  CG        68.5490   26.2560    4.3350 C.2   901  ASN901      0.2627
     88  OD1       68.5920   27.3420    3.7870 O.2   901  ASN901     -0.2716
     89  ND2       67.8240   26.0360    5.4130 N.am  901  ASN901     -0.0877
@<TRIPOS>BOND
     1    63    62    2
     2    85    84    2
     3    62    61    1
     4    84    83    1
     5    61    64    1
     6    61    60    1
     7    64    65    1
     8    83    82    1
     9    83    86    1
    10    67    65    1
    11    24    23    2
    12    65    66    1
    13    86    87    1
    14    88    87    2
    15    23    22    1
    16    87    89   am
    17    22    25    1
    18    22    21    1
    19    55    54    2
    20    81    79   ar
    21    81    80   ar
    22    25    26    1
    23    71    70    2
    24    13    12    2
    25    79    77   ar
    26    80    78   ar
    27    54    53    1
    28    26    27    1
    29    58    57    2
    30    53    56    1
    31    53    52    1
    32    78    75   ar
    33    77    75   ar
    34    77    76   ar
    35    70    69    1
    36    12    11    1
    37    56    57    1
    38    57    59   am
    39    75    73   ar
    40    76    74   ar
    41    27    28    2
    42    27    29   am
    43    69    68    1
    44    69    72    1
    45    11    14    1
    46    11    10    1
    47    73    74   ar
    48    73    72    1
    49    14    15    1
    50    15    16    1
    51    16    17    1
    52    17    18    2
    53    40    39    2
    54    47    46    2
    55    18    19    1
    56    18    20    1
    57    39    38    1
    58    39    44   am
    59    46    45    1
    60    41    38    1
    61    41    43    1
    62    41    42    1
    63    45    44    1
    64    45    48    1
    65    38    37    1
    66     4     3    2
    67    49    51    1
    68    49    48    1
    69    49    50    1
    70     3     2    1
    71     2     5    1
    72     2     1    1
    73     5     6    1
    74     8     7   ar
    75    33    32    2
    76     6     7    1
    77     7     9   ar
    78    32    31    1
    79    34    35    1
    80    34    31    1
    81    35    36    1
    82    36    30    1
    83    31    30    1
