@<TRIPOS>MOLECULE
tmp/4fysA02.pdb
 89 82 0 0 0
SMALL
GASTEIGER

@<TRIPOS>ATOM
      1  N        129.4180   21.3960   35.9520 N.3    20  SER20      -0.1202
      2  CA       129.7630   20.7350   34.7130 C.3    20  SER20       0.2020
      3  C        129.7570   19.2190   34.9010 C.2    20  SER20       0.2619
      4  O        129.8760   18.7260   36.0240 O.2    20  SER20      -0.2717
      5  CB       131.1140   21.2160   34.1770 C.3    20  SER20       0.2103
      6  OG       132.1270   20.7370   34.9950 O.3    20  SER20      -0.2182
      7  N        129.5820   18.5000   33.7960 N.am   21  TYR21      -0.1961
      8  CA       129.5410   17.0310   33.8190 C.3    21  TYR21       0.1771
      9  C        130.4640   16.4710   32.7320 C.2    21  TYR21       0.2619
     10  O        130.6480   17.0660   31.6700 O.2    21  TYR21      -0.2715
     11  CB       128.1450   16.4960   33.4740 C.3    21  TYR21       0.0574
     12  CG       126.9480   16.8280   34.3440 C.ar   21  TYR21      -0.0198
     13  CD1      126.3540   18.0880   34.2950 C.ar   21  TYR21      -0.0009
     14  CD2      126.3380   15.8430   35.1100 C.ar   21  TYR21      -0.0009
     15  CE1      125.2340   18.3820   35.0330 C.ar   21  TYR21       0.0417
     16  CE2      125.1970   16.1140   35.8390 C.ar   21  TYR21       0.0417
     17  CZ       124.6440   17.3770   35.7760 C.ar   21  TYR21       0.1957
     18  OH       123.5150   17.6660   36.4870 O.3    21  TYR21      -0.2866
     19  N        131.0740   15.3260   33.0050 N.am   22  ARG22      -0.1977
     20  CA       131.5540   14.4890   31.9180 C.3    22  ARG22       0.1597
     21  C        130.7140   13.2200   31.9630 C.2    22  ARG22       0.2287
     22  O        130.2560   12.8090   33.0330 O.2    22  ARG22      -0.2864
     23  CB       133.0730   14.2360   31.9390 C.3    22  ARG22       0.0334
     24  CG       133.6220   13.6510   33.2310 C.3    22  ARG22       0.0492
     25  CD       135.1340   13.5310   33.0790 C.3    22  ARG22       0.2205
     26  NE       135.7920   12.9410   34.2360 N.pl3  22  ARG22      -0.0865
     27  CZ       136.2430   13.6420   35.2790 C.cat  22  ARG22       0.5346
     28  NH1      136.0510   14.9600   35.3590 N.pl3  22  ARG22       0.1354
     29  NH2      136.8430   13.0120   36.2720 N.pl3  22  ARG22       0.1354
     30  N        131.0200   11.8840   35.8380 N.3    44  THR44      -0.1218
     31  CA       131.4190   12.6940   36.9800 C.3    44  THR44       0.1862
     32  C        130.6430   13.9890   36.8830 C.2    44  THR44       0.2287
     33  O        130.6870   14.6460   35.8390 O.2    44  THR44      -0.2866
     34  CB       132.9250   12.9960   36.9570 C.3    44  THR44       0.1770
     35  OG1      133.6310   11.7700   37.1540 O.3    44  THR44      -0.2211
     36  CG2      133.3080   14.0020   38.0880 C.3    44  THR44       0.0375
     37  N        130.4590   17.7020   38.7070 N.3    46  ARG46      -0.1245
     38  CA       130.9560   18.7060   39.6480 C.3    46  ARG46       0.1563
     39  C        129.8320   19.6790   39.9830 C.2    46  ARG46       0.2260
     40  O        129.1700   20.2140   39.0810 O.2    46  ARG46      -0.2867
     41  CB       132.1550   19.4680   39.0720 C.3    46  ARG46       0.0307
     42  CG       132.8580   20.2880   40.1630 C.3    46  ARG46       0.0489
     43  CD       133.6600   21.4570   39.6460 C.3    46  ARG46       0.2205
     44  NE       134.1030   21.2140   38.3000 N.pl3  46  ARG46      -0.0865
     45  CZ       135.3020   20.7690   37.9710 C.cat  46  ARG46       0.5346
     46  NH1      136.2340   20.5540   38.9060 N.pl3  46  ARG46       0.1354
     47  NH2      135.5650   20.5680   36.6910 N.pl3  46  ARG46       0.1354
     48  N        132.7870   16.6710   43.6470 N.3   113  GLU113     -0.1245
     49  CA       132.5770   15.8390   42.4580 C.3   113  GLU113      0.1567
     50  C        132.0310   14.5010   42.8950 C.2   113  GLU113      0.2260
     51  O        132.4220   13.9640   43.9510 O.2   113  GLU113     -0.2867
     52  CB       133.8420   15.6630   41.6260 C.3   113  GLU113      0.0388
     53  CG       134.0860   16.8460   40.7000 C.3   113  GLU113      0.1160
     54  CD       135.3860   16.7640   39.9380 C.2   113  GLU113      0.3649
     55  OE1      136.0580   15.7250   40.0050 O.co2 113  GLU113     -0.2457
     56  OE2      135.7250   17.7400   39.2360 O.co2 113  GLU113     -0.2457
     57  N        127.7920   22.7340   31.7630 N.3   168  GLU168     -0.1245
     58  CA       128.5320   22.3200   30.5910 C.3   168  GLU168      0.1567
     59  C        128.5950   20.8090   30.5940 C.2   168  GLU168      0.2260
     60  O        128.6860   20.1950   31.6690 O.2   168  GLU168     -0.2867
     61  CB       129.9700   22.8700   30.6000 C.3   168  GLU168      0.0388
     62  CG       130.0640   24.3500   30.3040 C.3   168  GLU168      0.1160
     63  CD       130.2810   25.1650   31.5660 C.2   168  GLU168      0.3649
     64  OE1      130.0510   24.6370   32.6780 O.co2 168  GLU168     -0.2457
     65  OE2      130.6930   26.3380   31.4470 O.co2 168  GLU168     -0.2457
     66  N        130.5470   17.3740   28.8660 N.3   170  ASN170     -0.1240
     67  CA       131.7150   16.7820   28.1830 C.3   170  ASN170      0.1653
     68  C        131.3770   15.3350   27.8130 C.2   170  ASN170      0.2266
     69  O        131.4230   14.4330   28.6550 O.2   170  ASN170     -0.2867
     70  CB       132.9080   16.7700   29.1390 C.3   170  ASN170      0.1155
     71  CG       133.2880   18.1650   29.6220 C.2   170  ASN170      0.2627
     72  OD1      132.8750   19.1710   29.0460 O.2   170  ASN170     -0.2716
     73  ND2      134.0910   18.2260   30.6720 N.am  170  ASN170     -0.0877
     74  N        136.1950   16.3500   19.5930 N.3   188  LYS188     -0.1245
     75  CA       137.3770   16.9850   20.1670 C.3   188  LYS188      0.1561
     76  C        138.5300   16.0820   19.8190 C.2   188  LYS188      0.2260
     77  O        138.7680   15.1010   20.5190 O.2   188  LYS188     -0.2867
     78  CB       137.2380   17.0770   21.6920 C.3   188  LYS188      0.0271
     79  CG       138.4030   17.7850   22.3690 C.3   188  LYS188      0.0035
     80  CD       138.1930   17.8840   23.8690 C.3   188  LYS188      0.0206
     81  CE       139.1100   18.9270   24.4860 C.3   188  LYS188      0.1093
     82  NZ       139.1050   18.7450   25.9590 N.3   188  LYS188     -0.1314
     83  N        133.2810   20.4130   24.8010 N.3   207  THR207     -0.1218
     84  CA       132.3820   20.8400   25.8760 C.3   207  THR207      0.1862
     85  C        131.2080   21.6440   25.3040 C.2   207  THR207      0.2287
     86  O        131.4130   22.4870   24.4550 O.2   207  THR207     -0.2866
     87  CB       133.1710   21.7340   26.8640 C.3   207  THR207      0.1770
     88  OG1      134.3050   21.0000   27.3710 O.3   207  THR207     -0.2211
     89  CG2      132.3040   22.1650   28.0390 C.3   207  THR207      0.0375
@<TRIPOS>BOND
     1    74    75    1
     2    76    75    1
     3    76    77    2
     4    75    78    1
     5    78    79    1
     6    79    80    1
     7    80    81    1
     8    86    85    2
     9    81    82    1
    10    83    84    1
    11    85    84    1
    12    84    87    1
    13    87    88    1
    14    87    89    1
    15    68    67    1
    16    68    69    2
    17    67    66    1
    18    67    70    1
    19    72    71    2
    20    70    71    1
    21    71    73   am
    22    62    61    1
    23    62    63    1
    24    58    59    1
    25    58    61    1
    26    58    57    1
    27    59    60    2
    28    65    63   ar
    29    63    64   ar
    30    10     9    2
    31    20    23    1
    32    20    21    1
    33    20    19    1
    34    23    24    1
    35    21    22    2
    36     9    19   am
    37     9     8    1
    38    25    24    1
    39    25    26    1
    40    11     8    1
    41    11    12    1
    42     7     8    1
    43     7     3   am
    44     5     2    1
    45     5     6    1
    46    26    27    2
    47    13    12   ar
    48    13    15   ar
    49    12    14   ar
    50     2     3    1
    51     2     1    1
    52     3     4    2
    53    15    17   ar
    54    14    16   ar
    55    27    28    1
    56    27    29    1
    57    17    16   ar
    58    17    18    1
    59    30    31    1
    60    33    32    2
    61    47    45    1
    62    32    31    1
    63    34    31    1
    64    34    35    1
    65    34    36    1
    66    45    44    2
    67    45    46    1
    68    44    43    1
    69    37    38    1
    70    41    38    1
    71    41    42    1
    72    40    39    2
    73    56    54   ar
    74    43    42    1
    75    38    39    1
    76    54    55   ar
    77    54    53    1
    78    53    52    1
    79    52    49    1
    80    49    50    1
    81    49    48    1
    82    50    51    2
