@<TRIPOS>MOLECULE
tmp/4fytA00.pdb
 195 184 0 0 0
SMALL
GASTEIGER

@<TRIPOS>ATOM
      1  N        115.8960   10.7190   23.2340 N.3   147  GLN147     -0.1245
      2  CA       114.8480   11.7300   23.4490 C.3   147  GLN147      0.1566
      3  C        114.8330   11.9900   24.9590 C.2   147  GLN147      0.2260
      4  O        114.4360   11.1140   25.7650 O.2   147  GLN147     -0.2867
      5  CB       113.4580   11.2170   22.9830 C.3   147  GLN147      0.0367
      6  CG       112.2970   12.1660   23.3500 C.3   147  GLN147      0.0905
      7  CD       112.4730   13.5570   22.7570 C.2   147  GLN147      0.2608
      8  OE1      112.9020   13.6880   21.6150 O.2   147  GLN147     -0.2717
      9  NE2      112.1330   14.6120   23.5300 N.am  147  GLN147     -0.0878
     10  N        113.6090   15.1930   26.4620 N.3   149  GLN149     -0.1245
     11  CA       112.5120   16.0510   26.9400 C.3   149  GLN149      0.1566
     12  C        111.2390   15.2180   27.1840 C.2   149  GLN149      0.2260
     13  O        110.9120   14.3320   26.3650 O.2   149  GLN149     -0.2867
     14  CB       112.2420   17.2030   25.9510 C.3   149  GLN149      0.0367
     15  CG       111.4160   18.3260   26.5770 C.3   149  GLN149      0.0905
     16  CD       111.0110   19.3960   25.5840 C.2   149  GLN149      0.2608
     17  OE1      110.6340   19.1130   24.4400 O.2   149  GLN149     -0.2717
     18  NE2      111.0820   20.6390   26.0210 N.am  149  GLN149     -0.0878
     19  N        109.0810    9.2780   18.9980 N.3   286  ASN286     -0.1225
     20  CA       107.7990    9.5250   19.6950 C.3   286  ASN286      0.1785
     21  C        107.0650   10.7760   19.1900 C.2   286  ASN286      0.2597
     22  O        105.9130   10.7100   18.7120 O.2   286  ASN286     -0.2718
     23  CB       108.0740    9.5820   21.2090 C.3   286  ASN286      0.1169
     24  CG       106.8290    9.8270   22.0550 C.2   286  ASN286      0.2627
     25  OD1      105.6980    9.5960   21.6270 O.2   286  ASN286     -0.2716
     26  ND2      107.0450   10.2650   23.2940 N.am  286  ASN286     -0.0877
     27  N        107.7480   11.9150   19.2850 N.am  287  ALA287     -0.1966
     28  CA       107.2250   13.2100   18.8500 C.3   287  ALA287      0.1728
     29  C        107.3770   13.4160   17.3270 C.2   287  ALA287      0.2617
     30  O        107.7150   12.4810   16.5990 O.2   287  ALA287     -0.2715
     31  CB       107.9320   14.3150   19.6250 C.3   287  ALA287      0.0334
     32  N        107.1260   14.6350   16.8610 N.am  288  GLY288     -0.1940
     33  CA       107.3660   15.0070   15.4690 C.3   288  GLY288      0.2014
     34  C        108.8080   15.4110   15.2010 C.2   288  GLY288      0.2639
     35  O        109.3860   15.0630   14.1690 O.2   288  GLY288     -0.2714
     36  N        109.3860   16.1470   16.1500 N.am  289  ALA289     -0.1963
     37  CA       110.7780   16.6000   16.0790 C.3   289  ALA289      0.1728
     38  C        111.1360   17.1640   17.4580 C.2   289  ALA289      0.2616
     39  O        110.2380   17.3690   18.2950 O.2   289  ALA289     -0.2715
     40  CB       110.9520   17.6710   15.0200 C.3   289  ALA289      0.0334
     41  N        112.4270   17.4070   17.6830 N.am  290  MET290     -0.1963
     42  CA       112.9430   17.8340   18.9990 C.3   290  MET290      0.1736
     43  C        114.2110   18.6750   18.7950 C.2   290  MET290      0.2616
     44  O        115.1390   18.2480   18.0770 O.2   290  MET290     -0.2715
     45  CB       113.2670   16.6060   19.8630 C.3   290  MET290      0.0427
     46  CG       113.9510   16.9530   21.1860 C.3   290  MET290      0.0599
     47  SD       112.8340   17.8690   22.2630 S.3   290  MET290     -0.1393
     48  CE       114.0600   18.8560   23.1590 C.3   290  MET290      0.0692
     49  N        114.2600   19.8380   19.4460 N.am  291  GLU291     -0.1977
     50  CA       115.2090   20.9070   19.1080 C.3   291  GLU291      0.1602
     51  C        116.6010   20.7540   19.7380 C.2   291  GLU291      0.2287
     52  O        117.2810   21.7650   19.9850 O.2   291  GLU291     -0.2864
     53  CB       114.6100   22.2660   19.5680 C.3   291  GLU291      0.0415
     54  CG       114.4670   22.4240   21.0950 C.3   291  GLU291      0.1163
     55  CD       113.1180   21.9960   21.6600 C.2   291  GLU291      0.3649
     56  OE1      112.4480   21.1340   21.0550 O.co2 291  GLU291     -0.2457
     57  OE2      112.7210   22.4960   22.7570 O.co2 291  GLU291     -0.2457
     58  N        111.1030   12.8760   13.2110 N.3   299  ARG299     -0.1245
     59  CA       110.5520   11.7300   12.4690 C.3   299  ARG299      0.1563
     60  C        110.9500   11.8840   11.0040 C.2   299  ARG299      0.2260
     61  O        111.0360   12.9960   10.4920 O.2   299  ARG299     -0.2867
     62  CB       109.0260   11.7470   12.5090 C.3   299  ARG299      0.0307
     63  CG       108.4430   11.2600   13.7880 C.3   299  ARG299      0.0489
     64  CD       106.9260   11.3040   13.7060 C.3   299  ARG299      0.2205
     65  NE       106.3660   10.8090   14.9550 N.pl3 299  ARG299     -0.0865
     66  CZ       105.5510    9.7660   15.0640 C.cat 299  ARG299      0.5346
     67  NH1      105.1630    9.0980   13.9780 N.pl3 299  ARG299      0.1354
     68  NH2      105.1070    9.4170   16.2660 N.pl3 299  ARG299      0.1354
     69  N        109.0630   11.6080    8.4030 N.3   301  ASN301     -0.1240
     70  CA       107.9700   12.3830    7.7510 C.3   301  ASN301      0.1653
     71  C        107.9740   13.8700    8.0650 C.2   301  ASN301      0.2266
     72  O        107.0940   14.6380    7.6400 O.2   301  ASN301     -0.2867
     73  CB       106.5680   11.7400    7.9960 C.3   301  ASN301      0.1155
     74  CG       105.9830   11.9880    9.4000 C.2   301  ASN301      0.2627
     75  OD1      106.4020   12.8680   10.1320 O.2   301  ASN301     -0.2716
     76  ND2      104.9620   11.2030    9.7540 N.am  301  ASN301     -0.0877
     77  N        104.7140   20.8040    5.7850 N.3   317  ARG317     -0.1245
     78  CA       105.0720   20.2490    7.0980 C.3   317  ARG317      0.1563
     79  C        106.5870   20.2670    7.3250 C.2   317  ARG317      0.2260
     80  O        107.0640   20.6390    8.4040 O.2   317  ARG317     -0.2867
     81  CB       104.5290   18.8230    7.2650 C.3   317  ARG317      0.0307
     82  CG       104.9540   18.1810    8.5870 C.3   317  ARG317      0.0489
     83  CD       104.3160   16.8250    8.8280 C.3   317  ARG317      0.2205
     84  NE       104.9210   16.1780   10.0020 N.pl3 317  ARG317     -0.0865
     85  CZ       104.6780   16.5050   11.2770 C.cat 317  ARG317      0.5346
     86  NH1      103.8330   17.4920   11.5970 N.pl3 317  ARG317      0.1354
     87  NH2      105.3000   15.8380   12.2500 N.pl3 317  ARG317      0.1354
     88  N        108.1090   22.5390   10.3210 N.3   321  VAL321     -0.1245
     89  CA       108.6840   21.8370   11.4550 C.3   321  VAL321      0.1561
     90  C        110.1530   22.2160   11.5950 C.2   321  VAL321      0.2260
     91  O        110.6120   22.4680   12.7080 O.2   321  VAL321     -0.2867
     92  CB       108.5050   20.2990   11.3670 C.3   321  VAL321      0.0252
     93  CG1      109.2670   19.5880   12.4900 C.3   321  VAL321      0.0019
     94  CG2      107.0220   19.9480   11.4560 C.3   321  VAL321      0.0019
     95  N        110.1660   25.6340   13.0680 N.3   324  HIS324     -0.1226
     96  CA       109.7820   25.5260   14.4700 C.3   324  HIS324      0.1752
     97  C        110.9780   25.1180   15.3450 C.2   324  HIS324      0.2595
     98  O        111.2740   25.7750   16.3420 O.2   324  HIS324     -0.2718
     99  CB       108.6370   24.5190   14.6180 C.3   324  HIS324      0.0759
    100  CG       108.1750   24.3240   16.0340 C.ar  324  HIS324      0.0818
    101  ND1      106.9510   24.7720   16.4830 N.ar  324  HIS324     -0.2268
    102  CD2      108.7630   23.7100   17.0910 C.ar  324  HIS324      0.1154
    103  CE1      106.8150   24.4560   17.7650 C.ar  324  HIS324      0.1986
    104  NE2      107.8910   23.7980   18.1510 N.ar  324  HIS324     -0.2212
    105  N        111.6470   24.0210   14.9930 N.am  325  GLU325     -0.1979
    106  CA       112.7530   23.5680   15.8390 C.3   325  GLU325      0.1602
    107  C        113.9270   24.5630   15.8100 C.2   325  GLU325      0.2287
    108  O        114.6210   24.7240   16.8190 O.2   325  GLU325     -0.2864
    109  CB       113.2310   22.1640   15.4520 C.3   325  GLU325      0.0415
    110  CG       112.1750   21.0440   15.5110 C.3   325  GLU325      0.1163
    111  CD       111.2690   21.0490   16.7310 C.2   325  GLU325      0.3649
    112  OE1      111.6280   21.5220   17.8500 O.co2 325  GLU325     -0.2457
    113  OE2      110.1540   20.5430   16.5990 O.co2 325  GLU325     -0.2457
    114  N        113.4060   27.4040   18.2690 N.3   328  HIS328     -0.1241
    115  CA       113.8110   27.0020   19.6190 C.3   328  HIS328      0.1621
    116  C        115.2970   27.2280   19.9190 C.2   328  HIS328      0.2264
    117  O        115.6720   27.3060   21.0690 O.2   328  HIS328     -0.2867
    118  CB       113.5420   25.5220   19.8980 C.3   328  HIS328      0.0745
    119  CG       112.1230   25.1820   20.2320 C.ar  328  HIS328      0.0817
    120  ND1      111.4150   25.7810   21.2550 N.ar  328  HIS328     -0.2268
    121  CD2      111.2990   24.2420   19.7020 C.ar  328  HIS328      0.1154
    122  CE1      110.2130   25.2330   21.3330 C.ar  328  HIS328      0.1986
    123  NE2      110.1290   24.2780   20.4200 N.ar  328  HIS328     -0.2212
    124  N        107.3710   26.8420   23.5720 N.3   347  GLU347     -0.1245
    125  CA       106.5090   26.2690   22.5180 C.3   347  GLU347      0.1567
    126  C        105.5950   27.2710   21.8460 C.2   347  GLU347      0.2260
    127  O        105.2820   27.1200   20.6580 O.2   347  GLU347     -0.2867
    128  CB       105.6840   25.0960   23.0580 C.3   347  GLU347      0.0388
    129  CG       106.5200   23.9170   23.5590 C.3   347  GLU347      0.1160
    130  CD       107.4930   23.3580   22.5140 C.2   347  GLU347      0.3649
    131  OE1      107.2750   23.5700   21.3030 O.co2 347  GLU347     -0.2457
    132  OE2      108.4720   22.6820   22.9180 O.co2 347  GLU347     -0.2457
    133  N        107.7990   29.9550   13.8800 N.3   354  GLU354     -0.1245
    134  CA       107.9070   29.0080   12.7480 C.3   354  GLU354      0.1567
    135  C        107.3330   29.6190   11.4700 C.2   354  GLU354      0.2260
    136  O        107.8340   29.3530   10.3760 O.2   354  GLU354     -0.2867
    137  CB       107.2190   27.6630   13.0540 C.3   354  GLU354      0.0388
    138  CG       105.6920   27.7200   13.0480 C.3   354  GLU354      0.1160
    139  CD       105.0350   26.3930   13.3820 C.2   354  GLU354      0.3649
    140  OE1      105.3900   25.7440   14.3810 O.co2 354  GLU354     -0.2457
    141  OE2      104.1130   26.0190   12.6340 O.co2 354  GLU354     -0.2457
    142  N        102.2540   19.9220   27.0460 N.3   408  PHE408     -0.1241
    143  CA       102.5770   19.9970   25.6190 C.3   408  PHE408      0.1605
    144  C        101.2780   19.8950   24.8230 C.2   408  PHE408      0.2264
    145  O        100.9640   18.8480   24.2300 O.2   408  PHE408     -0.2867
    146  CB       103.5810   18.9010   25.2340 C.3   408  PHE408      0.0534
    147  CG       104.9570   19.1570   25.7870 C.ar  408  PHE408     -0.0203
    148  CD1      105.2360   18.9240   27.1420 C.ar  408  PHE408     -0.0042
    149  CD2      105.9540   19.7020   24.9720 C.ar  408  PHE408     -0.0042
    150  CE1      106.5060   19.1850   27.6610 C.ar  408  PHE408     -0.0003
    151  CE2      107.2320   19.9610   25.4850 C.ar  408  PHE408     -0.0003
    152  CZ       107.5020   19.7030   26.8350 C.ar  408  PHE408     -0.0000
    153  N        101.0750   25.6520   22.9710 N.3   413  TYR413     -0.1241
    154  CA       101.5060   25.8350   21.5870 C.3   413  TYR413      0.1605
    155  C        100.7110   26.9310   20.8850 C.2   413  TYR413      0.2264
    156  O        101.2600   27.9620   20.5110 O.2   413  TYR413     -0.2867
    157  CB       101.3530   24.5060   20.7940 C.3   413  TYR413      0.0534
    158  CG       102.5010   23.5280   21.0170 C.ar  413  TYR413     -0.0201
    159  CD1      102.5940   22.7880   22.2040 C.ar  413  TYR413     -0.0009
    160  CD2      103.4680   23.3250   20.0350 C.ar  413  TYR413     -0.0009
    161  CE1      103.6430   21.8860   22.4120 C.ar  413  TYR413      0.0417
    162  CE2      104.5150   22.4160   20.2300 C.ar  413  TYR413      0.0417
    163  CZ       104.5950   21.7140   21.4210 C.ar  413  TYR413      0.1957
    164  OH       105.6310   20.8250   21.6320 O.3   413  TYR413     -0.2866
    165  N         98.0690    6.9620   17.0730 N.3   797  SER797     -0.1217
    166  CA        97.6100    7.7390   15.9130 C.3   797  SER797      0.1889
    167  C         96.6510    6.9010   15.0200 C.2   797  SER797      0.2288
    168  O         95.6370    7.3950   14.5150 O.2   797  SER797     -0.2866
    169  CB        98.8280    8.2160   15.1150 C.3   797  SER797      0.2089
    170  OG        98.5000    8.5460   13.7850 O.3   797  SER797     -0.2183
    171  N        103.3220   12.5960   25.5930 N.3   832  PHE832     -0.1227
    172  CA       102.7560   13.7730   24.9430 C.3   832  PHE832      0.1736
    173  C        101.4250   13.5840   24.2470 C.2   832  PHE832      0.2596
    174  O        100.6060   14.5000   24.2440 O.2   832  PHE832     -0.2718
    175  CB       103.7750   14.3740   23.9640 C.3   832  PHE832      0.0547
    176  CG       105.1340   14.5370   24.5690 C.ar  832  PHE832     -0.0202
    177  CD1      105.3310   15.4260   25.6230 C.ar  832  PHE832     -0.0042
    178  CD2      106.2030   13.7700   24.1220 C.ar  832  PHE832     -0.0042
    179  CE1      106.5840   15.5680   26.2060 C.ar  832  PHE832     -0.0003
    180  CE2      107.4570   13.8980   24.7010 C.ar  832  PHE832     -0.0003
    181  CZ       107.6480   14.8070   25.7350 C.ar  832  PHE832     -0.0000
    182  N        101.2030   12.4220   23.6480 N.am  833  SER833     -0.1952
    183  CA       100.0320   12.3000   22.7650 C.3   833  SER833      0.1924
    184  C         98.8200   11.5790   23.3810 C.2   833  SER833      0.2314
    185  O         97.8230   11.3260   22.7100 O.2   833  SER833     -0.2863
    186  CB       100.4460   11.6720   21.4310 C.3   833  SER833      0.2116
    187  OG       101.0500   10.4200   21.6630 O.3   833  SER833     -0.2180
    188  N         95.3650   13.1200   23.2520 N.3   836  ASN836     -0.1240
    189  CA        94.7390   13.0160   21.9340 C.3   836  ASN836      0.1653
    190  C         93.8210   11.7870   21.8270 C.2   836  ASN836      0.2266
    191  O         92.7770   11.8510   21.1900 O.2   836  ASN836     -0.2867
    192  CB        95.7880   13.0050   20.8120 C.3   836  ASN836      0.1155
    193  CG        96.4590   14.3540   20.6160 C.2   836  ASN836      0.2627
    194  OD1       95.9980   15.3870   21.1190 O.2   836  ASN836     -0.2716
    195  ND2       97.5480   14.3550   19.8620 N.am  836  ASN836     -0.0877
@<TRIPOS>BOND
     1    77    78    1
     2    78    81    1
     3    78    79    1
     4    81    82    1
     5    79    80    2
     6    72    71    2
     7    70    73    1
     8    70    71    1
     9    70    69    1
    10    73    74    1
    11    82    83    1
    12    83    84    1
    13    74    76   am
    14    74    75    2
    15    84    85    2
    16    88    89    1
    17   136   135    2
    18    61    60    2
    19    60    59    1
    20    85    86    1
    21    85    87    1
    22    92    89    1
    23    92    94    1
    24    92    93    1
    25    89    90    1
    26   135   134    1
    27    90    91    2
    28    59    62    1
    29    59    58    1
    30    62    63    1
    31   141   139   ar
    32   134   137    1
    33   134   133    1
    34   138   137    1
    35   138   139    1
    36    95    96    1
    37   139   140   ar
    38    64    63    1
    39    64    65    1
    40   170   169    1
    41    67    66    1
    42    35    34    2
    43    96    99    1
    44    96    97    1
    45   168   167    2
    46    99   100    1
    47    65    66    2
    48   105    97   am
    49   105   106    1
    50    40    37    1
    51   167   166    1
    52    66    68    1
    53   169   166    1
    54    34    33    1
    55    34    36   am
    56    97    98    2
    57   109   110    1
    58   109   106    1
    59    33    32    1
    60   110   111    1
    61   107   106    1
    62   107   108    2
    63   166   165    1
    64   100   101   ar
    65   100   102   ar
    66    37    36    1
    67    37    38    1
    68   101   103   ar
    69   113   111   ar
    70    30    29    2
    71   111   112   ar
    72    32    29   am
    73   102   104   ar
    74    29    28    1
    75    38    41   am
    76    38    39    2
    77    41    42    1
    78   103   104   ar
    79    44    43    2
    80   114   115    1
    81    22    21    2
    82    43    42    1
    83    43    49   am
    84    28    27    1
    85    28    31    1
    86    19    20    1
    87    42    45    1
    88    50    49    1
    89    50    53    1
    90    50    51    1
    91    21    27   am
    92    21    20    1
    93    53    54    1
    94   115   118    1
    95   115   116    1
    96    20    23    1
    97   121   119   ar
    98   121   123   ar
    99    51    52    2
   100   195   193   am
   101    45    46    1
   102   118   119    1
   103   116   117    2
   104   160   162   ar
   105   160   158   ar
   106   162   163   ar
   107   119   120   ar
   108   123   122   ar
   109   156   155    2
   110   193   192    1
   111   193   194    2
   112   127   126    2
   113   157   158    1
   114   157   154    1
   115   192   189    1
   116   155   154    1
   117   158   159   ar
   118    56    55   ar
   119    54    55    1
   120    46    47    1
   121   191   190    2
   122    23    24    1
   123   120   122   ar
   124   131   130   ar
   125   163   164    1
   126   163   161   ar
   127   186   187    1
   128   186   183    1
   129   154   153    1
   130     8     7    2
   131    25    24    2
   132    55    57   ar
   133   190   189    1
   134   126   125    1
   135   189   188    1
   136    24    26   am
   137   159   161   ar
   138    47    48    1
   139   130   132   ar
   140   130   129    1
   141   125   128    1
   142   125   124    1
   143   185   184    2
   144     7     6    1
   145     7     9   am
   146   183   184    1
   147   183   182    1
   148     5     6    1
   149     5     2    1
   150   128   129    1
   151     1     2    1
   152     2     3    1
   153   182   173   am
   154   175   176    1
   155   175   172    1
   156   178   176   ar
   157   178   180   ar
   158   145   144    2
   159   174   173    2
   160   173   172    1
   161    17    16    2
   162   176   177   ar
   163   180   181   ar
   164   144   143    1
   165   172   171    1
   166     3     4    2
   167   149   151   ar
   168   149   147   ar
   169   146   143    1
   170   146   147    1
   171   151   152   ar
   172    16    18   am
   173    16    15    1
   174   143   142    1
   175   177   179   ar
   176   181   179   ar
   177   147   148   ar
   178    14    15    1
   179    14    11    1
   180    13    12    2
   181    10    11    1
   182   152   150   ar
   183    11    12    1
   184   148   150   ar
