@<TRIPOS>MOLECULE
tmp/4fytA02.pdb
 89 82 0 0 0
SMALL
GASTEIGER

@<TRIPOS>ATOM
      1  N        129.1110   21.2290   35.9570 N.3    20  SER20      -0.1202
      2  CA       129.4470   20.5250   34.7180 C.3    20  SER20       0.2020
      3  C        129.4760   19.0160   34.9140 C.2    20  SER20       0.2619
      4  O        129.5600   18.5160   36.0560 O.2    20  SER20      -0.2717
      5  CB       130.7610   21.0290   34.0950 C.3    20  SER20       0.2103
      6  OG       131.8700   20.6790   34.8800 O.3    20  SER20      -0.2182
      7  N        129.3710   18.3070   33.7940 N.am   21  TYR21      -0.1961
      8  CA       129.3130   16.8540   33.7910 C.3    21  TYR21       0.1771
      9  C        130.2280   16.3350   32.6970 C.2    21  TYR21       0.2619
     10  O        130.3810   16.9660   31.6370 O.2    21  TYR21      -0.2715
     11  CB       127.9140   16.3610   33.4050 C.3    21  TYR21       0.0574
     12  CG       126.7210   16.6920   34.2670 C.ar   21  TYR21      -0.0198
     13  CD1      126.1230   17.9540   34.2200 C.ar   21  TYR21      -0.0009
     14  CD2      126.1220   15.7050   35.0590 C.ar   21  TYR21      -0.0009
     15  CE1      124.9820   18.2350   34.9630 C.ar   21  TYR21       0.0417
     16  CE2      124.9770   15.9720   35.7940 C.ar   21  TYR21       0.0417
     17  CZ       124.4030   17.2350   35.7210 C.ar   21  TYR21       0.1957
     18  OH       123.2740   17.5150   36.4510 O.3    21  TYR21      -0.2866
     19  N        130.8350   15.1810   32.9510 N.am   22  ARG22      -0.1977
     20  CA       131.3320   14.3490   31.8640 C.3    22  ARG22       0.1597
     21  C        130.5460   13.0480   31.9090 C.2    22  ARG22       0.2287
     22  O        130.2160   12.5450   32.9780 O.2    22  ARG22      -0.2864
     23  CB       132.8510   14.1130   31.9290 C.3    22  ARG22       0.0334
     24  CG       133.3790   13.4600   33.1970 C.3    22  ARG22       0.0492
     25  CD       134.9010   13.3780   33.0670 C.3    22  ARG22       0.2205
     26  NE       135.5370   12.8150   34.2560 N.pl3  22  ARG22      -0.0865
     27  CZ       135.9290   13.5380   35.3050 C.cat  22  ARG22       0.5346
     28  NH1      135.7240   14.8480   35.3380 N.pl3  22  ARG22       0.1354
     29  NH2      136.5120   12.9420   36.3340 N.pl3  22  ARG22       0.1354
     30  N        130.7450   11.7420   35.8440 N.3    44  THR44      -0.1218
     31  CA       131.1410   12.5580   36.9740 C.3    44  THR44       0.1862
     32  C        130.3950   13.8760   36.8410 C.2    44  THR44       0.2287
     33  O        130.4520   14.4930   35.7810 O.2    44  THR44      -0.2866
     34  CB       132.6490   12.8420   36.9490 C.3    44  THR44       0.1770
     35  OG1      133.3490   11.6060   37.1780 O.3    44  THR44      -0.2211
     36  CG2      133.0260   13.8700   38.0460 C.3    44  THR44       0.0375
     37  N        130.2560   17.5830   38.6520 N.3    46  ARG46      -0.1245
     38  CA       130.7700   18.5790   39.5960 C.3    46  ARG46       0.1563
     39  C        129.6300   19.5290   39.9400 C.2    46  ARG46       0.2260
     40  O        128.9610   20.0490   39.0370 O.2    46  ARG46      -0.2867
     41  CB       131.9480   19.3360   38.9750 C.3    46  ARG46       0.0307
     42  CG       132.5110   20.4450   39.8770 C.3    46  ARG46       0.0489
     43  CD       133.7030   21.1380   39.2380 C.3    46  ARG46       0.2205
     44  NE       134.8950   20.3040   39.3790 N.pl3  46  ARG46      -0.0865
     45  CZ       136.1600   20.7230   39.2500 C.cat  46  ARG46       0.5346
     46  NH1      136.4300   21.9930   38.9810 N.pl3  46  ARG46       0.1354
     47  NH2      137.1640   19.8610   39.4050 N.pl3  46  ARG46       0.1354
     48  N        132.5030   16.4880   43.6560 N.3   113  GLU113     -0.1245
     49  CA       132.2900   15.6580   42.4580 C.3   113  GLU113      0.1567
     50  C        131.7430   14.3020   42.8620 C.2   113  GLU113      0.2260
     51  O        132.1300   13.7390   43.8920 O.2   113  GLU113     -0.2867
     52  CB       133.5600   15.5240   41.6260 C.3   113  GLU113      0.0388
     53  CG       133.8270   16.7590   40.7740 C.3   113  GLU113      0.1160
     54  CD       135.0990   16.6930   39.9590 C.2   113  GLU113      0.3649
     55  OE1      135.8030   15.6640   40.0050 O.co2 113  GLU113     -0.2457
     56  OE2      135.3870   17.6820   39.2380 O.co2 113  GLU113     -0.2457
     57  N        127.5240   22.5930   31.7910 N.3   168  GLU168     -0.1245
     58  CA       128.2270   22.1900   30.5840 C.3   168  GLU168      0.1567
     59  C        128.3760   20.6800   30.6270 C.2   168  GLU168      0.2260
     60  O        128.4890   20.0800   31.7090 O.2   168  GLU168     -0.2867
     61  CB       129.6190   22.8330   30.4750 C.3   168  GLU168      0.0388
     62  CG       129.6050   24.3410   30.2880 C.3   168  GLU168      0.1160
     63  CD       129.4500   25.0710   31.6110 C.2   168  GLU168      0.3649
     64  OE1      130.0530   24.6200   32.6060 O.co2 168  GLU168     -0.2457
     65  OE2      128.7100   26.0790   31.6720 O.co2 168  GLU168     -0.2457
     66  N        130.3400   17.2300   28.8350 N.3   170  ASN170     -0.1240
     67  CA       131.4930   16.6860   28.1350 C.3   170  ASN170      0.1653
     68  C        131.1650   15.2470   27.7810 C.2   170  ASN170      0.2266
     69  O        131.2520   14.3550   28.6210 O.2   170  ASN170     -0.2867
     70  CB       132.7000   16.6950   29.0840 C.3   170  ASN170      0.1155
     71  CG       133.0520   18.0900   29.5480 C.2   170  ASN170      0.2627
     72  OD1      132.5990   19.0810   28.9680 O.2   170  ASN170     -0.2716
     73  ND2      133.8650   18.1780   30.5980 N.am  170  ASN170     -0.0877
     74  N        136.0210   16.2890   19.5630 N.3   188  LYS188     -0.1245
     75  CA       137.2120   16.9360   20.1100 C.3   188  LYS188      0.1561
     76  C        138.3800   16.0330   19.7950 C.2   188  LYS188      0.2260
     77  O        138.5830   15.0310   20.4810 O.2   188  LYS188     -0.2867
     78  CB       137.0720   17.0860   21.6250 C.3   188  LYS188      0.0271
     79  CG       138.2300   17.8020   22.3020 C.3   188  LYS188      0.0035
     80  CD       138.0300   17.7980   23.8070 C.3   188  LYS188      0.0206
     81  CE       139.0180   18.7230   24.4960 C.3   188  LYS188      0.1093
     82  NZ       138.7050   18.7480   25.9520 N.3   188  LYS188     -0.1314
     83  N        133.0880   20.3850   24.7640 N.3   207  THR207     -0.1218
     84  CA       132.1680   20.7710   25.8270 C.3   207  THR207      0.1862
     85  C        130.9810   21.5670   25.2600 C.2   207  THR207      0.2287
     86  O        131.1660   22.4230   24.4100 O.2   207  THR207     -0.2866
     87  CB       132.9230   21.6490   26.8540 C.3   207  THR207      0.1770
     88  OG1      134.0600   20.9110   27.3450 O.3   207  THR207     -0.2211
     89  CG2      132.0280   22.0060   27.9980 C.3   207  THR207      0.0375
@<TRIPOS>BOND
     1    74    75    1
     2    76    75    1
     3    76    77    2
     4    75    78    1
     5    78    79    1
     6    79    80    1
     7    80    81    1
     8    86    85    2
     9    81    82    1
    10    83    84    1
    11    85    84    1
    12    84    87    1
    13    87    88    1
    14    87    89    1
    15    68    67    1
    16    68    69    2
    17    67    66    1
    18    67    70    1
    19    72    71    2
    20    70    71    1
    21    71    73   am
    22    62    61    1
    23    62    63    1
    24    61    58    1
    25    58    59    1
    26    58    57    1
    27    59    60    2
    28    63    65   ar
    29    63    64   ar
    30    10     9    2
    31    20    21    1
    32    20    23    1
    33    20    19    1
    34    21    22    2
    35    23    24    1
    36     9    19   am
    37     9     8    1
    38    25    24    1
    39    25    26    1
    40    11     8    1
    41    11    12    1
    42     8     7    1
    43     7     3   am
    44     5     2    1
    45     5     6    1
    46    13    12   ar
    47    13    15   ar
    48    26    27    2
    49    12    14   ar
    50     2     3    1
    51     2     1    1
    52     3     4    2
    53    15    17   ar
    54    14    16   ar
    55    27    28    1
    56    27    29    1
    57    17    16   ar
    58    17    18    1
    59    33    32    2
    60    30    31    1
    61    32    31    1
    62    34    31    1
    63    34    35    1
    64    34    36    1
    65    37    38    1
    66    41    38    1
    67    41    42    1
    68    46    45    1
    69    40    39    2
    70    43    44    1
    71    43    42    1
    72    56    54   ar
    73    45    44    2
    74    45    47    1
    75    38    39    1
    76    54    55   ar
    77    54    53    1
    78    53    52    1
    79    52    49    1
    80    49    50    1
    81    49    48    1
    82    50    51    2
