@<TRIPOS>MOLECULE
tmp/4fytA06.pdb
 98 92 0 0 0
SMALL
GASTEIGER

@<TRIPOS>ATOM
      1  N         71.4800   41.3340   15.7100 N.3   572  GLU572     -0.1245
      2  CA        71.0890   40.4820   14.5850 C.3   572  GLU572      0.1567
      3  C         70.9180   41.2900   13.3000 C.2   572  GLU572      0.2260
      4  O         71.0840   40.7440   12.2070 O.2   572  GLU572     -0.2867
      5  CB        69.8980   39.5550   14.9260 C.3   572  GLU572      0.0388
      6  CG        70.3800   38.3470   15.7530 C.3   572  GLU572      0.1160
      7  CD        69.3320   37.2700   16.0140 C.2   572  GLU572      0.3649
      8  OE1       68.6040   36.8600   15.0750 O.co2 572  GLU572     -0.2457
      9  OE2       69.2660   36.8030   17.1750 O.co2 572  GLU572     -0.2457
     10  N         72.5710   40.3140    9.7630 N.3   576  ARG576     -0.1245
     11  CA        71.8080   40.2230    8.5100 C.3   576  ARG576      0.1563
     12  C         72.4820   41.0160    7.3780 C.2   576  ARG576      0.2260
     13  O         72.4950   40.5390    6.2440 O.2   576  ARG576     -0.2867
     14  CB        70.3360   40.5810    8.7090 C.3   576  ARG576      0.0307
     15  CG        69.5910   39.4790    9.4760 C.3   576  ARG576      0.0489
     16  CD        68.0740   39.6880    9.4960 C.3   576  ARG576      0.2205
     17  NE        67.6990   40.9820   10.0690 N.pl3 576  ARG576     -0.0865
     18  CZ        67.4440   41.2080   11.3590 C.cat 576  ARG576      0.5346
     19  NH1       67.1110   42.4310   11.7570 N.pl3 576  ARG576      0.1354
     20  NH2       67.5340   40.2250   12.2530 N.pl3 576  ARG576      0.1354
     21  N         75.3310   38.9160    6.1930 N.3   579  GLN579     -0.1245
     22  CA        74.8060   37.8590    5.3180 C.3   579  GLN579      0.1566
     23  C         74.4030   38.4100    3.9340 C.2   579  GLN579      0.2260
     24  O         74.6130   37.7590    2.9230 O.2   579  GLN579     -0.2867
     25  CB        73.6340   37.1310    5.9780 C.3   579  GLN579      0.0367
     26  CG        74.1250   36.2820    7.1570 C.3   579  GLN579      0.0905
     27  CD        73.0130   35.8190    8.0600 C.2   579  GLN579      0.2608
     28  OE1       71.9140   36.3440    8.0230 O.2   579  GLN579     -0.2717
     29  NE2       73.2980   34.8290    8.8800 N.am  579  GLN579     -0.0878
     30  N         71.1060   32.1810   17.4080 N.3   611  PRO611     -0.2116
     31  CA        70.3880   30.9750   17.0040 C.3   611  PRO611      0.1372
     32  C         71.2640   30.1080   16.0930 C.2   611  PRO611      0.2244
     33  O         72.0170   30.6490   15.2670 O.2   611  PRO611     -0.2868
     34  CB        69.2190   31.5350   16.1740 C.3   611  PRO611      0.0268
     35  CG        69.0660   32.9510   16.6290 C.3   611  PRO611      0.0207
     36  CD        70.4640   33.4100   16.9100 C.3   611  PRO611      0.0892
     37  N         70.4040   28.5900   13.4890 N.3   613  THR613     -0.1203
     38  CA        70.0710   28.8460   12.0720 C.3   613  THR613      0.1994
     39  C         70.8400   30.0550   11.5180 C.2   613  THR613      0.2617
     40  O         71.0550   30.1460   10.3010 O.2   613  THR613     -0.2717
     41  CB        68.5690   29.0450   11.8290 C.3   613  THR613      0.1784
     42  OG1       68.1030   30.1330   12.6250 O.3   613  THR613     -0.2211
     43  CG2       67.7970   27.7820   12.1680 C.3   613  THR613      0.0376
     44  N         71.2730   30.9540   12.4040 N.am  614  LEU614     -0.1979
     45  CA        72.1170   32.0820   11.9790 C.3   614  LEU614      0.1596
     46  C         73.4830   31.5600   11.5400 C.2   614  LEU614      0.2287
     47  O         73.9780   31.9220   10.4600 O.2   614  LEU614     -0.2864
     48  CB        72.2140   33.1780   13.0820 C.3   614  LEU614      0.0297
     49  CG        72.8890   34.4980   12.6610 C.3   614  LEU614      0.0022
     50  CD1       72.4060   35.6620   13.5330 C.3   614  LEU614      0.0001
     51  CD2       74.4130   34.3770   12.7670 C.3   614  LEU614      0.0001
     52  N         73.0110   29.6380    8.3060 N.3   617  ASN617     -0.1240
     53  CA        72.8220   30.6420    7.2240 C.3   617  ASN617      0.1653
     54  C         74.1340   31.2600    6.7480 C.2   617  ASN617      0.2266
     55  O         74.2660   31.5880    5.5640 O.2   617  ASN617     -0.2867
     56  CB        71.8770   31.7810    7.6440 C.3   617  ASN617      0.1155
     57  CG        70.4050   31.3800    7.6570 C.2   617  ASN617      0.2627
     58  OD1       70.0130   30.3140    7.1840 O.2   617  ASN617     -0.2716
     59  ND2       69.5780   32.2500    8.2300 N.am  617  ASN617     -0.0877
     60  N         75.6600   29.4940    3.6570 N.3   620  LEU620     -0.1245
     61  CA        74.9470   29.4450    2.3640 C.3   620  LEU620      0.1561
     62  C         75.8130   29.9480    1.1940 C.2   620  LEU620      0.2260
     63  O         75.7810   29.3790    0.0860 O.2   620  LEU620     -0.2867
     64  CB        73.6210   30.2180    2.4640 C.3   620  LEU620      0.0270
     65  CG        72.5370   29.5670    3.3390 C.3   620  LEU620      0.0019
     66  CD1       71.3500   30.5200    3.5330 C.3   620  LEU620      0.0001
     67  CD2       72.0670   28.2200    2.7610 C.3   620  LEU620      0.0001
     68  N         66.4670   22.5770    9.3070 N.3   897  TRP897     -0.1241
     69  CA        67.2650   23.5160    8.5090 C.3   897  TRP897      0.1605
     70  C         67.9790   22.7990    7.3650 C.2   897  TRP897      0.2264
     71  O         67.8980   23.2500    6.2010 O.2   897  TRP897     -0.2867
     72  CB        68.2630   24.3110    9.3830 C.3   897  TRP897      0.0550
     73  CG        68.8660   25.4850    8.6460 C.ar  897  TRP897      0.0003
     74  CD1       68.4320   26.7880    8.7060 C.ar  897  TRP897      0.0946
     75  CD2       69.9710   25.4680    7.7250 C.ar  897  TRP897      0.0152
     76  NE1       69.2140   27.5760    7.8970 N.ar  897  TRP897     -0.2442
     77  CE2       70.1650   26.7990    7.2860 C.ar  897  TRP897      0.0810
     78  CE3       70.8270   24.4590    7.2440 C.ar  897  TRP897      0.0012
     79  CZ2       71.1730   27.1570    6.3760 C.ar  897  TRP897      0.0191
     80  CZ3       71.8390   24.8050    6.3460 C.ar  897  TRP897      0.0001
     81  CH2       72.0010   26.1500    5.9110 C.ar  897  TRP897      0.0015
     82  N         65.4220   21.6960    4.6920 N.3   900  GLU900     -0.1231
     83  CA        64.8480   22.8260    3.9240 C.3   900  GLU900      0.1699
     84  C         65.8590   23.6040    3.0860 C.2   900  GLU900      0.2592
     85  O         65.4490   24.3540    2.1880 O.2   900  GLU900     -0.2718
     86  CB        64.1210   23.7830    4.8570 C.3   900  GLU900      0.0402
     87  CG        62.8150   23.1830    5.3880 C.3   900  GLU900      0.1161
     88  CD        62.1110   24.0360    6.4420 C.2   900  GLU900      0.3649
     89  OE1       62.6210   25.1120    6.8430 O.co2 900  GLU900     -0.2457
     90  OE2       61.0250   23.6070    6.8960 O.co2 900  GLU900     -0.2457
     91  N         67.1550   23.4620    3.3880 N.am  901  ASN901     -0.1974
     92  CA        68.2000   24.1930    2.6710 C.3   901  ASN901      0.1688
     93  C         69.0590   23.3540    1.7460 C.2   901  ASN901      0.2292
     94  O         69.9750   23.8880    1.1080 O.2   901  ASN901     -0.2864
     95  CB        69.0950   24.9440    3.6630 C.3   901  ASN901      0.1181
     96  CG        68.3920   26.1370    4.2620 C.2   901  ASN901      0.2629
     97  OD1       68.4220   27.2320    3.6890 O.2   901  ASN901     -0.2716
     98  ND2       67.7050   25.9320    5.3640 N.am  901  ASN901     -0.0877
@<TRIPOS>BOND
     1    63    62    2
     2    94    93    2
     3    62    61    1
     4    93    92    1
     5    85    84    2
     6    61    64    1
     7    61    60    1
     8    64    65    1
     9    92    91    1
    10    92    95    1
    11    67    65    1
    12    24    23    2
    13    84    91   am
    14    84    83    1
    15    65    66    1
    16    95    96    1
    17    97    96    2
    18    83    82    1
    19    83    86    1
    20    23    22    1
    21    96    98   am
    22    86    87    1
    23    22    25    1
    24    22    21    1
    25    87    88    1
    26    55    54    2
    27    81    80   ar
    28    81    79   ar
    29    25    26    1
    30    71    70    2
    31    13    12    2
    32    80    78   ar
    33    79    77   ar
    34    88    89   ar
    35    88    90   ar
    36    54    53    1
    37    26    27    1
    38    58    57    2
    39    53    56    1
    40    53    52    1
    41    78    75   ar
    42    77    75   ar
    43    77    76   ar
    44    70    69    1
    45    12    11    1
    46    56    57    1
    47    57    59   am
    48    75    73   ar
    49    76    74   ar
    50    28    27    2
    51    27    29   am
    52    69    68    1
    53    69    72    1
    54    11    14    1
    55    11    10    1
    56    73    74   ar
    57    73    72    1
    58    14    15    1
    59    15    16    1
    60    16    17    1
    61    17    18    2
    62    40    39    2
    63    47    46    2
    64    18    19    1
    65    18    20    1
    66    39    38    1
    67    39    44   am
    68    46    45    1
    69    41    38    1
    70    41    43    1
    71    41    42    1
    72    45    44    1
    73    45    48    1
    74    38    37    1
    75     4     3    2
    76    49    51    1
    77    49    48    1
    78    49    50    1
    79     3     2    1
    80     2     5    1
    81     2     1    1
    82     5     6    1
    83     8     7   ar
    84    33    32    2
    85     6     7    1
    86     7     9   ar
    87    32    31    1
    88    34    35    1
    89    34    31    1
    90    35    36    1
    91    36    30    1
    92    31    30    1
