@<TRIPOS>MOLECULE
tmp/4fyyD00.pdb
 118 113 0 0 0
SMALL
GASTEIGER

@<TRIPOS>ATOM
      1  N         20.4100   97.5390   32.7140 N.3     1  LYS1       -0.1231
      2  CA        21.8560   97.4990   32.9030 C.3     1  LYS1        0.1693
      3  C         22.4190   96.0780   32.9200 C.2     1  LYS1        0.2592
      4  O         23.3760   95.7730   32.2070 O.2     1  LYS1       -0.2718
      5  CB        22.2540   98.2170   34.2020 C.3     1  LYS1        0.0285
      6  CG        23.7050   97.9690   34.6210 C.3     1  LYS1        0.0035
      7  CD        24.1200   98.7620   35.8620 C.3     1  LYS1        0.0206
      8  CE        23.5490   98.1720   37.1460 C.3     1  LYS1        0.1093
      9  NZ        24.5540   98.1360   38.2520 N.3     1  LYS1       -0.1314
     10  N         21.8020   95.2140   33.7230 N.am    2  LEU2       -0.1966
     11  CA        22.4290   93.9670   34.1770 C.3     2  LEU2        0.1728
     12  C         21.8690   92.6810   33.5520 C.2     2  LEU2        0.2616
     13  O         20.6850   92.3770   33.7050 O.2     2  LEU2       -0.2715
     14  CB        22.2920   93.8770   35.7020 C.3     2  LEU2        0.0311
     15  CG        23.5040   93.9290   36.6370 C.3     2  LEU2        0.0022
     16  CD1       24.5700   94.8810   36.1370 C.3     2  LEU2        0.0001
     17  CD2       23.0650   94.3240   38.0420 C.3     2  LEU2        0.0001
     18  N         22.7260   91.9160   32.8760 N.am    3  GLN3       -0.1963
     19  CA        22.3270   90.6130   32.3400 C.3     3  GLN3        0.1733
     20  C         22.0130   89.6330   33.4680 C.2     3  GLN3        0.2616
     21  O         21.0310   88.8900   33.4080 O.2     3  GLN3       -0.2715
     22  CB        23.4150   90.0280   31.4320 C.3     3  GLN3        0.0408
     23  CG        23.2000   90.2710   29.9410 C.3     3  GLN3        0.0908
     24  CD        22.9790   88.9760   29.1650 C.2     3  GLN3        0.2608
     25  OE1       23.3820   88.8540   28.0060 O.2     3  GLN3       -0.2717
     26  NE2       22.3310   88.0050   29.8050 N.am    3  GLN3       -0.0878
     27  N         22.8550   89.6310   34.4950 N.am    4  VAL4       -0.1977
     28  CA        22.6420   88.7710   35.6500 C.3     4  VAL4        0.1596
     29  C         22.2560   89.6310   36.8490 C.2     4  VAL4        0.2287
     30  O         23.1050   90.2830   37.4530 O.2     4  VAL4       -0.2864
     31  CB        23.8920   87.9360   35.9650 C.3     4  VAL4        0.0276
     32  CG1       23.6990   87.1670   37.2510 C.3     4  VAL4        0.0022
     33  CG2       24.1790   86.9750   34.8230 C.3     4  VAL4        0.0022
     34  N         28.4870   86.7580   46.0030 N.3    12  VAL12      -0.1245
     35  CA        28.8320   87.0820   44.6210 C.3    12  VAL12       0.1561
     36  C         30.3450   87.1780   44.4420 C.2    12  VAL12       0.2260
     37  O         30.9940   88.0570   45.0160 O.2    12  VAL12      -0.2867
     38  CB        28.1710   88.3960   44.1420 C.3    12  VAL12       0.0252
     39  CG1       28.7600   88.8220   42.8020 C.3    12  VAL12       0.0019
     40  CG2       26.6670   88.2200   44.0160 C.3    12  VAL12       0.0019
     41  N         33.0580   88.2510   42.1080 N.3    14  ASP14      -0.1225
     42  CA        33.2190   89.1510   40.9760 C.3    14  ASP14       0.1805
     43  C         34.6920   89.1410   40.6170 C.2    14  ASP14       0.2597
     44  O         35.4960   88.5530   41.3390 O.2    14  ASP14      -0.2718
     45  CB        32.8040   90.5700   41.3980 C.3    14  ASP14       0.1424
     46  CG        32.4180   91.4620   40.2210 C.2    14  ASP14       0.3668
     47  OD1       32.7570   91.1480   39.0640 O.co2  14  ASP14      -0.2456
     48  OD2       31.7850   92.5110   40.4740 O.co2  14  ASP14      -0.2456
     49  N         35.0490   89.7800   39.5070 N.am   15  HIS15      -0.1975
     50  CA        36.4570   89.9450   39.1410 C.3    15  HIS15       0.1656
     51  C         37.2030   88.6180   39.0160 C.2    15  HIS15       0.2291
     52  O         38.3430   88.4840   39.4690 O.2    15  HIS15      -0.2864
     53  CB        37.1650   90.8690   40.1390 C.3    15  HIS15       0.0771
     54  CG        36.4270   92.1450   40.4030 C.ar   15  HIS15       0.0820
     55  ND1       36.2010   92.6250   41.6750 N.ar   15  HIS15      -0.2267
     56  CD2       35.8580   93.0370   39.5560 C.ar   15  HIS15       0.1154
     57  CE1       35.5240   93.7580   41.6000 C.ar   15  HIS15       0.1986
     58  NE2       35.3030   94.0320   40.3290 N.ar   15  HIS15      -0.2212
     59  N         32.0680   88.4280   30.6710 N.3    43  LEU43      -0.1231
     60  CA        31.4160   89.7220   30.8500 C.3    43  LEU43       0.1678
     61  C         32.4490   90.8390   30.7150 C.2    43  LEU43       0.2434
     62  O         33.6260   90.6420   31.0110 O.2    43  LEU43      -0.2733
     63  CB        30.7330   89.7880   32.2190 C.3    43  LEU43       0.0284
     64  CG        29.7110   88.6780   32.4580 C.3    43  LEU43       0.0019
     65  CD1       29.1560   88.7000   33.8720 C.3    43  LEU43       0.0001
     66  CD2       28.5850   88.7980   31.4550 C.3    43  LEU43       0.0001
     67  N         32.0200   92.0130   30.2400 N.am   44  PRO44      -0.2718
     68  CA        32.9770   93.1230   30.2170 C.3    44  PRO44       0.1535
     69  C         33.2660   93.6180   31.6300 C.2    44  PRO44       0.2599
     70  O         32.4640   93.4000   32.5370 O.2    44  PRO44      -0.2715
     71  CB        32.2500   94.2030   29.4030 C.3    44  PRO44       0.0310
     72  CG        30.8060   93.8490   29.4910 C.3    44  PRO44       0.0237
     73  CD        30.7400   92.3550   29.5970 C.3    44  PRO44       0.0939
     74  N         34.4170   94.2540   31.8090 N.am   45  SER45      -0.1936
     75  CA        34.7880   94.8600   33.0810 C.3    45  SER45       0.2055
     76  C         35.6560   96.0670   32.7740 C.2    45  SER45       0.2644
     77  O         36.4330   96.0450   31.8220 O.2    45  SER45      -0.2714
     78  CB        35.5680   93.8640   33.9490 C.3    45  SER45       0.2130
     79  OG        35.9210   94.4240   35.2070 O.3    45  SER45      -0.2179
     80  N         35.5180   97.1280   33.5600 N.am   46  GLY46      -0.1939
     81  CA        36.4040   98.2660   33.4150 C.3    46  GLY46       0.2014
     82  C         37.7900   97.9020   33.9110 C.2    46  GLY46       0.2638
     83  O         38.7830   98.0760   33.2050 O.2    46  GLY46      -0.2714
     84  N         37.8490   97.3640   35.1250 N.am   47  GLU47      -0.1977
     85  CA        39.1220   97.0690   35.7740 C.3    47  GLU47       0.1602
     86  C         39.8800   95.8670   35.1930 C.2    47  GLU47       0.2287
     87  O         41.0660   95.6940   35.4760 O.2    47  GLU47      -0.2864
     88  CB        38.9360   96.9040   37.2890 C.3    47  GLU47       0.0415
     89  CG        38.0090   95.7650   37.6940 C.3    47  GLU47       0.1163
     90  CD        38.3890   95.1410   39.0260 C.2    47  GLU47       0.3649
     91  OE1       38.3190   95.8380   40.0620 O.co2  47  GLU47      -0.2457
     92  OE2       38.7600   93.9470   39.0330 O.co2  47  GLU47      -0.2457
     93  N         35.6130   89.4500   32.1640 N.3    51  LYS51      -0.1245
     94  CA        35.5880   88.7160   33.4320 C.3    51  LYS51       0.1561
     95  C         34.5160   87.6450   33.5030 C.2    51  LYS51       0.2260
     96  O         33.5890   87.6210   32.6900 O.2    51  LYS51      -0.2867
     97  CB        35.3500   89.6760   34.6000 C.3    51  LYS51       0.0271
     98  CG        33.9280   90.2240   34.6670 C.3    51  LYS51       0.0035
     99  CD        33.6850   90.9480   35.9840 C.3    51  LYS51       0.0206
    100  CE        32.4880   91.8750   35.9000 C.3    51  LYS51       0.1093
    101  NZ        32.5340   92.8830   36.9960 N.3    51  LYS51      -0.1314
    102  N         31.7980   85.7250   36.4940 N.3    53  LEU53      -0.1245
    103  CA        31.0420   86.1690   37.6600 C.3    53  LEU53       0.1561
    104  C         30.1100   85.0660   38.1190 C.2    53  LEU53       0.2260
    105  O         29.3960   84.4690   37.3060 O.2    53  LEU53      -0.2867
    106  CB        30.2040   87.3970   37.3220 C.3    53  LEU53       0.0270
    107  CG        29.3820   87.9060   38.5110 C.3    53  LEU53       0.0019
    108  CD1       30.0480   89.1160   39.1540 C.3    53  LEU53       0.0001
    109  CD2       27.9650   88.2300   38.1050 C.3    53  LEU53       0.0001
    110  N         27.2280   83.9990   41.1290 N.3    55  LYS55      -0.1245
    111  CA        26.3690   84.3400   42.2540 C.3    55  LYS55       0.1561
    112  C         25.7780   83.0590   42.8330 C.2    55  LYS55       0.2260
    113  O         25.2280   82.2460   42.0880 O.2    55  LYS55      -0.2867
    114  CB        25.2510   85.2810   41.8010 C.3    55  LYS55       0.0271
    115  CG        25.7240   86.5070   41.0290 C.3    55  LYS55       0.0035
    116  CD        24.6560   87.6040   41.0030 C.3    55  LYS55       0.0206
    117  CE        25.1200   88.7970   40.1820 C.3    55  LYS55       0.1093
    118  NZ        24.1610   89.9400   40.2090 N.3    55  LYS55      -0.1314
@<TRIPOS>BOND
     1    25    24    2
     2    24    26   am
     3    24    23    1
     4    71    72    1
     5    71    68    1
     6    72    73    1
     7    73    67    1
     8    23    22    1
     9    68    67    1
    10    68    69    1
    11    67    61   am
    12    59    60    1
    13    61    60    1
    14    61    62    2
    15    60    63    1
    16    22    19    1
    17    66    64    1
    18    69    74   am
    19    69    70    2
    20    74    75    1
    21    77    76    2
    22    93    94    1
    23     4     3    2
    24    63    64    1
    25    19    18    1
    26    19    20    1
    27    64    65    1
    28    96    95    2
    29     1     2    1
    30    76    75    1
    31    76    80   am
    32    18    12   am
    33     2     3    1
    34     2     5    1
    35     3    10   am
    36    75    78    1
    37    83    82    2
    38    21    20    2
    39    81    80    1
    40    81    82    1
    41    94    95    1
    42    94    97    1
    43    20    27   am
    44    12    13    2
    45    12    11    1
    46    10    11    1
    47    82    84   am
    48    78    79    1
    49    11    14    1
    50     5     6    1
    51    27    28    1
    52    97    98    1
    53     6     7    1
    54    98    99    1
    55    33    31    1
    56    84    85    1
    57    86    87    2
    58    86    85    1
    59    28    31    1
    60    28    29    1
    61    14    15    1
    62    85    88    1
    63     7     8    1
    64   100    99    1
    65   100   101    1
    66    31    32    1
    67    16    15    1
    68   102   103    1
    69    15    17    1
    70    29    30    2
    71     8     9    1
    72    88    89    1
    73   105   104    2
    74   106   103    1
    75   106   107    1
    76   103   104    1
    77    89    90    1
    78   109   107    1
    79   107   108    1
    80    51    50    1
    81    51    52    2
    82    90    92   ar
    83    90    91   ar
    84    47    46   ar
    85    50    49    1
    86    50    53    1
    87    49    43   am
    88    56    58   ar
    89    56    54   ar
    90    53    54    1
    91   117   118    1
    92   117   116    1
    93    46    48   ar
    94    46    45    1
    95    58    57   ar
    96    54    55   ar
    97    43    42    1
    98    43    44    2
    99    42    45    1
   100    42    41    1
   101   116   115    1
   102   115   114    1
   103   110   111    1
   104    57    55   ar
   105   114   111    1
   106   113   112    2
   107   111   112    1
   108    39    38    1
   109    40    38    1
   110    38    35    1
   111    36    35    1
   112    36    37    2
   113    35    34    1
