@<TRIPOS>MOLECULE
tmp/4fz3A00.pdb
 181 181 0 0 0
SMALL
GASTEIGER

@<TRIPOS>ATOM
      1  N         31.8070  -33.8690   -4.3370 N.3    49  PHE49      -0.1241
      2  CA        31.5330  -34.3240   -2.9740 C.3    49  PHE49       0.1605
      3  C         30.6430  -35.5520   -2.8840 C.2    49  PHE49       0.2264
      4  O         29.8880  -35.7400   -1.8980 O.2    49  PHE49      -0.2867
      5  CB        30.9970  -33.2080   -2.1190 C.3    49  PHE49       0.0534
      6  CG        31.7270  -31.9250   -2.2840 C.ar   49  PHE49      -0.0203
      7  CD1       33.0750  -31.8640   -1.9660 C.ar   49  PHE49      -0.0042
      8  CD2       31.0400  -30.7500   -2.6470 C.ar   49  PHE49      -0.0042
      9  CE1       33.8000  -30.6360   -2.0090 C.ar   49  PHE49      -0.0003
     10  CE2       31.7400  -29.5100   -2.7610 C.ar   49  PHE49      -0.0003
     11  CZ        33.1300  -29.4540   -2.4360 C.ar   49  PHE49      -0.0000
     12  N         29.1860  -23.1080    6.6440 N.3    97  GLN97      -0.1245
     13  CA        29.0640  -24.0280    5.5390 C.3    97  GLN97       0.1566
     14  C         30.2980  -24.0820    4.6350 C.2    97  GLN97       0.2260
     15  O         30.3670  -24.9470    3.7530 O.2    97  GLN97      -0.2867
     16  CB        27.8430  -23.5950    4.6710 C.3    97  GLN97       0.0367
     17  CG        26.5060  -23.6700    5.4230 C.3    97  GLN97       0.0905
     18  CD        25.3080  -23.1790    4.5670 C.2    97  GLN97       0.2608
     19  OE1       24.5300  -23.9970    4.1490 O.2    97  GLN97      -0.2717
     20  NE2       25.2310  -21.8690    4.2660 N.am   97  GLN97      -0.0878
     21  N         34.3780  -24.3700    3.4920 N.3    99  ILE99      -0.1245
     22  CA        35.3540  -25.3830    3.7550 C.3    99  ILE99       0.1561
     23  C         36.7350  -24.8390    3.5020 C.2    99  ILE99       0.2260
     24  O         37.7210  -25.5850    3.4580 O.2    99  ILE99      -0.2867
     25  CB        35.1580  -26.7290    2.9560 C.3    99  ILE99       0.0252
     26  CG1       35.2410  -26.5250    1.4300 C.3    99  ILE99       0.0019
     27  CG2       33.9240  -27.4070    3.3930 C.3    99  ILE99       0.0019
     28  CD1       35.1530  -27.8540    0.5460 C.3    99  ILE99       0.0001
     29  N         30.3240  -28.4940    7.2210 N.3   117  HIS117     -0.1241
     30  CA        30.6730  -29.3110    6.0770 C.3   117  HIS117      0.1621
     31  C         32.0970  -29.8720    6.1710 C.2   117  HIS117      0.2264
     32  O         32.6230  -30.3310    5.1690 O.2   117  HIS117     -0.2867
     33  CB        30.4890  -28.4900    4.8010 C.3   117  HIS117      0.0745
     34  CG        29.0530  -28.3570    4.4150 C.ar  117  HIS117      0.0817
     35  ND1       28.5780  -27.3270    3.6460 N.ar  117  HIS117     -0.2268
     36  CD2       27.9740  -29.1140    4.7390 C.ar  117  HIS117      0.1154
     37  CE1       27.2720  -27.4480    3.4980 C.ar  117  HIS117      0.1986
     38  NE2       26.8700  -28.5090    4.1760 N.ar  117  HIS117     -0.2212
     39  N         36.2620  -33.5140    4.8160 N.3   160  ILE160     -0.1231
     40  CA        35.0850  -32.8450    4.1640 C.3   160  ILE160      0.1692
     41  C         33.9070  -33.7970    4.1940 C.2   160  ILE160      0.2592
     42  O         34.0530  -35.0140    3.9370 O.2   160  ILE160     -0.2718
     43  CB        35.4030  -32.3460    2.7290 C.3   160  ILE160      0.0266
     44  CG1       36.6870  -31.5500    2.7320 C.3   160  ILE160      0.0019
     45  CG2       34.2640  -31.5530    2.0950 C.3   160  ILE160      0.0020
     46  CD1       36.7110  -30.2750    3.7520 C.3   160  ILE160      0.0001
     47  N         32.7630  -33.2710    4.6040 N.am  161  VAL161     -0.1966
     48  CA        31.5300  -34.0050    4.6310 C.3   161  VAL161      0.1727
     49  C         31.0100  -34.0840    3.1520 C.2   161  VAL161      0.2616
     50  O         30.8410  -33.0610    2.4620 O.2   161  VAL161     -0.2715
     51  CB        30.4250  -33.3330    5.5650 C.3   161  VAL161      0.0290
     52  CG1       29.0660  -34.1530    5.5060 C.3   161  VAL161      0.0023
     53  CG2       30.9320  -33.2490    7.1150 C.3   161  VAL161      0.0023
     54  N         30.7570  -35.2790    2.7130 N.am  162  PHE162     -0.1960
     55  CA        30.2270  -35.4880    1.3310 C.3   162  PHE162      0.1771
     56  C         28.7090  -35.7120    1.4090 C.2   162  PHE162      0.2620
     57  O         28.1520  -36.1050    2.4720 O.2   162  PHE162     -0.2715
     58  CB        30.9380  -36.7230    0.7520 C.3   162  PHE162      0.0574
     59  CG        32.3020  -36.4350    0.1130 C.ar  162  PHE162     -0.0200
     60  CD1       33.0320  -35.3010    0.4530 C.ar  162  PHE162     -0.0042
     61  CD2       32.8220  -37.3090   -0.8690 C.ar  162  PHE162     -0.0042
     62  CE1       34.2420  -35.0210   -0.1090 C.ar  162  PHE162     -0.0003
     63  CE2       34.0460  -37.0620   -1.4590 C.ar  162  PHE162     -0.0003
     64  CZ        34.7870  -35.8770   -1.0760 C.ar  162  PHE162     -0.0000
     65  N         28.0080  -35.4990    0.3070 N.am  163  PHE163     -0.1960
     66  CA        26.5710  -35.9260    0.2040 C.3   163  PHE163      0.1771
     67  C         26.2150  -37.2830    0.7860 C.2   163  PHE163      0.2620
     68  O         26.9280  -38.2420    0.6320 O.2   163  PHE163     -0.2715
     69  CB        26.0370  -35.7050   -1.2050 C.3   163  PHE163      0.0574
     70  CG        26.1850  -34.2770   -1.6550 C.ar  163  PHE163     -0.0200
     71  CD1       25.3940  -33.2800   -1.0980 C.ar  163  PHE163     -0.0042
     72  CD2       27.1200  -33.9400   -2.6310 C.ar  163  PHE163     -0.0042
     73  CE1       25.5120  -31.9690   -1.5360 C.ar  163  PHE163     -0.0003
     74  CE2       27.3020  -32.6200   -3.0740 C.ar  163  PHE163     -0.0003
     75  CZ        26.4880  -31.6230   -2.5280 C.ar  163  PHE163     -0.0000
     76  N         25.1400  -37.3370    1.5620 N.am  164  GLY164     -0.1940
     77  CA        24.7360  -38.5780    2.1990 C.3   164  GLY164      0.2014
     78  C         25.4360  -38.8540    3.5270 C.2   164  GLY164      0.2639
     79  O         25.0180  -39.7670    4.2600 O.2   164  GLY164     -0.2714
     80  N         26.5120  -38.1130    3.8460 N.am  165  GLU165     -0.1963
     81  CA        27.2450  -38.3520    5.0910 C.3   165  GLU165      0.1718
     82  C         26.5800  -37.6130    6.2540 C.2   165  GLU165      0.2458
     83  O         25.9410  -36.5810    6.0520 O.2   165  GLU165     -0.2730
     84  CB        28.7150  -37.9120    4.9390 C.3   165  GLU165      0.0428
     85  CG        29.5710  -38.9400    4.1230 C.3   165  GLU165      0.1163
     86  CD        31.0290  -38.6590    4.2780 C.2   165  GLU165      0.3649
     87  OE1       31.4540  -37.4670    4.1750 O.co2 165  GLU165     -0.2457
     88  OE2       31.7660  -39.6240    4.4630 O.co2 165  GLU165     -0.2457
     89  N         26.6800  -38.1640    7.4650 N.am  166  PRO166     -0.2716
     90  CA        26.1390  -37.4120    8.6640 C.3   166  PRO166      0.1536
     91  C         26.9330  -36.0990    8.8020 C.2   166  PRO166      0.2598
     92  O         28.1020  -36.0340    8.4470 O.2   166  PRO166     -0.2715
     93  CB        26.4590  -38.3530    9.8500 C.3   166  PRO166      0.0310
     94  CG        27.5300  -39.3420    9.2900 C.3   166  PRO166      0.0237
     95  CD        27.1740  -39.5090    7.8290 C.3   166  PRO166      0.0939
     96  N         26.2920  -35.0510    9.2630 N.am  167  LEU167     -0.1978
     97  CA        27.0340  -33.8240    9.5870 C.3   167  LEU167      0.1596
     98  C         27.9990  -34.1360   10.7670 C.2   167  LEU167      0.2287
     99  O         27.8820  -35.1670   11.4080 O.2   167  LEU167     -0.2864
    100  CB        26.0340  -32.7460    9.9180 C.3   167  LEU167      0.0297
    101  CG        25.1540  -32.3900    8.7380 C.3   167  LEU167      0.0022
    102  CD1       24.0270  -31.4580    9.2300 C.3   167  LEU167      0.0001
    103  CD2       26.0140  -31.6280    7.7350 C.3   167  LEU167      0.0001
    104  N         28.1440  -30.6710   15.1400 N.3   171  PHE171     -0.1227
    105  CA        26.8390  -30.0860   14.7520 C.3   171  PHE171      0.1736
    106  C         25.7330  -30.2570   15.8060 C.2   171  PHE171      0.2595
    107  O         24.8260  -29.4160   15.8790 O.2   171  PHE171     -0.2718
    108  CB        26.3440  -30.6730   13.4270 C.3   171  PHE171      0.0547
    109  CG        25.2320  -29.9080   12.8450 C.ar  171  PHE171     -0.0202
    110  CD1       25.4860  -28.6770   12.2460 C.ar  171  PHE171     -0.0042
    111  CD2       23.9320  -30.3980   12.8990 C.ar  171  PHE171     -0.0042
    112  CE1       24.4370  -27.9330   11.6830 C.ar  171  PHE171     -0.0003
    113  CE2       22.8630  -29.6430   12.3770 C.ar  171  PHE171     -0.0003
    114  CZ        23.1340  -28.4230   11.7690 C.ar  171  PHE171     -0.0000
    115  N         25.7740  -31.3580   16.5660 N.am  172  LEU172     -0.1980
    116  CA        24.8590  -31.5800   17.6970 C.3   172  LEU172      0.1596
    117  C         24.8220  -30.4250   18.7030 C.2   172  LEU172      0.2287
    118  O         23.9270  -30.3750   19.5140 O.2   172  LEU172     -0.2864
    119  CB        25.1240  -32.8910   18.4570 C.3   172  LEU172      0.0297
    120  CG        24.8940  -34.2040   17.6930 C.3   172  LEU172      0.0022
    121  CD1       25.3630  -35.4360   18.4560 C.3   172  LEU172      0.0001
    122  CD2       23.4100  -34.3770   17.3260 C.3   172  LEU172      0.0001
    123  N         23.9820  -27.5610   18.0070 N.3   174  HIS174     -0.1226
    124  CA        22.8010  -26.7620   17.6550 C.3   174  HIS174      0.1752
    125  C         21.6660  -26.9530   18.6410 C.2   174  HIS174      0.2595
    126  O         20.8780  -26.0110   18.8560 O.2   174  HIS174     -0.2718
    127  CB        22.2520  -27.0150   16.2380 C.3   174  HIS174      0.0759
    128  CG        21.4230  -28.2430   16.1150 C.ar  174  HIS174      0.0818
    129  ND1       21.9690  -29.4880   15.8420 N.ar  174  HIS174     -0.2268
    130  CD2       20.0760  -28.4270   16.2040 C.ar  174  HIS174      0.1154
    131  CE1       20.9990  -30.3830   15.7860 C.ar  174  HIS174      0.1986
    132  NE2       19.8460  -29.7640   16.0060 N.ar  174  HIS174     -0.2212
    133  N         21.5920  -28.1580   19.2230 N.am  175  VAL175     -0.1980
    134  CA        20.5400  -28.5230   20.2260 C.3   175  VAL175      0.1595
    135  C         20.6120  -27.6380   21.4710 C.2   175  VAL175      0.2287
    136  O         19.6200  -27.3610   22.1030 O.2   175  VAL175     -0.2864
    137  CB        20.6610  -29.9980   20.6550 C.3   175  VAL175      0.0276
    138  CG1       19.8070  -30.2780   21.9200 C.3   175  VAL175      0.0022
    139  CG2       20.2300  -30.9420   19.5030 C.3   175  VAL175      0.0022
    140  N         18.6280  -24.5110    2.6900 N.3   193  VAL193     -0.1231
    141  CA        18.6870  -25.9640    2.6500 C.3   193  VAL193      0.1693
    142  C         18.7780  -26.5360    4.0610 C.2   193  VAL193      0.2595
    143  O         19.3790  -25.9080    4.9450 O.2   193  VAL193     -0.2718
    144  CB        19.9000  -26.4280    1.8050 C.3   193  VAL193      0.0266
    145  CG1       19.9440  -28.0000    1.6700 C.3   193  VAL193      0.0020
    146  CG2       19.9300  -25.7210    0.4350 C.3   193  VAL193      0.0020
    147  N         18.1770  -27.7160    4.2470 N.am  194  GLU194     -0.1920
    148  CA        18.0760  -28.3830    5.5500 C.3   194  GLU194      0.1934
    149  C         19.4570  -28.9690    5.9200 C.2   194  GLU194      0.2501
    150  O         20.2610  -29.2470    5.0280 O.2   194  GLU194     -0.2726
    151  CB        16.9800  -29.4880    5.5550 C.2   194  GLU194      0.0111
    152  CG        15.5600  -29.1190    6.0880 C.2   194  GLU194      0.0838
    153  CD        15.4560  -27.7340    6.7970 C.2   194  GLU194      0.3877
    154  OE1       15.9210  -27.5700    7.9540 O.co2 194  GLU194     -0.2406
    155  OE2       14.8670  -26.8040    6.1850 O.co2 194  GLU194     -0.2406
    156  N         19.7450  -29.1060    7.2400 N.am  195  PRO195     -0.2713
    157  CA        18.8800  -28.6970    8.3570 C.3   195  PRO195      0.1536
    158  C         19.0770  -27.2320    8.7390 C.2   195  PRO195      0.2598
    159  O         18.6070  -26.8050    9.7930 O.2   195  PRO195     -0.2715
    160  CB        19.3460  -29.5980    9.4950 C.3   195  PRO195      0.0310
    161  CG        20.7990  -29.7080    9.2490 C.3   195  PRO195      0.0237
    162  CD        21.0140  -29.6600    7.7410 C.3   195  PRO195      0.0939
    163  N         19.7430  -26.4690    7.8820 N.am  196  PHE196     -0.1974
    164  CA        20.1230  -25.1210    8.2410 C.3   196  PHE196      0.1639
    165  C         18.9460  -24.1690    8.2380 C.2   196  PHE196      0.2290
    166  O         18.9230  -23.1800    8.9920 O.2   196  PHE196     -0.2864
    167  CB        21.2030  -24.6160    7.2950 C.3   196  PHE196      0.0560
    168  CG        22.4460  -25.4640    7.3200 C.ar  196  PHE196     -0.0200
    169  CD1       23.5130  -25.1180    8.1510 C.ar  196  PHE196     -0.0042
    170  CD2       22.5400  -26.6210    6.5230 C.ar  196  PHE196     -0.0042
    171  CE1       24.6330  -25.8940    8.1940 C.ar  196  PHE196     -0.0003
    172  CE2       23.6740  -27.4060    6.5480 C.ar  196  PHE196     -0.0003
    173  CZ        24.7260  -27.0520    7.3990 C.ar  196  PHE196     -0.0000
    174  N         17.0060  -24.3120   11.3810 N.3   199  LEU199     -0.1245
    175  CA        17.7850  -23.7250   12.5120 C.3   199  LEU199      0.1561
    176  C         17.4380  -22.2380   12.6770 C.2   199  LEU199      0.2260
    177  O         17.4420  -21.7170   13.7690 O.2   199  LEU199     -0.2867
    178  CB        19.3070  -23.9300   12.3460 C.3   199  LEU199      0.0270
    179  CG        20.0150  -25.2970   12.3380 C.3   199  LEU199      0.0019
    180  CD1       21.4970  -25.0970   12.2230 C.3   199  LEU199      0.0001
    181  CD2       19.7330  -26.1520   13.5600 C.3   199  LEU199      0.0001
@<TRIPOS>BOND
     1     1     2    1
     2    74    72   ar
     3    74    75   ar
     4     2     3    1
     5     2     5    1
     6     3     4    2
     7    10     8   ar
     8    10    11   ar
     9     8     6   ar
    10    72    70   ar
    11    75    73   ar
    12    11     9   ar
    13     6     5    1
    14     6     7   ar
    15     9     7   ar
    16    70    69    1
    17    70    71   ar
    18    73    71   ar
    19    63    64   ar
    20    63    61   ar
    21    69    66    1
    22    64    62   ar
    23    61    59   ar
    24    62    60   ar
    25    59    60   ar
    26    59    58    1
    27    66    65    1
    28    66    67    1
    29    65    56   am
    30   146   144    1
    31    28    26    1
    32    68    67    2
    33    58    55    1
    34    67    76   am
    35    55    56    1
    36    55    54    1
    37    56    57    2
    38    26    25    1
    39    76    77    1
    40   145   144    1
    41   144   141    1
    42    45    43    1
    43    77    78    1
    44    50    49    2
    45   141   140    1
    46   141   142    1
    47    54    49   am
    48    43    44    1
    49    43    40    1
    50    44    46    1
    51    25    27    1
    52    25    22    1
    53    49    48    1
    54    24    23    2
    55    21    22    1
    56    37    35   ar
    57    37    38   ar
    58    23    22    1
    59    78    80   am
    60    78    79    2
    61    35    34   ar
    62    15    14    2
    63    80    81    1
    64    42    41    2
    65   142   147   am
    66   142   143    2
    67    85    86    1
    68    85    84    1
    69    19    18    2
    70    40    41    1
    71    40    39    1
    72    87    86   ar
    73    38    36   ar
    74    41    47   am
    75   147   148    1
    76    20    18   am
    77    86    88   ar
    78    34    36   ar
    79    34    33    1
    80    18    17    1
    81    47    48    1
    82    48    51    1
    83    14    13    1
    84    16    17    1
    85    16    13    1
    86    33    30    1
    87    84    81    1
    88   150   149    2
    89    81    82    1
    90    32    31    2
    91    52    51    1
    92    13    12    1
    93   148   151    1
    94   148   149    1
    95   151   152    2
    96    51    53    1
    97   149   156   am
    98    83    82    2
    99    30    31    1
   100    30    29    1
   101   152   153    1
   102   155   153   ar
   103    82    89   am
   104   170   172   ar
   105   170   168   ar
   106   172   173   ar
   107   153   154   ar
   108   156   162    1
   109   156   157    1
   110   167   168    1
   111   167   164    1
   112   168   169   ar
   113   173   171   ar
   114    89    95    1
   115    89    90    1
   116   103   101    1
   117   162   161    1
   118    95    94    1
   119   163   164    1
   120   163   158   am
   121   169   171   ar
   122   165   164    1
   123   165   166    2
   124   157   158    1
   125   157   160    1
   126    92    91    2
   127    90    91    1
   128    90    93    1
   129   101   102    1
   130   101   100    1
   131   158   159    2
   132    91    96   am
   133   161   160    1
   134    96    97    1
   135    94    93    1
   136    97   100    1
   137    97    98    1
   138    98    99    2
   139   174   175    1
   140   112   114   ar
   141   112   110   ar
   142   114   113   ar
   143   180   179    1
   144   110   109   ar
   145   179   178    1
   146   179   181    1
   147   178   175    1
   148   113   111   ar
   149   175   176    1
   150   176   177    2
   151   109   111   ar
   152   109   108    1
   153   108   105    1
   154   105   104    1
   155   105   106    1
   156   131   129   ar
   157   131   132   ar
   158   106   107    2
   159   106   115   am
   160   129   128   ar
   161   132   130   ar
   162   128   130   ar
   163   128   127    1
   164   127   124    1
   165   115   116    1
   166   122   120    1
   167   124   123    1
   168   124   125    1
   169   120   121    1
   170   120   119    1
   171   116   119    1
   172   116   117    1
   173   125   126    2
   174   125   133   am
   175   117   118    2
   176   133   134    1
   177   139   137    1
   178   134   137    1
   179   134   135    1
   180   137   138    1
   181   135   136    2
