@<TRIPOS>MOLECULE
tmp/4fz6A00.pdb
 151 142 0 0 0
SMALL
GASTEIGER

@<TRIPOS>ATOM
      1  N         -1.5460   -4.6050    7.7660 N.3    15  LEU15      -0.1231
      2  CA        -2.0000   -4.0140    9.0270 C.3    15  LEU15       0.1693
      3  C         -2.6640   -2.6650    8.7900 C.2    15  LEU15       0.2592
      4  O         -3.6620   -2.3280    9.4350 O.2    15  LEU15      -0.2718
      5  CB        -0.8430   -3.8470   10.0130 C.3    15  LEU15       0.0284
      6  CG        -0.5300   -4.9730   10.9990 C.3    15  LEU15       0.0019
      7  CD1        0.5970   -4.5260   11.9060 C.3    15  LEU15       0.0001
      8  CD2       -1.7530   -5.3700   11.8290 C.3    15  LEU15       0.0001
      9  N         -2.0940   -1.9030    7.8600 N.am   16  GLY16      -0.1957
     10  CA        -2.5790   -0.5720    7.5240 C.3    16  GLY16       0.1869
     11  C         -1.9540   -0.0550    6.2440 C.2    16  GLY16       0.2309
     12  O         -0.9840   -0.6250    5.7370 O.2    16  GLY16      -0.2863
     13  N          2.5140    7.0800    2.0380 N.3    18  PHE18      -0.1241
     14  CA         3.9040    6.5390    2.0610 C.3    18  PHE18       0.1605
     15  C          3.9600    5.1150    1.5140 C.2    18  PHE18       0.2264
     16  O          4.9060    4.7500    0.8110 O.2    18  PHE18      -0.2867
     17  CB         4.4960    6.5920    3.4820 C.3    18  PHE18       0.0534
     18  CG         3.8120    5.6750    4.4690 C.ar   18  PHE18      -0.0203
     19  CD1        2.6780    6.0940    5.1600 C.ar   18  PHE18      -0.0042
     20  CD2        4.3080    4.3920    4.7100 C.ar   18  PHE18      -0.0042
     21  CE1        2.0400    5.2480    6.0670 C.ar   18  PHE18      -0.0003
     22  CE2        3.6740    3.5390    5.6170 C.ar   18  PHE18      -0.0003
     23  CZ         2.5420    3.9700    6.2950 C.ar   18  PHE18      -0.0000
     24  N          1.9650   -0.8070    6.0380 N.3    21  VAL21      -0.1245
     25  CA         2.5050   -1.3330    7.2800 C.3    21  VAL21       0.1561
     26  C          2.1520   -2.8100    7.3220 C.2    21  VAL21       0.2260
     27  O          0.9970   -3.1800    7.1170 O.2    21  VAL21      -0.2867
     28  CB         1.9050   -0.6250    8.5080 C.3    21  VAL21       0.0252
     29  CG1        2.6340   -1.0430    9.7830 C.3    21  VAL21       0.0019
     30  CG2        1.9660    0.8780    8.3360 C.3    21  VAL21       0.0019
     31  N          6.8890   -4.7500   13.3700 N.3    36  ALA36      -0.1245
     32  CA         6.0330   -3.9750   12.4920 C.3    36  ALA36       0.1562
     33  C          6.9430   -3.3820   11.4260 C.2    36  ALA36       0.2260
     34  O          8.0150   -2.8560   11.7370 O.2    36  ALA36      -0.2867
     35  CB         5.3250   -2.8770   13.2640 C.3    36  ALA36       0.0290
     36  N          7.3250   -0.7900    8.2170 N.3    38  LYS38      -0.1245
     37  CA         6.8880    0.3060    7.3730 C.3    38  LYS38       0.1561
     38  C          7.5120    0.1120    5.9900 C.2    38  LYS38       0.2260
     39  O          8.7360    0.1110    5.8520 O.2    38  LYS38      -0.2867
     40  CB         7.3010    1.6420    8.0030 C.3    38  LYS38       0.0271
     41  CG         6.8530    2.8720    7.2360 C.3    38  LYS38       0.0035
     42  CD         7.2680    4.1610    7.9310 C.3    38  LYS38       0.0206
     43  CE         6.9090    5.3630    7.0710 C.3    38  LYS38       0.1093
     44  NZ         7.2740    6.6610    7.6990 N.3    38  LYS38      -0.1314
     45  N          9.4790    3.4990   20.8090 N.3    64  VAL64      -0.1245
     46  CA         9.5700    2.3370   19.9280 C.3    64  VAL64       0.1561
     47  C         11.0110    2.1280   19.4530 C.2    64  VAL64       0.2260
     48  O         11.6660    3.0660   18.9970 O.2    64  VAL64      -0.2867
     49  CB         8.6410    2.4710   18.6940 C.3    64  VAL64       0.0252
     50  CG1        8.9030    1.3480   17.6840 C.3    64  VAL64       0.0019
     51  CG2        7.1680    2.4890   19.1270 C.3    64  VAL64       0.0019
     52  N         10.5610   -2.3500   12.9370 N.3    79  MET79      -0.1230
     53  CA        10.4600   -1.9390   14.3410 C.3    79  MET79       0.1702
     54  C          9.9140   -3.0470   15.2450 C.2    79  MET79       0.2592
     55  O          9.1210   -3.8730   14.8030 O.2    79  MET79      -0.2718
     56  CB         9.5520   -0.7160   14.4510 C.3    79  MET79       0.0401
     57  CG        10.0980    0.5410   13.7540 C.3    79  MET79       0.0596
     58  SD         8.8170    1.7720   13.4450 S.3    79  MET79      -0.1393
     59  CE         7.8580    0.9880   12.1400 C.3    79  MET79       0.0692
     60  N         10.3470   -3.0470   16.5070 N.am   80  GLU80      -0.1966
     61  CA         9.7540   -3.8930   17.5470 C.3    80  GLU80       0.1733
     62  C          8.2540   -3.6760   17.5470 C.2    80  GLU80       0.2616
     63  O          7.8110   -2.5380   17.6340 O.2    80  GLU80      -0.2715
     64  CB        10.2670   -3.4800   18.9220 C.3    80  GLU80       0.0429
     65  CG        11.6450   -3.9750   19.2750 C.3    80  GLU80       0.1163
     66  CD        11.8440   -4.0780   20.7820 C.2    80  GLU80       0.3649
     67  OE1       10.8520   -3.9260   21.5400 O.co2  80  GLU80      -0.2457
     68  OE2       12.9960   -4.3230   21.2030 O.co2  80  GLU80      -0.2457
     69  N          7.4810   -4.7520   17.4330 N.am   81  MET81      -0.1963
     70  CA         6.0270   -4.6280   17.3540 C.3    81  MET81       0.1736
     71  C          5.4140   -4.1760   18.6870 C.2    81  MET81       0.2616
     72  O          5.8050   -4.6520   19.7520 O.2    81  MET81      -0.2715
     73  CB         5.4030   -5.9420   16.8630 C.3    81  MET81       0.0427
     74  CG         3.8810   -6.0380   17.0000 C.3    81  MET81       0.0599
     75  SD         2.9390   -4.9080   15.9510 S.3    81  MET81      -0.1393
     76  CE         3.0770   -5.7460   14.3800 C.3    81  MET81       0.0692
     77  N          4.4830   -3.2260   18.6060 N.am   82  ALA82      -0.1963
     78  CA         3.6210   -2.8480   19.7190 C.3    82  ALA82       0.1728
     79  C          2.2220   -3.3630   19.3850 C.2    82  ALA82       0.2616
     80  O          1.4820   -2.7360   18.6220 O.2    82  ALA82      -0.2715
     81  CB         3.6290   -1.3320   19.9140 C.3    82  ALA82       0.0334
     82  N          1.8760   -4.5120   19.9590 N.am   83  GLU83      -0.1963
     83  CA         0.7510   -5.3360   19.4870 C.3    83  GLU83       0.1733
     84  C         -0.6270   -4.6720   19.4740 C.2    83  GLU83       0.2616
     85  O         -1.4340   -4.9550   18.5910 O.2    83  GLU83      -0.2715
     86  CB         0.6740   -6.6480   20.2760 C.3    83  GLU83       0.0429
     87  CG         1.8980   -7.5480   20.1380 C.3    83  GLU83       0.1163
     88  CD         1.9140   -8.3780   18.8630 C.2    83  GLU83       0.3649
     89  OE1        2.8820   -9.1400   18.6800 O.co2  83  GLU83      -0.2457
     90  OE2        0.9720   -8.2820   18.0450 O.co2  83  GLU83      -0.2457
     91  N         -0.8910   -3.7990   20.4400 N.am   84  LEU84      -0.1963
     92  CA        -2.2300   -3.2290   20.6100 C.3    84  LEU84       0.1728
     93  C         -2.4860   -2.0000   19.7400 C.2    84  LEU84       0.2617
     94  O         -3.6130   -1.4940   19.6820 O.2    84  LEU84      -0.2715
     95  CB        -2.5160   -2.9370   22.0910 C.3    84  LEU84       0.0311
     96  CG        -3.0260   -4.0980   22.9580 C.3    84  LEU84       0.0022
     97  CD1       -2.1530   -5.3310   22.8520 C.3    84  LEU84       0.0001
     98  CD2       -3.1580   -3.6820   24.4130 C.3    84  LEU84       0.0001
     99  N         -1.4380   -1.5190   19.0780 N.am   85  GLY85      -0.1941
    100  CA        -1.5660   -0.4490   18.0920 C.3    85  GLY85       0.1998
    101  C         -1.7780    0.9560   18.6360 C.2    85  GLY85       0.2480
    102  O         -1.5330    1.2140   19.8170 O.2    85  GLY85      -0.2729
    103  N         -2.2390    1.8760   17.7660 N.am   86  PRO86      -0.2726
    104  CA        -2.3930    3.2980   18.0920 C.3    86  PRO86       0.1402
    105  C         -3.3420    3.5370   19.2600 C.2    86  PRO86       0.2269
    106  O         -4.4090    2.9090   19.3550 O.2    86  PRO86      -0.2865
    107  CB        -2.9700    3.8940   16.8060 C.3    86  PRO86       0.0296
    108  CG        -2.4910    2.9760   15.7270 C.3    86  PRO86       0.0237
    109  CD        -2.5450    1.6090   16.3460 C.3    86  PRO86       0.0939
    110  N         -7.1570    4.7730   18.4500 N.3    89  LYS89      -0.1245
    111  CA        -8.0100    3.6740   17.9970 C.3    89  LYS89       0.1561
    112  C         -8.3380    2.7080   19.1310 C.2    89  LYS89       0.2260
    113  O         -9.4570    2.1970   19.2090 O.2    89  LYS89      -0.2867
    114  CB        -7.3720    2.9260   16.8150 C.3    89  LYS89       0.0271
    115  CG        -6.9940    3.8180   15.6200 C.3    89  LYS89       0.0035
    116  CD        -8.1950    4.5690   15.0380 C.3    89  LYS89       0.0206
    117  CE        -7.7580    5.6000   13.9990 C.3    89  LYS89       0.1093
    118  NZ        -8.9230    6.1690   13.2350 N.3    89  LYS89      -0.1314
    119  N         -2.5140    9.2960   17.9150 N.3   129  ARG129     -0.1245
    120  CA        -2.3620    8.2920   16.8510 C.3   129  ARG129      0.1563
    121  C         -0.9260    7.7500   16.7620 C.2   129  ARG129      0.2260
    122  O         -0.7080    6.6560   16.2530 O.2   129  ARG129     -0.2867
    123  CB        -2.8090    8.8510   15.4850 C.3   129  ARG129      0.0307
    124  CG        -1.8810    9.9330   14.9160 C.3   129  ARG129      0.0489
    125  CD        -2.3970   10.5400   13.6050 C.3   129  ARG129      0.2205
    126  NE        -1.6010   11.7140   13.2380 N.pl3 129  ARG129     -0.0865
    127  CZ        -1.8350   12.9480   13.6900 C.cat 129  ARG129      0.5346
    128  NH1       -2.8510   13.1790   14.5140 N.pl3 129  ARG129      0.1354
    129  NH2       -1.0580   13.9560   13.3210 N.pl3 129  ARG129      0.1354
    130  N          1.8040    4.1770   20.6340 N.3   132  LEU132     -0.1245
    131  CA         1.4570    2.7810   20.3870 C.3   132  LEU132      0.1561
    132  C          1.4470    2.0000   21.6930 C.2   132  LEU132      0.2260
    133  O          2.2550    2.2610   22.5860 O.2   132  LEU132     -0.2867
    134  CB         2.4400    2.1470   19.3970 C.3   132  LEU132      0.0270
    135  CG         2.5630    2.7890   18.0110 C.3   132  LEU132      0.0019
    136  CD1        3.7010    2.1590   17.2290 C.3   132  LEU132      0.0001
    137  CD2        1.2560    2.7050   17.2190 C.3   132  LEU132      0.0001
    138  N          6.0440    6.7110   18.9180 N.3   142  SER142     -0.1202
    139  CA         6.5250    6.3010   17.6110 C.3   142  SER142      0.2020
    140  C          6.4680    7.4500   16.5980 C.2   142  SER142      0.2618
    141  O          6.2020    8.6030   16.9620 O.2   142  SER142     -0.2717
    142  CB         5.6690    5.1550   17.0920 C.3   142  SER142      0.2103
    143  OG         4.3410    5.6230   16.8820 O.3   142  SER142     -0.2182
    144  N          6.6890    7.0990   15.3310 N.am  143  ASP143     -0.1973
    145  CA         6.5790    8.0130   14.1770 C.3   143  ASP143      0.1709
    146  C          7.4980    9.2280   14.2660 C.2   143  ASP143      0.2293
    147  O          7.0570   10.3440   14.5570 O.2   143  ASP143     -0.2864
    148  CB         5.1220    8.4440   13.9200 C.3   143  ASP143      0.1436
    149  CG         4.9400    9.1630   12.5750 C.2   143  ASP143      0.3671
    150  OD1        3.7770    9.4470   12.2160 O.co2 143  ASP143     -0.2456
    151  OD2        5.9430    9.4480   11.8740 O.co2 143  ASP143     -0.2456
@<TRIPOS>BOND
     1    16    15    2
     2    15    14    1
     3    13    14    1
     4    14    17    1
     5    17    18    1
     6    18    20   ar
     7    18    19   ar
     8    20    22   ar
     9    19    21   ar
    10    22    23   ar
    11    12    11    2
    12    39    38    2
    13    38    37    1
    14    24    25    1
    15    21    23   ar
    16    11    10    1
    17    43    44    1
    18    43    42    1
    19    27    26    2
    20    41    42    1
    21    41    40    1
    22    25    26    1
    23    25    28    1
    24    37    40    1
    25    37    36    1
    26    10     9    1
    27     1     2    1
    28     9     3   am
    29    30    28    1
    30    28    29    1
    31     3     2    1
    32     3     4    2
    33     2     5    1
    34     5     6    1
    35     6     8    1
    36     6     7    1
    37    33    34    2
    38    33    32    1
    39   151   149   ar
    40    59    58    1
    41   150   149   ar
    42    32    35    1
    43    32    31    1
    44   149   148    1
    45    52    53    1
    46   118   117    1
    47   126   125    1
    48   126   127    2
    49   129   127    1
    50    58    57    1
    51   125   124    1
    52   127   128    1
    53    57    56    1
    54   148   145    1
    55   117   116    1
    56   145   146    1
    57   145   144    1
    58   146   147    2
    59    53    56    1
    60    53    54    1
    61    76    75    1
    62    55    54    2
    63   124   123    1
    64   116   115    1
    65    54    60   am
    66   144   140   am
    67   123   120    1
    68   115   114    1
    69   108   109    1
    70   108   107    1
    71    75    74    1
    72   122   121    2
    73   109   103    1
    74    60    61    1
    75   140   141    2
    76   140   139    1
    77   121   120    1
    78   107   104    1
    79   114   111    1
    80   120   119    1
    81    73    74    1
    82    73    70    1
    83   143   142    1
    84   142   139    1
    85   137   135    1
    86   136   135    1
    87    70    69    1
    88    70    71    1
    89    69    62   am
    90    62    61    1
    91    62    63    2
    92    61    64    1
    93   139   138    1
    94    50    49    1
    95   103   104    1
    96   103   101   am
    97   111   110    1
    98   111   112    1
    99   135   134    1
   100    90    88   ar
   101   100   101    1
   102   100    99    1
   103   104   105    1
   104    85    84    2
   105    77    71   am
   106    77    78    1
   107    80    79    2
   108   101   102    2
   109    89    88   ar
   110    71    72    2
   111    49    51    1
   112    49    46    1
   113    88    87    1
   114    64    65    1
   115    48    47    2
   116    99    93   am
   117   112   113    2
   118   105   106    2
   119    65    66    1
   120    79    78    1
   121    79    82   am
   122   134   131    1
   123    47    46    1
   124    84    83    1
   125    84    91   am
   126    83    82    1
   127    83    86    1
   128    94    93    2
   129    78    81    1
   130    93    92    1
   131    46    45    1
   132    87    86    1
   133   131   130    1
   134   131   132    1
   135    91    92    1
   136    92    95    1
   137    66    68   ar
   138    66    67   ar
   139   132   133    2
   140    95    96    1
   141    97    96    1
   142    96    98    1
