@<TRIPOS>MOLECULE
tmp/4fz9A01.pdb
 132 127 0 0 0
SMALL
GASTEIGER

@<TRIPOS>ATOM
      1  N        -21.8820  -19.5000   -0.5220 N.3    69  VAL69      -0.1231
      2  CA       -21.4610  -18.1600   -1.0890 C.3    69  VAL69       0.1692
      3  C        -20.0440  -17.7760   -0.6650 C.2    69  VAL69       0.2592
      4  O        -19.7710  -16.5450   -0.5620 O.2    69  VAL69      -0.2718
      5  CB       -22.4720  -17.0100   -0.7820 C.3    69  VAL69       0.0266
      6  CG1      -22.6060  -15.9980   -2.0120 C.3    69  VAL69       0.0020
      7  CG2      -23.9480  -17.6310   -0.4430 C.3    69  VAL69       0.0020
      8  N        -19.1940  -18.7500   -0.4420 N.am   70  TYR70      -0.1962
      9  CA       -17.7860  -18.4700   -0.0030 C.3    70  TYR70       0.1771
     10  C        -16.9670  -18.2610   -1.2600 C.2    70  TYR70       0.2619
     11  O        -17.0340  -19.0300   -2.1860 O.2    70  TYR70      -0.2715
     12  CB       -17.2020  -19.5860    0.8120 C.3    70  TYR70       0.0574
     13  CG       -17.8330  -19.7570    2.2420 C.ar   70  TYR70      -0.0198
     14  CD1      -17.6960  -21.0110    2.9540 C.ar   70  TYR70      -0.0009
     15  CD2      -18.5880  -18.7450    2.8520 C.ar   70  TYR70      -0.0009
     16  CE1      -18.3190  -21.1900    4.2380 C.ar   70  TYR70       0.0417
     17  CE2      -19.1940  -18.9060    4.1380 C.ar   70  TYR70       0.0417
     18  CZ       -19.0460  -20.1070    4.8040 C.ar   70  TYR70       0.1957
     19  OH       -19.6420  -20.2630    6.0810 O.3    70  TYR70      -0.2866
     20  N        -16.1440  -17.1820   -1.2560 N.am   71  ILE71      -0.1963
     21  CA       -15.2860  -17.0120   -2.4220 C.3    71  ILE71       0.1727
     22  C        -14.1130  -17.9860   -2.2250 C.2    71  ILE71       0.2616
     23  O        -13.5280  -18.0320   -1.1140 O.2    71  ILE71      -0.2715
     24  CB       -14.7840  -15.5470   -2.4660 C.3    71  ILE71       0.0290
     25  CG1      -15.9670  -14.6750   -2.9500 C.3    71  ILE71       0.0022
     26  CG2      -13.5300  -15.4650   -3.3690 C.3    71  ILE71       0.0023
     27  CD1      -15.6830  -13.1010   -2.9500 C.3    71  ILE71       0.0001
     28  N        -13.7670  -18.7110   -3.2450 N.am   72  MET72      -0.1977
     29  CA       -12.6820  -19.7180   -3.1650 C.3    72  MET72       0.1605
     30  C        -11.3400  -19.1430   -3.7070 C.2    72  MET72       0.2287
     31  O        -10.2860  -19.5180   -3.2400 O.2    72  MET72      -0.2864
     32  CB       -13.0430  -20.9590   -4.0160 C.3    72  MET72       0.0413
     33  CG       -14.2600  -21.8660   -3.4850 C.3    72  MET72       0.0598
     34  SD       -13.9200  -22.5090   -1.8740 S.3    72  MET72      -0.1393
     35  CE       -14.6090  -21.3360   -0.7320 C.3    72  MET72       0.0692
     36  N         -7.4810  -19.1510   -1.8220 N.3    83  PHE83      -0.1241
     37  CA        -7.2180  -19.1110   -0.3880 C.3    83  PHE83       0.1605
     38  C         -6.4880  -20.3660    0.0910 C.2    83  PHE83       0.2264
     39  O         -6.6230  -21.4390   -0.5000 O.2    83  PHE83      -0.2867
     40  CB        -8.5250  -18.9600    0.3910 C.3    83  PHE83       0.0534
     41  CG        -9.1080  -17.5640    0.2930 C.ar   83  PHE83      -0.0203
     42  CD1       -8.3570  -16.5020    0.7170 C.ar   83  PHE83      -0.0042
     43  CD2      -10.3810  -17.3720   -0.2010 C.ar   83  PHE83      -0.0042
     44  CE1       -8.8690  -15.2050    0.6620 C.ar   83  PHE83      -0.0003
     45  CE2      -10.9480  -16.1020   -0.2850 C.ar   83  PHE83      -0.0003
     46  CZ       -10.1900  -15.0100    0.1420 C.ar   83  PHE83      -0.0000
     47  N         -6.7650  -22.9690    2.1290 N.3    85  GLU85      -0.1245
     48  CA        -7.7820  -23.7560    2.8400 C.3    85  GLU85       0.1567
     49  C         -8.2830  -24.9330    1.9960 C.2    85  GLU85       0.2260
     50  O         -8.2970  -24.8830    0.8060 O.2    85  GLU85      -0.2867
     51  CB        -8.9260  -22.8740    3.3420 C.3    85  GLU85       0.0388
     52  CG        -9.8430  -22.4210    2.2410 C.3    85  GLU85       0.1160
     53  CD       -10.7850  -21.2730    2.5640 C.2    85  GLU85       0.3649
     54  OE1      -10.5740  -20.4590    3.4120 O.co2  85  GLU85      -0.2457
     55  OE2      -11.7670  -21.1550    1.8540 O.co2  85  GLU85      -0.2457
     56  N        -11.1290  -26.3380    1.1010 N.3    87  ALA87      -0.1245
     57  CA       -12.2220  -26.0670    0.1820 C.3    87  ALA87       0.1562
     58  C        -11.7220  -25.3390   -1.0300 C.2    87  ALA87       0.2260
     59  O        -12.2050  -25.5800   -2.0990 O.2    87  ALA87      -0.2867
     60  CB       -13.3320  -25.3060    0.8310 C.3    87  ALA87       0.0290
     61  N         -6.1220  -18.1080    4.7930 N.3   108  SER108     -0.1202
     62  CA        -7.4720  -18.6190    4.4320 C.3   108  SER108      0.2020
     63  C         -8.4390  -17.4560    4.1940 C.2   108  SER108      0.2619
     64  O         -8.0630  -16.2690    4.3310 O.2   108  SER108     -0.2717
     65  CB        -8.0470  -19.4900    5.5660 C.3   108  SER108      0.2103
     66  OG        -8.2900  -18.6650    6.6900 O.3   108  SER108     -0.2182
     67  N         -9.6790  -17.7930    3.8440 N.am  109  GLY109     -0.1942
     68  CA       -10.6700  -16.7780    3.5350 C.3   109  GLY109      0.2014
     69  C        -11.5360  -16.2550    4.6300 C.2   109  GLY109      0.2639
     70  O        -12.4490  -15.4660    4.4170 O.2   109  GLY109     -0.2714
     71  N        -11.2680  -16.6890    5.8530 N.am  110  ASN110     -0.1958
     72  CA       -12.0690  -16.1300    6.9270 C.3   110  ASN110      0.1819
     73  C        -11.7420  -14.7260    7.3880 C.2   110  ASN110      0.2621
     74  O        -10.5820  -14.2740    7.3410 O.2   110  ASN110     -0.2715
     75  CB       -12.1290  -17.0650    8.0510 C.3   110  ASN110      0.1195
     76  CG       -10.8950  -17.1440    8.7760 C.2   110  ASN110      0.2630
     77  OD1      -10.6480  -16.4080    9.7580 O.2   110  ASN110     -0.2716
     78  ND2      -10.1310  -18.1390    8.4070 N.am  110  ASN110     -0.0877
     79  N        -12.7930  -14.0370    7.8170 N.am  111  TYR111     -0.1960
     80  CA       -12.6630  -12.6420    8.1530 C.3   111  TYR111      0.1771
     81  C        -11.4810  -12.3780    9.1260 C.2   111  TYR111      0.2619
     82  O        -10.7780  -11.3720    8.9730 O.2   111  TYR111     -0.2715
     83  CB       -13.9230  -12.2110    8.7850 C.3   111  TYR111      0.0574
     84  CG       -14.9900  -11.8000    7.7380 C.ar  111  TYR111     -0.0198
     85  CD1      -14.6390  -11.1100    6.5590 C.ar  111  TYR111     -0.0009
     86  CD2      -16.3690  -12.0630    7.9680 C.ar  111  TYR111     -0.0009
     87  CE1      -15.6450  -10.6370    5.6890 C.ar  111  TYR111      0.0417
     88  CE2      -17.3600  -11.6520    7.0890 C.ar  111  TYR111      0.0417
     89  CZ       -16.9900  -10.9520    5.9180 C.ar  111  TYR111      0.1957
     90  OH       -17.9250  -10.4990    5.0080 O.3   111  TYR111     -0.2866
     91  N        -11.3530  -13.2470   10.1390 N.am  112  GLU112     -0.1977
     92  CA       -10.3140  -12.9990   11.1390 C.3   112  GLU112      0.1602
     93  C         -8.9030  -13.0840   10.5130 C.2   112  GLU112      0.2287
     94  O         -8.0910  -12.1430   10.7030 O.2   112  GLU112     -0.2864
     95  CB       -10.4240  -13.9750   12.3080 C.3   112  GLU112      0.0415
     96  CG       -11.6120  -13.7330   13.1700 C.3   112  GLU112      0.1163
     97  CD       -12.9910  -14.1150   12.4990 C.2   112  GLU112      0.3649
     98  OE1      -13.1250  -15.1980   11.8220 O.co2 112  GLU112     -0.2457
     99  OE2      -13.9630  -13.3020   12.6230 O.co2 112  GLU112     -0.2457
    100  N        -15.6550   -9.4480   -0.7260 N.3   155  ILE155     -0.1245
    101  CA       -16.5660  -10.3290   -0.0350 C.3   155  ILE155      0.1561
    102  C        -17.8190   -9.6120    0.4410 C.2   155  ILE155      0.2260
    103  O        -18.8970  -10.1140    0.2760 O.2   155  ILE155     -0.2867
    104  CB       -15.8940  -11.0340    1.1370 C.3   155  ILE155      0.0252
    105  CG1      -14.8650  -12.0260    0.6190 C.3   155  ILE155      0.0019
    106  CG2      -16.9220  -11.7410    2.0050 C.3   155  ILE155      0.0019
    107  CD1      -13.8810  -12.4680    1.6590 C.3   155  ILE155      0.0001
    108  N        -20.8340  -11.2190   -1.9100 N.3   159  ALA159     -0.1231
    109  CA       -21.4920  -12.2880   -1.0860 C.3   159  ALA159      0.1694
    110  C        -22.4010  -11.8170    0.0280 C.2   159  ALA159      0.2591
    111  O        -23.5820  -12.2740    0.1410 O.2   159  ALA159     -0.2718
    112  CB       -20.4010  -13.2960   -0.5530 C.3   159  ALA159      0.0304
    113  N        -21.9480  -10.8280    0.8010 N.am  160  GLU160     -0.1979
    114  CA       -22.7390  -10.3720    1.9420 C.3   160  GLU160      0.1602
    115  C        -23.9790   -9.6010    1.5070 C.2   160  GLU160      0.2287
    116  O        -25.0870   -9.7420    2.0950 O.2   160  GLU160     -0.2864
    117  CB       -21.8930   -9.5130    2.9550 C.3   160  GLU160      0.0415
    118  CG       -20.6930  -10.2620    3.4930 C.3   160  GLU160      0.1163
    119  CD       -21.0210  -11.4400    4.4980 C.2   160  GLU160      0.3649
    120  OE1      -22.1830  -11.8620    4.5840 O.co2 160  GLU160     -0.2457
    121  OE2      -20.0480  -11.9080    5.1650 O.co2 160  GLU160     -0.2457
    122  N        -26.4770  -12.0750    0.4130 N.3   163  ARG163     -0.1245
    123  CA       -27.1780  -12.6750    1.5960 C.3   163  ARG163      0.1563
    124  C        -28.1790  -11.8160    2.3500 C.2   163  ARG163      0.2260
    125  O        -29.1400  -12.3560    2.9490 O.2   163  ARG163     -0.2867
    126  CB       -26.1140  -13.1470    2.6400 C.3   163  ARG163      0.0307
    127  CG       -25.2520  -14.2940    2.1380 C.3   163  ARG163      0.0489
    128  CD       -24.0050  -14.3970    3.0540 C.3   163  ARG163      0.2205
    129  NE       -23.1400  -15.5230    2.6660 N.pl3 163  ARG163     -0.0865
    130  CZ       -21.8380  -15.5490    2.9960 C.cat 163  ARG163      0.5346
    131  NH1      -21.3170  -14.4810    3.5830 N.pl3 163  ARG163      0.1354
    132  NH2      -21.0540  -16.5580    2.6950 N.pl3 163  ARG163      0.1354
@<TRIPOS>BOND
     1    32    33    1
     2    32    29    1
     3    30    31    2
     4    30    29    1
     5    33    34    1
     6    26    24    1
     7    28    29    1
     8    28    22   am
     9    27    25    1
    10    25    24    1
    11    24    21    1
    12    21    22    1
    13    21    20    1
    14    22    23    2
    15    11    10    2
    16    59    58    2
    17     6     5    1
    18   108   109    1
    19    34    35    1
    20    36    37    1
    21    10    20   am
    22    10     9    1
    23     2     5    1
    24     2     3    1
    25     2     1    1
    26   109   112    1
    27   109   110    1
    28    58    57    1
    29     5     7    1
    30   100   101    1
    31     3     4    2
    32     3     8   am
    33    39    38    2
    34     8     9    1
    35    37    38    1
    36    37    40    1
    37    45    43   ar
    38    45    46   ar
    39    43    41   ar
    40   101   102    1
    41   101   104    1
    42     9    12    1
    43   110   111    2
    44   110   113   am
    45    46    44   ar
    46    57    60    1
    47    57    56    1
    48   103   102    2
    49    41    40    1
    50    41    42   ar
    51   122   123    1
    52   105   104    1
    53   105   107    1
    54    44    42   ar
    55   113   114    1
    56    50    49    2
    57    12    13    1
    58   104   106    1
    59   115   114    1
    60   115   116    2
    61   123   124    1
    62   123   126    1
    63    55    53   ar
    64   114   117    1
    65    49    48    1
    66    47    48    1
    67   127   126    1
    68   127   128    1
    69    52    53    1
    70    52    51    1
    71    13    15   ar
    72    13    14   ar
    73   124   125    2
    74    53    54   ar
    75   129   130    2
    76   129   128    1
    77   132   130    1
    78    48    51    1
    79    15    17   ar
    80    14    16   ar
    81   117   118    1
    82   130   131    1
    83   118   119    1
    84    68    67    1
    85    68    69    1
    86    67    63   am
    87    17    18   ar
    88    63    64    2
    89    63    62    1
    90    16    18   ar
    91    70    69    2
    92    62    61    1
    93    62    65    1
    94   119   120   ar
    95   119   121   ar
    96    69    71   am
    97    18    19    1
    98    90    89    1
    99    65    66    1
   100    87    89   ar
   101    87    85   ar
   102    71    72    1
   103    89    88   ar
   104    85    84   ar
   105    72    73    1
   106    72    75    1
   107    88    86   ar
   108    74    73    2
   109    73    79   am
   110    84    86   ar
   111    84    83    1
   112    79    80    1
   113    75    76    1
   114    80    83    1
   115    80    81    1
   116    78    76   am
   117    76    77    2
   118    82    81    2
   119    81    91   am
   120    91    92    1
   121    93    94    2
   122    93    92    1
   123    92    95    1
   124    98    97   ar
   125    95    96    1
   126    97    99   ar
   127    97    96    1
