@<TRIPOS>MOLECULE
tmp/4fzbC03.pdb
 94 93 0 0 0
SMALL
GASTEIGER

@<TRIPOS>ATOM
      1  N         19.8140   -6.3910  -13.1170 N.3    34  SER34      -0.1202
      2  CA        19.8550   -5.0670  -12.4930 C.3    34  SER34       0.2020
      3  C         21.2340   -4.7320  -11.9160 C.2    34  SER34       0.2618
      4  O         21.6650   -3.5780  -11.9930 O.2    34  SER34      -0.2717
      5  CB        18.7560   -4.9230  -11.4420 C.3    34  SER34       0.2103
      6  OG        19.1720   -5.2860  -10.1360 O.3    34  SER34      -0.2182
      7  N         21.9350   -5.7520  -11.3770 N.am   35  ASN35      -0.1974
      8  CA        23.2750   -5.6220  -10.7990 C.3    35  ASN35       0.1688
      9  C         24.2530   -6.4950  -11.6360 C.2    35  ASN35       0.2292
     10  O         24.6760   -7.5440  -11.1430 O.2    35  ASN35      -0.2864
     11  CB        23.2620   -6.0460   -9.3080 C.3    35  ASN35       0.1181
     12  CG        22.0880   -5.5380   -8.4940 C.2    35  ASN35       0.2629
     13  OD1       22.1190   -4.4520   -7.9080 O.2    35  ASN35      -0.2716
     14  ND2       21.0380   -6.3410   -8.3950 N.am   35  ASN35      -0.0877
     15  N         20.4380   -8.1000    2.6550 N.3    55  HIS55      -0.1226
     16  CA        20.7770   -6.7100    2.3570 C.3    55  HIS55       0.1752
     17  C         19.5930   -5.7680    2.1930 C.2    55  HIS55       0.2596
     18  O         19.7760   -4.5430    2.2050 O.2    55  HIS55      -0.2718
     19  CB        21.7540   -6.6360    1.1950 C.3    55  HIS55       0.0759
     20  CG        23.1340   -7.0390    1.5980 C.ar   55  HIS55       0.0818
     21  ND1       23.4860   -8.3670    1.7270 N.ar   55  HIS55      -0.2268
     22  CD2       24.1930   -6.2660    1.9360 C.ar   55  HIS55       0.1154
     23  CE1       24.7350   -8.3650    2.1590 C.ar   55  HIS55       0.1986
     24  NE2       25.2140   -7.1260    2.2680 N.ar   55  HIS55      -0.2212
     25  N         18.3720   -6.3430    2.1170 N.am   56  LYS56      -0.1966
     26  CA        17.0820   -5.6460    1.9830 C.3    56  LYS56       0.1728
     27  C         16.7870   -5.1390    0.5550 C.2    56  LYS56       0.2616
     28  O         16.0970   -4.1230    0.3840 O.2    56  LYS56      -0.2715
     29  CB        16.8680   -4.5400    3.0570 C.3    56  LYS56       0.0311
     30  CG        17.2500   -4.9020    4.4830 C.3    56  LYS56       0.0038
     31  CD        16.2730   -5.8530    5.1540 C.3    56  LYS56       0.0206
     32  CE        16.6490   -6.0520    6.6000 C.3    56  LYS56       0.1093
     33  NZ        16.5210   -4.7890    7.3840 N.3    56  LYS56      -0.1314
     34  N         17.3120   -5.8530   -0.4700 N.am   57  HIS57      -0.1959
     35  CA        17.0300   -5.5440   -1.8860 C.3    57  HIS57       0.1787
     36  C         15.7350   -6.3160   -2.2030 C.2    57  HIS57       0.2620
     37  O         15.7450   -7.3400   -2.8730 O.2    57  HIS57      -0.2715
     38  CB        18.2160   -5.9190   -2.8120 C.3    57  HIS57       0.0785
     39  CG        17.9890   -5.6370   -4.2760 C.ar   57  HIS57       0.0821
     40  ND1       18.8820   -6.0880   -5.2460 N.ar   57  HIS57      -0.2267
     41  CD2       16.9800   -4.9750   -4.8990 C.ar   57  HIS57       0.1154
     42  CE1       18.3930   -5.6840   -6.4070 C.ar   57  HIS57       0.1986
     43  NE2       17.2420   -5.0240   -6.2520 N.ar   57  HIS57      -0.2212
     44  N         14.6260   -5.8230   -1.6210 N.am   58  TRP58      -0.1960
     45  CA        13.2730   -6.3850   -1.6430 C.3    58  TRP58       0.1771
     46  C         12.5800   -6.3980   -2.9590 C.2    58  TRP58       0.2620
     47  O         11.8810   -7.3580   -3.2590 O.2    58  TRP58      -0.2715
     48  CB        12.4050   -5.6960   -0.6010 C.3    58  TRP58       0.0590
     49  CG        12.8110   -5.9770    0.8170 C.ar   58  TRP58       0.0006
     50  CD1       13.0280   -5.0590    1.7950 C.ar   58  TRP58       0.0946
     51  CD2       12.9910   -7.2650    1.4250 C.ar   58  TRP58       0.0152
     52  NE1       13.2870   -5.6890    2.9860 N.ar   58  TRP58      -0.2442
     53  CE2       13.3160   -7.0450    2.7770 C.ar   58  TRP58       0.0810
     54  CE3       12.9270   -8.5920    0.9510 C.ar   58  TRP58       0.0012
     55  CZ2       13.6150   -8.0940    3.6590 C.ar   58  TRP58       0.0191
     56  CZ3       13.1970   -9.6350    1.8300 C.ar   58  TRP58       0.0001
     57  CH2       13.5460   -9.3800    3.1650 C.ar   58  TRP58       0.0015
     58  N         12.7850   -5.3620   -3.7580 N.am   59  SER59      -0.1950
     59  CA        12.1290   -5.2150   -5.0520 C.3    59  SER59       0.1924
     60  C         12.2230   -6.3950   -6.0160 C.2    59  SER59       0.2314
     61  O         11.2560   -6.6400   -6.7260 O.2    59  SER59      -0.2863
     62  CB        12.4420   -3.8700   -5.6940 C.3    59  SER59       0.2116
     63  OG        13.8360   -3.6310   -5.7580 O.3    59  SER59      -0.2180
     64  N          9.4830   -8.6580   -5.4440 N.3    62  GLU62      -0.1245
     65  CA         8.1980   -8.0130   -5.7400 C.3    62  GLU62       0.1567
     66  C          7.8810   -8.0420   -7.2400 C.2    62  GLU62       0.2260
     67  O          6.8360   -7.5360   -7.6560 O.2    62  GLU62      -0.2867
     68  CB         8.1050   -6.6050   -5.1630 C.3    62  GLU62       0.0388
     69  CG         8.1950   -6.5180   -3.6480 C.3    62  GLU62       0.1160
     70  CD         8.6010   -5.1410   -3.1560 C.2    62  GLU62       0.3649
     71  OE1        8.2050   -4.1310   -3.7820 O.co2  62  GLU62      -0.2457
     72  OE2        9.3610   -5.0730   -2.1660 O.co2  62  GLU62      -0.2457
     73  N         -2.2580   -5.8710    5.4640 N.3    84  ARG84      -0.1245
     74  CA        -2.5650   -4.8720    4.4440 C.3    84  ARG84       0.1563
     75  C         -1.8290   -4.9500    3.1100 C.2    84  ARG84       0.2260
     76  O         -2.4060   -4.5670    2.0980 O.2    84  ARG84      -0.2867
     77  CB        -2.7010   -3.4430    4.9930 C.3    84  ARG84       0.0307
     78  CG        -1.6780   -3.0040    6.0300 C.3    84  ARG84       0.0489
     79  CD        -1.9930   -1.6320    6.6390 C.3    84  ARG84       0.2205
     80  NE        -2.4090   -0.6430    5.6390 N.pl3  84  ARG84      -0.0865
     81  CZ        -1.5860    0.0500    4.8480 C.cat  84  ARG84       0.5346
     82  NH1       -2.0740    0.9350    3.9890 N.pl3  84  ARG84       0.1354
     83  NH2       -0.2700   -0.1380    4.9120 N.pl3  84  ARG84       0.1354
     84  N          7.8400  -11.1600   -1.6180 N.3   163  ARG163     -0.1245
     85  CA         8.3500  -10.4620   -0.4150 C.3   163  ARG163      0.1563
     86  C          7.3220  -10.5250    0.7460 C.2   163  ARG163      0.2260
     87  O          7.6500  -10.9540    1.8480 O.2   163  ARG163     -0.2867
     88  CB         8.6740   -9.0000   -0.7390 C.3   163  ARG163      0.0307
     89  CG         8.9930   -8.1800    0.4960 C.3   163  ARG163      0.0489
     90  CD         8.6840   -6.7230    0.3260 C.3   163  ARG163      0.2205
     91  NE         8.8520   -5.9960    1.5850 N.pl3 163  ARG163     -0.0865
     92  CZ         9.4320   -4.8010    1.6920 C.cat 163  ARG163      0.5346
     93  NH1        9.5440   -4.2160    2.8770 N.pl3 163  ARG163      0.1354
     94  NH2        9.9010   -4.1780    0.6120 N.pl3 163  ARG163      0.1354
@<TRIPOS>BOND
     1     1     2    1
     2     2     3    1
     3     2     5    1
     4     4     3    2
     5     3     7   am
     6     9    10    2
     7     9     8    1
     8     5     6    1
     9     7     8    1
    10     8    11    1
    11    11    12    1
    12    12    14   am
    13    12    13    2
    14    67    66    2
    15    66    65    1
    16    61    60    2
    17    42    43   ar
    18    42    40   ar
    19    43    41   ar
    20    60    59    1
    21    63    62    1
    22    65    64    1
    23    65    68    1
    24    62    59    1
    25    40    39   ar
    26    68    69    1
    27    59    58    1
    28    41    39   ar
    29    39    38    1
    30    71    70   ar
    31    58    46   am
    32    69    70    1
    33    47    46    2
    34    70    72   ar
    35    46    45    1
    36    37    36    2
    37    38    35    1
    38    36    35    1
    39    36    44   am
    40    35    34    1
    41    45    44    1
    42    45    48    1
    43    84    85    1
    44    88    85    1
    45    88    89    1
    46    48    49    1
    47    34    27   am
    48    85    86    1
    49    90    89    1
    50    90    91    1
    51    28    27    2
    52    27    26    1
    53    94    92    1
    54    86    87    2
    55    49    51   ar
    56    49    50   ar
    57    54    51   ar
    58    54    56   ar
    59    19    20    1
    60    19    16    1
    61    51    53   ar
    62    91    92    2
    63    20    21   ar
    64    20    22   ar
    65    92    93    1
    66    21    23   ar
    67    50    52   ar
    68    56    57   ar
    69    22    24   ar
    70    26    25    1
    71    26    29    1
    72    76    75    2
    73    25    17   am
    74    23    24   ar
    75    17    18    2
    76    17    16    1
    77    16    15    1
    78    53    52   ar
    79    53    55   ar
    80    29    30    1
    81    75    74    1
    82    57    55   ar
    83    82    81    1
    84    74    77    1
    85    74    73    1
    86    30    31    1
    87    81    83    1
    88    81    80    2
    89    77    78    1
    90    31    32    1
    91    80    79    1
    92    78    79    1
    93    32    33    1
