@<TRIPOS>MOLECULE
tmp/4fzbC04.pdb
 139 138 0 0 0
SMALL
GASTEIGER

@<TRIPOS>ATOM
      1  N         18.3720   -6.3430    2.1170 N.3    56  LYS56      -0.1245
      2  CA        17.0820   -5.6460    1.9830 C.3    56  LYS56       0.1561
      3  C         16.7870   -5.1390    0.5550 C.2    56  LYS56       0.2260
      4  O         16.0970   -4.1230    0.3840 O.2    56  LYS56      -0.2867
      5  CB        16.8680   -4.5400    3.0570 C.3    56  LYS56       0.0271
      6  CG        17.2500   -4.9020    4.4830 C.3    56  LYS56       0.0035
      7  CD        16.2730   -5.8530    5.1540 C.3    56  LYS56       0.0206
      8  CE        16.6490   -6.0520    6.6000 C.3    56  LYS56       0.1093
      9  NZ        16.5210   -4.7890    7.3840 N.3    56  LYS56      -0.1314
     10  N         14.6260   -5.8230   -1.6210 N.3    58  TRP58      -0.1241
     11  CA        13.2730   -6.3850   -1.6430 C.3    58  TRP58       0.1605
     12  C         12.5800   -6.3980   -2.9590 C.2    58  TRP58       0.2264
     13  O         11.8810   -7.3580   -3.2590 O.2    58  TRP58      -0.2867
     14  CB        12.4050   -5.6960   -0.6010 C.3    58  TRP58       0.0550
     15  CG        12.8110   -5.9770    0.8170 C.ar   58  TRP58       0.0003
     16  CD1       13.0280   -5.0590    1.7950 C.ar   58  TRP58       0.0946
     17  CD2       12.9910   -7.2650    1.4250 C.ar   58  TRP58       0.0152
     18  NE1       13.2870   -5.6890    2.9860 N.ar   58  TRP58      -0.2442
     19  CE2       13.3160   -7.0450    2.7770 C.ar   58  TRP58       0.0810
     20  CE3       12.9270   -8.5920    0.9510 C.ar   58  TRP58       0.0012
     21  CZ2       13.6150   -8.0940    3.6590 C.ar   58  TRP58       0.0191
     22  CZ3       13.1970   -9.6350    1.8300 C.ar   58  TRP58       0.0001
     23  CH2       13.5460   -9.3800    3.1650 C.ar   58  TRP58       0.0015
     24  N         -5.8060   -8.2470    8.2890 N.3    82  ARG82      -0.1231
     25  CA        -4.9500   -7.1630    8.7910 C.3    82  ARG82       0.1694
     26  C         -3.5990   -7.0710    8.0720 C.2    82  ARG82       0.2592
     27  O         -2.8720   -6.0920    8.2510 O.2    82  ARG82      -0.2718
     28  CB        -4.8020   -7.2420   10.3220 C.3    82  ARG82       0.0321
     29  CG        -6.1430   -7.1830   11.0900 C.3    82  ARG82       0.0489
     30  CD        -6.7800   -5.7800   11.1220 C.3    82  ARG82       0.2205
     31  NE        -5.7780   -4.8120   11.5650 N.pl3  82  ARG82      -0.0865
     32  CZ        -5.4730   -4.5620   12.8320 C.cat  82  ARG82       0.5346
     33  NH1       -6.1820   -5.1020   13.8140 N.pl3  82  ARG82       0.1354
     34  NH2       -4.4790   -3.7450   13.1260 N.pl3  82  ARG82       0.1354
     35  N         -3.2780   -8.0640    7.2190 N.am   83  HIS83      -0.1962
     36  CA        -2.0390   -8.0390    6.4670 C.3    83  HIS83       0.1787
     37  C         -2.2810   -7.2130    5.2550 C.2    83  HIS83       0.2620
     38  O         -2.5310   -7.7470    4.1700 O.2    83  HIS83      -0.2715
     39  CB        -1.5800   -9.4460    6.1330 C.3    83  HIS83       0.0785
     40  CG        -1.0470  -10.1420    7.3350 C.ar   83  HIS83       0.0821
     41  ND1        0.2440   -9.9240    7.7790 N.ar   83  HIS83      -0.2267
     42  CD2       -1.6640  -10.9960    8.1780 C.ar   83  HIS83       0.1154
     43  CE1        0.3730  -10.6620    8.8650 C.ar   83  HIS83       0.1986
     44  NE2       -0.7440  -11.3360    9.1320 N.ar   83  HIS83      -0.2212
     45  N         -2.2580   -5.8710    5.4640 N.am   84  ARG84      -0.1963
     46  CA        -2.5650   -4.8720    4.4440 C.3    84  ARG84       0.1729
     47  C         -1.8290   -4.9500    3.1100 C.2    84  ARG84       0.2617
     48  O         -2.4060   -4.5670    2.0980 O.2    84  ARG84      -0.2715
     49  CB        -2.7010   -3.4430    4.9930 C.3    84  ARG84       0.0348
     50  CG        -1.6780   -3.0040    6.0300 C.3    84  ARG84       0.0492
     51  CD        -1.9930   -1.6320    6.6390 C.3    84  ARG84       0.2205
     52  NE        -2.4090   -0.6430    5.6390 N.pl3  84  ARG84      -0.0865
     53  CZ        -1.5860    0.0500    4.8480 C.cat  84  ARG84       0.5346
     54  NH1       -2.0740    0.9350    3.9890 N.pl3  84  ARG84       0.1354
     55  NH2       -0.2700   -0.1380    4.9120 N.pl3  84  ARG84       0.1354
     56  N         -0.6060   -5.4880    3.0650 N.am   85  SER85      -0.1936
     57  CA         0.0640   -5.6140    1.7610 C.3    85  SER85       0.2055
     58  C         -0.7150   -6.5470    0.8010 C.2    85  SER85       0.2643
     59  O         -0.7920   -6.2480   -0.3880 O.2    85  SER85      -0.2714
     60  CB         1.5230   -6.0360    1.9050 C.3    85  SER85       0.2130
     61  OG         1.6180   -7.3090    2.5200 O.3    85  SER85      -0.2179
     62  N         -1.3740   -7.5990    1.3300 N.am   86  PHE86      -0.1973
     63  CA        -2.1620   -8.5450    0.5450 C.3    86  PHE86       0.1639
     64  C         -3.4890   -8.0010    0.0960 C.2    86  PHE86       0.2290
     65  O         -4.0420   -7.1020    0.7060 O.2    86  PHE86      -0.2864
     66  CB        -2.3910   -9.8400    1.3230 C.3    86  PHE86       0.0560
     67  CG        -1.1250  -10.5580    1.7050 C.ar   86  PHE86      -0.0200
     68  CD1       -0.4450  -10.2330    2.8700 C.ar   86  PHE86      -0.0042
     69  CD2       -0.5990  -11.5430    0.8880 C.ar   86  PHE86      -0.0042
     70  CE1        0.7590  -10.8660    3.2000 C.ar   86  PHE86      -0.0003
     71  CE2        0.6040  -12.1790    1.2160 C.ar   86  PHE86      -0.0003
     72  CZ         1.2710  -11.8390    2.3730 C.ar   86  PHE86      -0.0000
     73  N          7.8400  -11.1600   -1.6180 N.3   163  ARG163     -0.1231
     74  CA         8.3500  -10.4620   -0.4150 C.3   163  ARG163      0.1694
     75  C          7.3220  -10.5250    0.7460 C.2   163  ARG163      0.2592
     76  O          7.6500  -10.9540    1.8480 O.2   163  ARG163     -0.2718
     77  CB         8.6740   -9.0000   -0.7390 C.3   163  ARG163      0.0321
     78  CG         8.9930   -8.1800    0.4960 C.3   163  ARG163      0.0489
     79  CD         8.6840   -6.7230    0.3260 C.3   163  ARG163      0.2205
     80  NE         8.8520   -5.9960    1.5850 N.pl3 163  ARG163     -0.0865
     81  CZ         9.4320   -4.8010    1.6920 C.cat 163  ARG163      0.5346
     82  NH1        9.5440   -4.2160    2.8770 N.pl3 163  ARG163      0.1354
     83  NH2        9.9010   -4.1780    0.6120 N.pl3 163  ARG163      0.1354
     84  N          6.0700  -10.1100    0.4620 N.am  164  ASP164     -0.1974
     85  CA         4.9510  -10.1130    1.3950 C.3   164  ASP164      0.1709
     86  C          4.7290  -11.5130    1.9470 C.2   164  ASP164      0.2293
     87  O          4.6020  -11.6420    3.1740 O.2   164  ASP164     -0.2864
     88  CB         3.6560   -9.5840    0.7290 C.3   164  ASP164      0.1436
     89  CG         3.7280   -8.2140    0.0810 C.2   164  ASP164      0.3671
     90  OD1        2.9860   -7.9880   -0.9120 O.co2 164  ASP164     -0.2456
     91  OD2        4.4920   -7.3480    0.5900 O.co2 164  ASP164     -0.2456
     92  N          7.4510  -12.5500    4.6560 N.3   167  HIS167     -0.1226
     93  CA         7.1670  -11.9670    5.9710 C.3   167  HIS167      0.1752
     94  C          5.8650  -12.4460    6.6620 C.2   167  HIS167      0.2596
     95  O          5.8320  -12.5470    7.8920 O.2   167  HIS167     -0.2718
     96  CB         7.3520  -10.4380    5.9710 C.3   167  HIS167      0.0759
     97  CG         8.6800  -10.0130    5.4170 C.ar  167  HIS167      0.0818
     98  ND1        8.7940   -9.4480    4.1550 N.ar  167  HIS167     -0.2268
     99  CD2        9.9200  -10.1330    5.9470 C.ar  167  HIS167      0.1154
    100  CE1       10.0850   -9.2100    3.9820 C.ar  167  HIS167      0.1986
    101  NE2       10.8020   -9.6070    5.0300 N.ar  167  HIS167     -0.2212
    102  N          4.8200  -12.7780    5.8960 N.am  168  TYR168     -0.1976
    103  CA         3.5930  -13.2720    6.5200 C.3   168  TYR168      0.1639
    104  C          3.8550  -14.6770    7.1720 C.2   168  TYR168      0.2290
    105  O          3.4330  -14.9570    8.3000 O.2   168  TYR168     -0.2864
    106  CB         2.4490  -13.3270    5.4690 C.3   168  TYR168      0.0560
    107  CG         1.2590  -14.1260    5.9540 C.ar  168  TYR168     -0.0198
    108  CD1        0.3690  -13.5930    6.8840 C.ar  168  TYR168     -0.0009
    109  CD2        1.0800  -15.4530    5.5670 C.ar  168  TYR168     -0.0009
    110  CE1       -0.6900  -14.3490    7.3880 C.ar  168  TYR168      0.0417
    111  CE2        0.0250  -16.2140    6.0650 C.ar  168  TYR168      0.0417
    112  CZ        -0.8440  -15.6640    6.9880 C.ar  168  TYR168      0.1957
    113  OH        -1.8680  -16.4120    7.4880 O.3   168  TYR168     -0.2866
    114  N          6.2870  -14.5310   10.1990 N.3   171  LEU171     -0.1231
    115  CA         5.5480  -14.1190   11.3750 C.3   171  LEU171      0.1693
    116  C          4.5630  -15.1550   11.8690 C.2   171  LEU171      0.2591
    117  O          4.6550  -15.5880   13.0210 O.2   171  LEU171     -0.2718
    118  CB         4.8270  -12.7990   11.1420 C.3   171  LEU171      0.0284
    119  CG         4.2030  -12.1730   12.3870 C.3   171  LEU171      0.0019
    120  CD1        5.1440  -11.1530   13.0050 C.3   171  LEU171      0.0001
    121  CD2        2.8740  -11.5240   12.0530 C.3   171  LEU171      0.0001
    122  N          3.6190  -15.5520   11.0260 N.am  172  ARG172     -0.1980
    123  CA         2.5930  -16.4660   11.4830 C.3   172  ARG172      0.1597
    124  C          2.9890  -17.9220   11.8040 C.2   172  ARG172      0.2287
    125  O          2.1340  -18.6860   12.2320 O.2   172  ARG172     -0.2864
    126  CB         1.3150  -16.2920   10.6800 C.3   172  ARG172      0.0334
    127  CG         0.9050  -14.8230   10.5950 C.3   172  ARG172      0.0492
    128  CD         0.3070  -14.2560   11.8750 C.3   172  ARG172      0.2205
    129  NE        -0.5600  -13.1230   11.5440 N.pl3 172  ARG172     -0.0865
    130  CZ        -1.1300  -12.3050   12.4230 C.cat 172  ARG172      0.5346
    131  NH1       -0.9300  -12.4720   13.7250 N.pl3 172  ARG172      0.1354
    132  NH2       -1.9080  -11.3170   12.0100 N.pl3 172  ARG172      0.1354
    133  N          2.0660  -17.4750   18.2710 N.3   177  THR177     -0.1218
    134  CA         0.9040  -17.1070   17.4730 C.3   177  THR177      0.1862
    135  C         -0.1920  -18.1580   17.6400 C.2   177  THR177      0.2287
    136  O          0.1230  -19.3290   17.8620 O.2   177  THR177     -0.2866
    137  CB         1.3100  -16.8170   16.0010 C.3   177  THR177      0.1770
    138  OG1        2.3960  -17.6600   15.6400 O.3   177  THR177     -0.2211
    139  CG2        1.7510  -15.3570   15.7770 C.3   177  THR177      0.0375
@<TRIPOS>BOND
     1    13    12    2
     2    12    11    1
     3    11    10    1
     4    11    14    1
     5    73    74    1
     6    90    89   ar
     7    77    74    1
     8    77    78    1
     9    14    15    1
    10    74    75    1
    11    59    58    2
    12    89    91   ar
    13    89    88    1
    14    64    63    1
    15    64    65    2
    16    79    78    1
    17    79    80    1
    18     4     3    2
    19    84    75   am
    20    84    85    1
    21    63    66    1
    22    63    62    1
    23     3     2    1
    24    83    81    1
    25    88    85    1
    26    75    76    2
    27    58    62   am
    28    58    57    1
    29    15    17   ar
    30    15    16   ar
    31    69    71   ar
    32    69    67   ar
    33    20    17   ar
    34    20    22   ar
    35    71    72   ar
    36    66    67    1
    37    85    86    1
    38    17    19   ar
    39    80    81    2
    40    81    82    1
    41    67    68   ar
    42    57    60    1
    43    57    56    1
    44    16    18   ar
    45    22    23   ar
    46    60    61    1
    47    86    87    2
    48     2     1    1
    49     2     5    1
    50    48    47    2
    51    72    70   ar
    52    19    18   ar
    53    19    21   ar
    54    68    70   ar
    55     5     6    1
    56    56    47   am
    57    47    46    1
    58    23    21   ar
    59   100    98   ar
    60   100   101   ar
    61    54    53    1
    62    98    97   ar
    63    38    37    2
    64    46    49    1
    65    46    45    1
    66     6     7    1
    67    92    93    1
    68    53    55    1
    69    53    52    2
    70    49    50    1
    71   101    99   ar
    72     7     8    1
    73    37    45   am
    74    37    36    1
    75    97    99   ar
    76    97    96    1
    77   106   107    1
    78   106   103    1
    79   109   107   ar
    80   109   111   ar
    81    52    51    1
    82   102   103    1
    83   102    94   am
    84   107   108   ar
    85    96    93    1
    86    93    94    1
    87    50    51    1
    88   111   112   ar
    89    39    36    1
    90    39    40    1
    91    36    35    1
    92   103   104    1
    93     8     9    1
    94    94    95    2
    95   108   110   ar
    96   112   110   ar
    97   112   113    1
    98   104   105    2
    99    35    26   am
   100    40    41   ar
   101    40    42   ar
   102    41    43   ar
   103    26    27    2
   104    26    25    1
   105    42    44   ar
   106    24    25    1
   107    25    28    1
   108    43    44   ar
   109   114   115    1
   110    28    29    1
   111   127   126    1
   112   127   128    1
   113   126   123    1
   114   122   123    1
   115   122   116   am
   116    29    30    1
   117    30    31    1
   118   118   115    1
   119   118   119    1
   120   115   116    1
   121   123   124    1
   122   129   128    1
   123   129   130    2
   124    31    32    2
   125   124   125    2
   126   116   117    2
   127   132   130    1
   128   121   119    1
   129   119   120    1
   130   130   131    1
   131    32    34    1
   132    32    33    1
   133   138   137    1
   134   139   137    1
   135   137   134    1
   136   134   135    1
   137   134   133    1
   138   135   136    2
