@<TRIPOS>MOLECULE
tmp/4fzcW00.pdb
 82 80 0 0 0
SMALL
GASTEIGER

@<TRIPOS>ATOM
      1  N         17.0420 -173.1360   29.4560 N.3    98  ARG98      -0.1231
      2  CA        16.9470 -172.0680   30.4500 C.3    98  ARG98       0.1694
      3  C         18.1010 -171.0700   30.4510 C.2    98  ARG98       0.2592
      4  O         17.8850 -169.8750   30.6400 O.2    98  ARG98      -0.2718
      5  CB        16.7920 -172.6560   31.8590 C.3    98  ARG98       0.0321
      6  CG        16.8080 -171.6180   32.9870 C.3    98  ARG98       0.0489
      7  CD        15.7140 -170.5810   32.7980 C.3    98  ARG98       0.2205
      8  NE        15.5540 -169.6930   33.9440 N.pl3  98  ARG98      -0.0865
      9  CZ        16.3900 -168.7110   34.2660 C.cat  98  ARG98       0.5346
     10  NH1       16.1490 -167.9620   35.3340 N.pl3  98  ARG98       0.1354
     11  NH2       17.4590 -168.4680   33.5200 N.pl3  98  ARG98       0.1354
     12  N         19.3230 -171.5410   30.2340 N.am   99  PHE99      -0.1962
     13  CA        20.4610 -170.6270   30.2540 C.3    99  PHE99       0.1771
     14  C         21.0070 -170.2240   28.8890 C.2    99  PHE99       0.2620
     15  O         22.0930 -169.6570   28.7840 O.2    99  PHE99      -0.2715
     16  CB        21.5610 -171.2100   31.1460 C.3    99  PHE99       0.0574
     17  CG        21.1410 -171.3570   32.5850 C.ar   99  PHE99      -0.0200
     18  CD1       21.1480 -172.6020   33.2060 C.ar   99  PHE99      -0.0042
     19  CD2       20.6770 -170.2520   33.3040 C.ar   99  PHE99      -0.0042
     20  CE1       20.6890 -172.7480   34.5300 C.ar   99  PHE99      -0.0003
     21  CE2       20.2180 -170.3810   34.6220 C.ar   99  PHE99      -0.0003
     22  CZ        20.2230 -171.6330   35.2370 C.ar   99  PHE99      -0.0000
     23  N         20.2290 -170.5100   27.8520 N.am  100  GLY100     -0.1940
     24  CA        20.5910 -170.1660   26.4830 C.3   100  GLY100      0.1998
     25  C         19.2840 -170.2850   25.7310 C.2   100  GLY100      0.2480
     26  O         19.1680 -171.0560   24.7780 O.2   100  GLY100     -0.2729
     27  N         18.2760 -169.5030   26.1410 N.am  101  PRO101     -0.2726
     28  CA        16.9370 -169.4880   25.5630 C.3   101  PRO101      0.1402
     29  C         16.7650 -169.0740   24.1160 C.2   101  PRO101      0.2269
     30  O         17.5840 -168.3580   23.5380 O.2   101  PRO101     -0.2865
     31  CB        16.1850 -168.5540   26.5010 C.3   101  PRO101      0.0296
     32  CG        17.1910 -167.5210   26.7560 C.3   101  PRO101      0.0237
     33  CD        18.4410 -168.3480   27.0430 C.3   101  PRO101      0.0939
     34  N         14.8540 -166.8630   21.7260 N.3   103  PHE103     -0.1241
     35  CA        14.2070 -165.5770   21.9590 C.3   103  PHE103      0.1605
     36  C         12.8680 -165.5200   21.2330 C.2   103  PHE103      0.2264
     37  O         12.7330 -164.8870   20.1820 O.2   103  PHE103     -0.2867
     38  CB        15.1480 -164.4730   21.4990 C.3   103  PHE103      0.0534
     39  CG        16.4580 -164.4930   22.2160 C.ar  103  PHE103     -0.0203
     40  CD1       16.5590 -163.9920   23.5090 C.ar  103  PHE103     -0.0042
     41  CD2       17.5760 -165.0750   21.6320 C.ar  103  PHE103     -0.0042
     42  CE1       17.7500 -164.0680   24.2180 C.ar  103  PHE103     -0.0003
     43  CE2       18.7720 -165.1590   22.3330 C.ar  103  PHE103     -0.0003
     44  CZ        18.8580 -164.6510   23.6330 C.ar  103  PHE103     -0.0000
     45  N          6.5530 -167.3220   28.2200 N.3   124  ASP124     -0.1225
     46  CA         7.6550 -166.3830   28.0420 C.3   124  ASP124      0.1805
     47  C          8.8170 -167.1880   27.4100 C.2   124  ASP124      0.2598
     48  O          8.6960 -168.4000   27.2130 O.2   124  ASP124     -0.2718
     49  CB         8.0470 -165.7290   29.3770 C.3   124  ASP124      0.1424
     50  CG         8.4740 -166.7280   30.4330 C.2   124  ASP124      0.3668
     51  OD1        8.7970 -166.2850   31.5610 O.co2 124  ASP124     -0.2456
     52  OD2        8.4920 -167.9420   30.1470 O.co2 124  ASP124     -0.2456
     53  N          9.9290 -166.5390   27.0790 N.am  125  LEU125     -0.1966
     54  CA        11.0360 -167.2440   26.4260 C.3   125  LEU125      0.1728
     55  C         11.5980 -168.4710   27.1450 C.2   125  LEU125      0.2616
     56  O         12.2460 -169.3060   26.5080 O.2   125  LEU125     -0.2715
     57  CB        12.1740 -166.2720   26.1070 C.3   125  LEU125      0.0311
     58  CG        13.0700 -165.7740   27.2420 C.3   125  LEU125      0.0022
     59  CD1       14.1750 -164.9210   26.6290 C.3   125  LEU125      0.0001
     60  CD2       12.2600 -164.9940   28.2800 C.3   125  LEU125      0.0001
     61  N         11.3690 -168.5920   28.4540 N.am  126  ILE126     -0.1977
     62  CA        11.8630 -169.7650   29.1650 C.3   126  ILE126      0.1596
     63  C         10.7770 -170.7600   29.5830 C.2   126  ILE126      0.2287
     64  O         10.9660 -171.5380   30.5120 O.2   126  ILE126     -0.2864
     65  CB        12.7290 -169.3960   30.4000 C.3   126  ILE126      0.0276
     66  CG1       11.9450 -168.5230   31.3730 C.3   126  ILE126      0.0022
     67  CG2       14.0150 -168.7140   29.9440 C.3   126  ILE126      0.0022
     68  CD1       12.7180 -168.2030   32.6330 C.3   126  ILE126      0.0001
     69  N          7.5240 -170.3050   30.9050 N.3   128  CYS128     -0.1235
     70  CA         6.5040 -170.0630   31.9130 C.3   128  CYS128      0.1677
     71  C          5.1460 -170.0040   31.2400 C.2   128  CYS128      0.2270
     72  O          4.8840 -169.1050   30.4360 O.2   128  CYS128     -0.2867
     73  CB         6.7470 -168.7520   32.6440 C.3   128  CYS128      0.0956
     74  SG         5.4780 -168.4500   33.8880 S.3   128  CYS128     -0.0801
     75  N          1.3870 -169.2300   30.6290 N.3   130  ASP130     -0.1239
     76  CA         0.4770 -168.1410   30.9280 C.3   130  ASP130      0.1674
     77  C         -0.8920 -168.6040   30.4220 C.2   130  ASP130      0.2266
     78  O         -1.1510 -168.6040   29.2160 O.2   130  ASP130     -0.2867
     79  CB         0.9970 -166.9080   30.1740 C.3   130  ASP130      0.1410
     80  CG         0.0860 -165.7190   30.2730 C.2   130  ASP130      0.3668
     81  OD1        0.4550 -164.6710   29.6900 O.co2 130  ASP130     -0.2456
     82  OD2       -0.9840 -165.8270   30.9190 O.co2 130  ASP130     -0.2456
@<TRIPOS>BOND
     1    37    36    2
     2    36    35    1
     3    38    35    1
     4    38    39    1
     5    41    39   ar
     6    41    43   ar
     7    34    35    1
     8    39    40   ar
     9    43    44   ar
    10    40    42   ar
    11    30    29    2
    12    44    42   ar
    13    29    28    1
    14    26    25    2
    15    28    27    1
    16    28    31    1
    17    25    27   am
    18    25    24    1
    19    57    54    1
    20    57    58    1
    21    27    33    1
    22    54    53    1
    23    54    55    1
    24    24    23    1
    25    31    32    1
    26    56    55    2
    27    59    58    1
    28    32    33    1
    29    53    47   am
    30    55    61   am
    31    48    47    2
    32    58    60    1
    33    47    46    1
    34    23    14   am
    35    46    45    1
    36    46    49    1
    37    61    62    1
    38    15    14    2
    39    14    13    1
    40    62    63    1
    41    62    65    1
    42    78    77    2
    43    49    50    1
    44     1     2    1
    45    63    64    2
    46    81    80   ar
    47    67    65    1
    48    52    50   ar
    49    79    80    1
    50    79    76    1
    51    12    13    1
    52    12     3   am
    53    13    16    1
    54    80    82   ar
    55    65    66    1
    56    77    76    1
    57    50    51   ar
    58    72    71    2
    59     2     3    1
    60     2     5    1
    61     3     4    2
    62    75    76    1
    63    69    70    1
    64    16    17    1
    65    71    70    1
    66    66    68    1
    67     5     6    1
    68    70    73    1
    69    17    18   ar
    70    17    19   ar
    71    73    74    1
    72     7     6    1
    73     7     8    1
    74    18    20   ar
    75    19    21   ar
    76    11     9    1
    77     8     9    2
    78     9    10    1
    79    20    22   ar
    80    21    22   ar
