@<TRIPOS>MOLECULE
tmp/4fzfB00.pdb
 173 163 0 0 0
SMALL
GASTEIGER

@<TRIPOS>ATOM
      1  N         36.2840 -110.9510    6.4330 N.3    12  GLU12      -0.1245
      2  CA        37.4290 -111.5650    5.7400 C.3    12  GLU12       0.1567
      3  C         38.1190 -110.5940    4.7730 C.2    12  GLU12       0.2260
      4  O         37.6170 -109.4960    4.5270 O.2    12  GLU12      -0.2867
      5  CB        37.0430 -112.8720    5.0460 C.3    12  GLU12       0.0388
      6  CG        38.1340 -113.9360    5.1280 C.3    12  GLU12       0.1160
      7  CD        38.0250 -115.0170    4.0560 C.2    12  GLU12       0.3649
      8  OE1       38.6200 -116.1010    4.2520 O.co2  12  GLU12      -0.2457
      9  OE2       37.3610 -114.7920    3.0160 O.co2  12  GLU12      -0.2457
     10  N         39.3290 -110.6330    1.3970 N.3    14  ILE14      -0.1231
     11  CA        38.9830 -110.3210   -0.0170 C.3    14  ILE14       0.1692
     12  C         40.1270 -110.2180   -1.0610 C.2    14  ILE14       0.2593
     13  O         40.5320 -111.2170   -1.6520 O.2    14  ILE14      -0.2718
     14  CB        37.9050 -109.1870   -0.1410 C.3    14  ILE14       0.0266
     15  CG1       37.7030 -108.7400   -1.5860 C.3    14  ILE14       0.0019
     16  CG2       38.2310 -107.9760    0.7090 C.3    14  ILE14       0.0020
     17  CD1       36.9090 -107.4570   -1.7280 C.3    14  ILE14       0.0001
     18  N         40.6490 -109.0140   -1.2770 N.am   15  GLY15      -0.1942
     19  CA        41.3490 -108.7190   -2.5290 C.3    15  GLY15       0.2014
     20  C         42.8510 -108.4680   -2.6100 C.2    15  GLY15       0.2639
     21  O         43.3770 -108.2830   -3.7260 O.2    15  GLY15      -0.2714
     22  N         43.5490 -108.4700   -1.4620 N.am   16  LYS16      -0.1963
     23  CA        44.9940 -108.1210   -1.3870 C.3    16  LYS16       0.1728
     24  C         45.2220 -106.6670   -1.8370 C.2    16  LYS16       0.2616
     25  O         45.3890 -105.7730   -0.9960 O.2    16  LYS16      -0.2715
     26  CB        45.8960 -109.1180   -2.1770 C.3    16  LYS16       0.0311
     27  CG        46.4390 -110.3180   -1.3890 C.3    16  LYS16       0.0038
     28  CD        45.3630 -111.2790   -0.8800 C.3    16  LYS16       0.0206
     29  CE        44.6930 -112.0660   -2.0030 C.3    16  LYS16       0.1093
     30  NZ        43.4540 -112.7580   -1.5570 N.3    16  LYS16      -0.1314
     31  N         45.1960 -106.4490   -3.1560 N.am   17  GLY17      -0.1955
     32  CA        45.3650 -105.1280   -3.7490 C.3    17  GLY17       0.1869
     33  C         44.6230 -104.0240   -3.0180 C.2    17  GLY17       0.2309
     34  O         45.2390 -103.1270   -2.4380 O.2    17  GLY17      -0.2863
     35  N         42.1320 -104.6420    1.5840 N.3    20  VAL20      -0.1245
     36  CA        40.6960 -104.3970    1.4380 C.3    20  VAL20       0.1561
     37  C         39.9850 -105.4730    2.2420 C.2    20  VAL20       0.2260
     38  O         40.4940 -106.5810    2.3530 O.2    20  VAL20      -0.2867
     39  CB        40.2060 -104.4440   -0.0170 C.3    20  VAL20       0.0252
     40  CG1       38.7360 -104.0500   -0.0770 C.3    20  VAL20       0.0019
     41  CG2       41.0280 -103.5130   -0.8950 C.3    20  VAL20       0.0019
     42  N         32.9590 -103.2560    0.9000 N.3    33  ALA33      -0.1245
     43  CA        34.4170 -103.4450    0.8690 C.3    33  ALA33       0.1562
     44  C         35.1370 -102.2110    1.4470 C.2    33  ALA33       0.2260
     45  O         34.8910 -101.0760    1.0220 O.2    33  ALA33      -0.2867
     46  CB        34.8960 -103.7410   -0.5430 C.3    33  ALA33       0.0290
     47  N         38.7630 -100.4090    2.2570 N.3    35  LYS35      -0.1245
     48  CA        40.2010 -100.3360    2.0470 C.3    35  LYS35       0.1561
     49  C         40.7870  -99.5100    3.1770 C.2    35  LYS35       0.2260
     50  O         40.3350  -98.3880    3.4240 O.2    35  LYS35      -0.2867
     51  CB        40.5090  -99.7060    0.7010 C.3    35  LYS35       0.0271
     52  CG        41.9860  -99.5700    0.4140 C.3    35  LYS35       0.0035
     53  CD        42.2750  -99.9490   -1.0290 C.3    35  LYS35       0.0206
     54  CE        43.6920  -99.5950   -1.4690 C.3    35  LYS35       0.1093
     55  NZ        43.8710  -98.1430   -1.7790 N.3    35  LYS35      -0.1314
     56  N         32.2790  -99.5390   -9.5510 N.3    65  THR65      -0.1218
     57  CA        31.9110  -99.7310   -8.1500 C.3    65  THR65       0.1862
     58  C         31.7530  -98.4000   -7.4220 C.2    65  THR65       0.2287
     59  O         32.6440  -97.5540   -7.4660 O.2    65  THR65      -0.2866
     60  CB        32.8910 -100.6590   -7.4010 C.3    65  THR65       0.1770
     61  OG1       34.1730 -100.0380   -7.2940 O.3    65  THR65      -0.2211
     62  CG2       33.0430 -101.9850   -8.1320 C.3    65  THR65       0.0375
     63  N         33.4890  -98.9110    0.0090 N.3    81  MET81      -0.1230
     64  CA        32.9920  -99.0890   -1.3570 C.3    81  MET81       0.1702
     65  C         31.9350 -100.1710   -1.5530 C.2    81  MET81       0.2592
     66  O         31.8660 -101.1350   -0.7890 O.2    81  MET81      -0.2718
     67  CB        34.1550  -99.3730   -2.2840 C.3    81  MET81       0.0401
     68  CG        34.1010  -98.5420   -3.5440 C.3    81  MET81       0.0596
     69  SD        35.7670  -98.0540   -4.0130 S.3    81  MET81      -0.1393
     70  CE        36.3030  -97.1770   -2.5460 C.3    81  MET81       0.0692
     71  N         31.1320  -99.9990   -2.6050 N.am   82  GLU82      -0.1966
     72  CA        30.0990 -100.9540   -3.0060 C.3    82  GLU82       0.1733
     73  C         30.6850 -102.3430   -3.2080 C.2    82  GLU82       0.2616
     74  O         31.4860 -102.5680   -4.1150 O.2    82  GLU82      -0.2715
     75  CB        29.4110 -100.4850   -4.2900 C.3    82  GLU82       0.0429
     76  CG        28.4450 -101.4970   -4.8880 C.3    82  GLU82       0.1163
     77  CD        28.1290 -101.2460   -6.3580 C.2    82  GLU82       0.3649
     78  OE1       27.3250 -102.0260   -6.9200 O.co2  82  GLU82      -0.2457
     79  OE2       28.6700 -100.2840   -6.9600 O.co2  82  GLU82      -0.2457
     80  N         30.2740 -103.2650   -2.3440 N.am   83  TYR83      -0.1960
     81  CA        30.7560 -104.6430   -2.3640 C.3    83  TYR83       0.1771
     82  C         29.9890 -105.4650   -3.3820 C.2    83  TYR83       0.2619
     83  O         28.7580 -105.4750   -3.3730 O.2    83  TYR83      -0.2715
     84  CB        30.5910 -105.2670   -0.9810 C.3    83  TYR83       0.0574
     85  CG        31.0290 -106.7010   -0.8900 C.ar   83  TYR83      -0.0198
     86  CD1       32.3590 -107.0250   -0.6500 C.ar   83  TYR83      -0.0009
     87  CD2       30.1160 -107.7320   -1.0270 C.ar   83  TYR83      -0.0009
     88  CE1       32.7720 -108.3440   -0.5650 C.ar   83  TYR83       0.0417
     89  CE2       30.5180 -109.0550   -0.9410 C.ar   83  TYR83       0.0417
     90  CZ        31.8460 -109.3540   -0.7110 C.ar   83  TYR83       0.1957
     91  OH        32.2430 -110.6670   -0.6150 O.3    83  TYR83      -0.2866
     92  N         30.7190 -106.1590   -4.2480 N.am   84  LEU84      -0.1963
     93  CA        30.0930 -107.0280   -5.2420 C.3    84  LEU84       0.1728
     94  C         30.2130 -108.4930   -4.8460 C.2    84  LEU84       0.2617
     95  O         31.3040 -108.9780   -4.5140 O.2    84  LEU84      -0.2715
     96  CB        30.6600 -106.7770   -6.6410 C.3    84  LEU84       0.0311
     97  CG        29.9270 -105.7460   -7.5000 C.3    84  LEU84       0.0022
     98  CD1       30.1820 -104.3240   -7.0390 C.3    84  LEU84       0.0001
     99  CD2       30.3660 -105.9090   -8.9350 C.3    84  LEU84       0.0001
    100  N         29.0740 -109.1820   -4.8830 N.am   85  GLY85      -0.1940
    101  CA        28.9500 -110.5250   -4.3290 C.3    85  GLY85       0.2014
    102  C         29.6740 -111.6070   -5.1010 C.2    85  GLY85       0.2639
    103  O         30.3820 -112.4250   -4.5170 O.2    85  GLY85      -0.2714
    104  N         29.4960 -111.6060   -6.4190 N.am   86  GLY86      -0.1939
    105  CA        30.0310 -112.6510   -7.2840 C.3    86  GLY86       0.2014
    106  C         31.5310 -112.8000   -7.2240 C.2    86  GLY86       0.2639
    107  O         32.0390 -113.9070   -7.3000 O.2    86  GLY86      -0.2714
    108  N         32.2410 -111.6900   -7.0790 N.am   87  GLY87      -0.1939
    109  CA        33.7040 -111.7210   -7.0670 C.3    87  GLY87       0.2014
    110  C         34.3100 -111.3100   -8.4000 C.2    87  GLY87       0.2639
    111  O         33.6350 -110.6930   -9.2320 O.2    87  GLY87      -0.2714
    112  N         35.5820 -111.6430   -8.6100 N.am   88  SER88      -0.1949
    113  CA        36.2550 -111.2490   -9.8420 C.3    88  SER88       0.1924
    114  C         35.8810 -112.1960  -10.9740 C.2    88  SER88       0.2314
    115  O         35.3990 -113.3030  -10.7250 O.2    88  SER88      -0.2863
    116  CB        37.7750 -111.2070   -9.6570 C.3    88  SER88       0.2116
    117  OG        38.3470 -112.4950   -9.7810 O.3    88  SER88      -0.2180
    118  N         38.2960 -114.9170  -10.8140 N.3    91  ASP91      -0.1239
    119  CA        37.8990 -115.9330   -9.8610 C.3    91  ASP91       0.1674
    120  C         36.8740 -116.8780  -10.4490 C.2    91  ASP91       0.2266
    121  O         36.9720 -118.0880  -10.2820 O.2    91  ASP91      -0.2867
    122  CB        37.3310 -115.2940   -8.6110 C.3    91  ASP91       0.1410
    123  CG        38.2050 -115.5220   -7.4120 C.2    91  ASP91       0.3668
    124  OD1       38.7260 -116.6580   -7.2750 O.co2  91  ASP91      -0.2456
    125  OD2       38.3720 -114.5690   -6.6100 O.co2  91  ASP91      -0.2456
    126  N         41.0100 -109.6920  -13.4500 N.3   130  ALA130     -0.1231
    127  CA        41.0050 -109.5990  -11.9930 C.3   130  ALA130      0.1694
    128  C         40.1960 -108.4400  -11.4230 C.2   130  ALA130      0.2592
    129  O         39.6310 -108.5810  -10.3500 O.2   130  ALA130     -0.2718
    130  CB        42.4250 -109.5590  -11.4670 C.3   130  ALA130      0.0304
    131  N         40.1400 -107.3150  -12.1370 N.am  131  ASN131     -0.1974
    132  CA        39.4220 -106.1280  -11.6760 C.3   131  ASN131      0.1688
    133  C         38.0360 -105.9910  -12.2550 C.2   131  ASN131      0.2292
    134  O         37.4470 -104.9100  -12.2050 O.2   131  ASN131     -0.2864
    135  CB        40.1970 -104.8720  -12.0240 C.3   131  ASN131      0.1181
    136  CG        41.5120 -104.7880  -11.2990 C.2   131  ASN131      0.2629
    137  OD1       41.6230 -105.2000  -10.1360 O.2   131  ASN131     -0.2716
    138  ND2       42.5250 -104.2510  -11.9740 N.am  131  ASN131     -0.0877
    139  N         34.3470 -107.2420  -11.7160 N.3   133  LEU133     -0.1245
    140  CA        33.5790 -107.8770  -10.6490 C.3   133  LEU133      0.1561
    141  C         32.1400 -108.1550  -11.0230 C.2   133  LEU133      0.2260
    142  O         31.5380 -107.4490  -11.8370 O.2   133  LEU133     -0.2867
    143  CB        33.6120 -107.0370   -9.3840 C.3   133  LEU133      0.0270
    144  CG        34.9850 -106.5640   -8.9430 C.3   133  LEU133      0.0019
    145  CD1       34.7900 -105.3990   -7.9900 C.3   133  LEU133      0.0001
    146  CD2       35.7930 -107.6990   -8.3270 C.3   133  LEU133      0.0001
    147  N         36.0340 -102.5950  -10.9730 N.3   143  ALA143     -0.1245
    148  CA        36.6110 -102.2280   -9.6930 C.3   143  ALA143      0.1562
    149  C         37.1230 -100.8170   -9.8900 C.2   143  ALA143      0.2260
    150  O         38.0150 -100.5890  -10.7000 O.2   143  ALA143     -0.2867
    151  CB        37.7400 -103.1840   -9.3080 C.3   143  ALA143      0.0290
    152  N         38.8890  -98.9240   -8.2320 N.3   145  PHE145     -0.1241
    153  CA        40.1690  -98.5680   -7.6690 C.3   145  PHE145      0.1605
    154  C         41.2230  -98.1790   -8.6930 C.2   145  PHE145      0.2264
    155  O         42.1270  -97.3890   -8.3810 O.2   145  PHE145     -0.2867
    156  CB        40.6580  -99.6250   -6.6930 C.3   145  PHE145      0.0534
    157  CG        40.1890  -99.3800   -5.2910 C.ar  145  PHE145     -0.0203
    158  CD1       40.6360  -98.2590   -4.5870 C.ar  145  PHE145     -0.0042
    159  CD2       39.2780 -100.2400   -4.6820 C.ar  145  PHE145     -0.0042
    160  CE1       40.1950  -98.0080   -3.2980 C.ar  145  PHE145     -0.0003
    161  CE2       38.8310  -99.9980   -3.3900 C.ar  145  PHE145     -0.0003
    162  CZ        39.2920  -98.8790   -2.6980 C.ar  145  PHE145     -0.0000
    163  N         30.3520 -121.4780  -10.0470 N.3   273  PHE273     -0.1241
    164  CA        31.4180 -121.2480   -9.0820 C.3   273  PHE273      0.1605
    165  C         30.9810 -121.7400   -7.7160 C.2   273  PHE273      0.2264
    166  O         31.6940 -122.4940   -7.0530 O.2   273  PHE273     -0.2867
    167  CB        31.7540 -119.7570   -8.9980 C.3   273  PHE273      0.0534
    168  CG        32.9110 -119.4460   -8.0850 C.ar  273  PHE273     -0.0203
    169  CD1       32.7420 -119.4100   -6.7060 C.ar  273  PHE273     -0.0042
    170  CD2       34.1780 -119.1950   -8.6070 C.ar  273  PHE273     -0.0042
    171  CE1       33.8120 -119.1380   -5.8700 C.ar  273  PHE273     -0.0003
    172  CE2       35.2510 -118.9200   -7.7760 C.ar  273  PHE273     -0.0003
    173  CZ        35.0670 -118.8920   -6.4080 C.ar  273  PHE273     -0.0000
@<TRIPOS>BOND
     1   126   127    1
     2   133   134    2
     3   133   132    1
     4   131   132    1
     5   131   128   am
     6   135   132    1
     7   135   136    1
     8   127   130    1
     9   127   128    1
    10   138   136   am
    11   142   141    2
    12   139   140    1
    13   128   129    2
    14   136   137    2
    15   141   140    1
    16   114   115    2
    17   114   113    1
    18   147   148    1
    19   118   119    1
    20   150   149    2
    21   140   143    1
    22   120   121    2
    23   120   119    1
    24   163   164    1
    25   149   148    1
    26   119   122    1
    27   113   116    1
    28   113   112    1
    29   117   116    1
    30   148   151    1
    31    56    57    1
    32   143   144    1
    33   111   110    2
    34   164   167    1
    35   164   165    1
    36   167   168    1
    37   144   146    1
    38   144   145    1
    39    99    97    1
    40   154   155    2
    41   154   153    1
    42   122   123    1
    43   112   110   am
    44   170   168   ar
    45   170   172   ar
    46   110   109    1
    47   152   153    1
    48    57    58    1
    49    57    60    1
    50    62    60    1
    51   168   169   ar
    52   172   173   ar
    53   165   166    2
    54   153   156    1
    55    97    98    1
    56    97    96    1
    57    59    58    2
    58   123   124   ar
    59   123   125   ar
    60    60    61    1
    61   107   106    2
    62   105   106    1
    63   105   104    1
    64   106   108   am
    65   108   109    1
    66    79    77   ar
    67    78    77   ar
    68   169   171   ar
    69   156   157    1
    70    96    93    1
    71   104   102   am
    72   173   171   ar
    73    77    76    1
    74   157   159   ar
    75   157   158   ar
    76    93    94    1
    77    93    92    1
    78   102   103    2
    79   102   101    1
    80    76    75    1
    81   100    94   am
    82   100   101    1
    83    94    95    2
    84   159   161   ar
    85   158   160   ar
    86    75    72    1
    87    92    82   am
    88    74    73    2
    89    69    68    1
    90    69    70    1
    91    32    31    1
    92    32    33    1
    93    21    20    2
    94    68    67    1
    95   161   162   ar
    96    82    83    2
    97    82    81    1
    98   160   162   ar
    99    73    72    1
   100    73    80   am
   101    31    24   am
   102    33    34    2
   103    72    71    1
   104    20    19    1
   105    20    22   am
   106    71    65   am
   107    19    18    1
   108    81    80    1
   109    81    84    1
   110    67    64    1
   111    26    27    1
   112    26    23    1
   113    29    30    1
   114    29    28    1
   115    24    23    1
   116    24    25    2
   117    55    54    1
   118    17    15    1
   119    13    12    2
   120    15    14    1
   121    65    64    1
   122    65    66    2
   123    54    53    1
   124    22    23    1
   125    27    28    1
   126    64    63    1
   127    18    12   am
   128    12    11    1
   129    53    52    1
   130    87    89   ar
   131    87    85   ar
   132    84    85    1
   133    89    90   ar
   134    41    39    1
   135    85    86   ar
   136    90    91    1
   137    90    88   ar
   138    86    88   ar
   139    46    43    1
   140    14    11    1
   141    14    16    1
   142    40    39    1
   143    11    10    1
   144    39    36    1
   145    52    51    1
   146    51    48    1
   147    43    42    1
   148    43    44    1
   149    45    44    2
   150    36    35    1
   151    36    37    1
   152    48    47    1
   153    48    49    1
   154    37    38    2
   155     9     7   ar
   156    49    50    2
   157     7     8   ar
   158     7     6    1
   159     4     3    2
   160     3     2    1
   161     5     6    1
   162     5     2    1
   163     2     1    1
