@<TRIPOS>MOLECULE
tmp/4fziB00.pdb
 129 131 0 0 0
SMALL
GASTEIGER

@<TRIPOS>ATOM
      1  N         18.7750   20.5490  -38.8960 N.3    20  TRP20      -0.1241
      2  CA        18.0850   21.7580  -38.4780 C.3    20  TRP20       0.1605
      3  C         18.7940   22.9680  -39.0650 C.2    20  TRP20       0.2264
      4  O         20.0440   23.0330  -39.0460 O.2    20  TRP20      -0.2867
      5  CB        18.0360   21.7880  -36.9510 C.3    20  TRP20       0.0550
      6  CG        17.5490   23.0720  -36.3130 C.ar   20  TRP20       0.0003
      7  CD1       16.5970   23.9780  -36.7840 C.ar   20  TRP20       0.0946
      8  CD2       17.9910   23.6250  -35.0370 C.ar   20  TRP20       0.0152
      9  NE1       16.4400   25.0350  -35.9180 N.ar   20  TRP20      -0.2442
     10  CE2       17.2450   24.8830  -34.8450 C.ar   20  TRP20       0.0810
     11  CE3       18.8830   23.2090  -34.0580 C.ar   20  TRP20       0.0012
     12  CZ2       17.4210   25.6740  -33.7290 C.ar   20  TRP20       0.0191
     13  CZ3       19.0380   24.0110  -32.9240 C.ar   20  TRP20       0.0001
     14  CH2       18.3340   25.2170  -32.7670 C.ar   20  TRP20       0.0015
     15  N          9.1770   20.3170  -39.2170 N.3    48  ILE48      -0.1231
     16  CA         9.2280   21.7630  -39.2060 C.3    48  ILE48       0.1692
     17  C         10.4750   22.3440  -39.8490 C.2    48  ILE48       0.2592
     18  O         10.4710   23.5200  -40.1640 O.2    48  ILE48      -0.2718
     19  CB         9.1490   22.2910  -37.7510 C.3    48  ILE48       0.0266
     20  CG1        8.7770   23.8000  -37.7160 C.3    48  ILE48       0.0019
     21  CG2       10.4750   22.0130  -37.0510 C.3    48  ILE48       0.0020
     22  CD1        7.4350   24.1370  -38.3390 C.3    48  ILE48       0.0001
     23  N         11.5490   21.5630  -40.0000 N.am   49  TYR49      -0.1976
     24  CA        12.7350   22.0690  -40.7100 C.3    49  TYR49       0.1639
     25  C         12.4370   22.1680  -42.2170 C.2    49  TYR49       0.2290
     26  O         13.2340   22.7290  -42.9700 O.2    49  TYR49      -0.2864
     27  CB        13.9810   21.1930  -40.5250 C.3    49  TYR49       0.0560
     28  CG        14.3250   20.7850  -39.1120 C.ar   49  TYR49      -0.0198
     29  CD1       13.9470   21.5470  -38.0370 C.ar   49  TYR49      -0.0009
     30  CD2       15.0810   19.6430  -38.8630 C.ar   49  TYR49      -0.0009
     31  CE1       14.2450   21.1660  -36.7570 C.ar   49  TYR49       0.0417
     32  CE2       15.3940   19.2600  -37.5740 C.ar   49  TYR49       0.0417
     33  CZ        14.9630   20.0260  -36.5230 C.ar   49  TYR49       0.1957
     34  OH        15.2450   19.6580  -35.2330 O.3    49  TYR49      -0.2866
     35  N         10.3390   14.1800  -36.4010 N.3    74  LYS74      -0.1245
     36  CA         9.5620   14.6890  -35.2740 C.3    74  LYS74       0.1561
     37  C          8.2000   15.2330  -35.6960 C.2    74  LYS74       0.2260
     38  O          8.0940   15.8650  -36.7530 O.2    74  LYS74      -0.2867
     39  CB        10.3520   15.8510  -34.5960 C.3    74  LYS74       0.0271
     40  CG        11.8490   15.6170  -34.4070 C.3    74  LYS74       0.0035
     41  CD        12.5560   16.7400  -33.6390 C.3    74  LYS74       0.0206
     42  CE        14.0840   16.5270  -33.5790 C.3    74  LYS74       0.1093
     43  NZ        14.8110   16.7460  -34.8570 N.3    74  LYS74      -0.1314
     44  N          5.4910   18.0000  -35.3870 N.3    76  TRP76      -0.1241
     45  CA         5.3820   19.4030  -34.9880 C.3    76  TRP76       0.1605
     46  C          4.1950   19.7060  -34.1050 C.2    76  TRP76       0.2264
     47  O          3.2160   18.9630  -34.0840 O.2    76  TRP76      -0.2867
     48  CB         5.3170   20.2770  -36.2150 C.3    76  TRP76       0.0550
     49  CG         5.4200   21.7530  -35.9030 C.ar   76  TRP76       0.0003
     50  CD1        4.5580   22.7680  -36.3100 C.ar   76  TRP76       0.0946
     51  CD2        6.4630   22.4340  -35.1230 C.ar   76  TRP76       0.0152
     52  NE1        4.9820   23.9890  -35.8620 N.ar   76  TRP76      -0.2442
     53  CE2        6.1200   23.8620  -35.1440 C.ar   76  TRP76       0.0810
     54  CE3        7.6060   22.0230  -34.4490 C.ar   76  TRP76       0.0012
     55  CZ2        6.8880   24.8100  -34.4970 C.ar   76  TRP76       0.0191
     56  CZ3        8.3730   22.9950  -33.7910 C.ar   76  TRP76       0.0001
     57  CH2        8.0190   24.3570  -33.8170 C.ar   76  TRP76       0.0015
     58  N          8.0630   16.8830  -30.6520 N.3   107  HIS107     -0.1226
     59  CA         9.0340   17.9660  -30.7880 C.3   107  HIS107      0.1752
     60  C          9.0740   18.9040  -29.5940 C.2   107  HIS107      0.2596
     61  O         10.1470   19.2950  -29.1340 O.2   107  HIS107     -0.2718
     62  CB         8.7600   18.7410  -32.0750 C.3   107  HIS107      0.0759
     63  CG         9.9820   19.3990  -32.6780 C.ar  107  HIS107      0.0818
     64  ND1       10.1300   19.5750  -34.0260 N.ar  107  HIS107     -0.2268
     65  CD2       11.1310   19.9110  -32.0800 C.ar  107  HIS107      0.1154
     66  CE1       11.3120   20.1850  -34.2630 C.ar  107  HIS107      0.1986
     67  NE2       11.9310   20.3780  -33.0810 N.ar  107  HIS107     -0.2212
     68  N          7.9030   19.3180  -29.1310 N.am  108  TRP108     -0.1976
     69  CA         7.7660   20.0940  -27.8920 C.3   108  TRP108      0.1640
     70  C          6.6280   19.5330  -27.1330 C.2   108  TRP108      0.2290
     71  O          5.7010   19.0050  -27.7480 O.2   108  TRP108     -0.2864
     72  CB         7.5200   21.5490  -28.1870 C.3   108  TRP108      0.0576
     73  CG         8.6960   22.1930  -28.8500 C.ar  108  TRP108      0.0006
     74  CD1        9.0140   22.2310  -30.2000 C.ar  108  TRP108      0.0946
     75  CD2        9.7780   22.9180  -28.1890 C.ar  108  TRP108      0.0152
     76  NE1       10.1900   22.9090  -30.3960 N.ar  108  TRP108     -0.2442
     77  CE2       10.6940   23.3380  -29.2420 C.ar  108  TRP108      0.0810
     78  CE3       10.0780   23.2220  -26.8780 C.ar  108  TRP108      0.0012
     79  CZ2       11.8320   24.0480  -28.9780 C.ar  108  TRP108      0.0191
     80  CZ3       11.2340   23.9460  -26.6250 C.ar  108  TRP108      0.0001
     81  CH2       12.0930   24.3420  -27.6590 C.ar  108  TRP108      0.0015
     82  N         11.0380   15.2660  -27.0970 N.3   136  SER136     -0.1202
     83  CA        12.0590   16.2940  -27.2330 C.3   136  SER136      0.2020
     84  C         11.6680   17.5550  -26.4790 C.2   136  SER136      0.2618
     85  O         10.4990   17.9840  -26.4960 O.2   136  SER136     -0.2717
     86  CB        12.2610   16.6600  -28.7080 C.3   136  SER136      0.2103
     87  OG        13.2810   17.6400  -28.8480 O.3   136  SER136     -0.2182
     88  N         12.6660   18.1610  -25.8450 N.am  137  ASN137     -0.1974
     89  CA        12.4470   19.2990  -24.9420 C.3   137  ASN137      0.1688
     90  C         11.4770   18.9820  -23.8080 C.2   137  ASN137      0.2292
     91  O         10.7680   19.8670  -23.3280 O.2   137  ASN137     -0.2864
     92  CB        11.9800   20.5250  -25.7230 C.3   137  ASN137      0.1181
     93  CG        12.8420   20.7840  -26.9130 C.2   137  ASN137      0.2629
     94  OD1       14.0790   20.8930  -26.7920 O.2   137  ASN137     -0.2716
     95  ND2       12.2310   20.7800  -28.0810 N.am  137  ASN137     -0.0877
     96  N         15.3890   14.3800  -26.5820 N.3   158  GLN158     -0.1245
     97  CA        16.3710   15.2270  -27.2770 C.3   158  GLN158      0.1566
     98  C         16.1740   16.6640  -26.7820 C.2   158  GLN158      0.2260
     99  O         15.1150   17.2630  -26.9900 O.2   158  GLN158     -0.2867
    100  CB        16.1680   15.1150  -28.7830 C.3   158  GLN158      0.0367
    101  CG        17.0290   16.0300  -29.6370 C.3   158  GLN158      0.0905
    102  CD        16.8500   15.8140  -31.1410 C.2   158  GLN158      0.2608
    103  OE1       16.8120   16.7710  -31.8710 O.2   158  GLN158     -0.2717
    104  NE2       16.7290   14.5590  -31.5970 N.am  158  GLN158     -0.0878
    105  N         20.8040   18.6600  -28.4920 N.3   184  TRP184     -0.1241
    106  CA        20.8660   19.6760  -29.5080 C.3   184  TRP184      0.1605
    107  C         21.5760   20.9200  -29.0330 C.2   184  TRP184      0.2264
    108  O         21.7080   21.1720  -27.8310 O.2   184  TRP184     -0.2867
    109  CB        19.5360   19.9310  -30.1960 C.3   184  TRP184      0.0550
    110  CG        18.4090   20.4860  -29.3860 C.ar  184  TRP184      0.0003
    111  CD1       17.3150   19.7980  -28.8700 C.ar  184  TRP184      0.0946
    112  CD2       18.1480   21.8990  -29.0690 C.ar  184  TRP184      0.0152
    113  NE1       16.4510   20.6500  -28.2180 N.ar  184  TRP184     -0.2442
    114  CE2       16.9060   21.9230  -28.2890 C.ar  184  TRP184      0.0810
    115  CE3       18.8110   23.0940  -29.3170 C.ar  184  TRP184      0.0012
    116  CZ2       16.3740   23.1060  -27.7940 C.ar  184  TRP184      0.0191
    117  CZ3       18.2570   24.2880  -28.8190 C.ar  184  TRP184      0.0001
    118  CH2       17.0770   24.2830  -28.0660 C.ar  184  TRP184      0.0015
    119  N          6.8650   27.6690  -24.4030 N.3   267  PHE267     -0.1241
    120  CA         7.1800   27.7150  -25.8370 C.3   267  PHE267      0.1605
    121  C          6.4460   26.6140  -26.5920 C.2   267  PHE267      0.2264
    122  O          6.7220   25.4200  -26.4240 O.2   267  PHE267     -0.2867
    123  CB         8.6810   27.5910  -26.0740 C.3   267  PHE267      0.0534
    124  CG         9.1070   27.8410  -27.5000 C.ar  267  PHE267     -0.0203
    125  CD1        9.2370   29.1370  -27.9870 C.ar  267  PHE267     -0.0042
    126  CD2        9.4290   26.7780  -28.3380 C.ar  267  PHE267     -0.0042
    127  CE1        9.6660   29.3720  -29.2850 C.ar  267  PHE267     -0.0003
    128  CE2        9.8540   27.0020  -29.6400 C.ar  267  PHE267     -0.0003
    129  CZ         9.9770   28.3070  -30.1180 C.ar  267  PHE267     -0.0000
@<TRIPOS>BOND
     1    26    25    2
     2    25    24    1
     3    24    27    1
     4    24    23    1
     5    27    28    1
     6    18    17    2
     7    23    17   am
     8    17    16    1
     9    15    16    1
    10    16    19    1
    11    28    30   ar
    12    28    29   ar
    13     3     4    2
    14     3     2    1
    15     1     2    1
    16    30    32   ar
    17     2     5    1
    18    22    20    1
    19    29    31   ar
    20    19    20    1
    21    19    21    1
    22    32    33   ar
    23     5     6    1
    24     7     6   ar
    25     7     9   ar
    26    31    33   ar
    27    38    37    2
    28    33    34    1
    29    35    36    1
    30     6     8   ar
    31    50    49   ar
    32    50    52   ar
    33    48    49    1
    34    48    45    1
    35     9    10   ar
    36    49    51   ar
    37    52    53   ar
    38    37    36    1
    39    44    45    1
    40    36    39    1
    41    53    51   ar
    42    53    55   ar
    43    51    54   ar
    44     8    10   ar
    45     8    11   ar
    46    45    46    1
    47    43    42    1
    48    10    12   ar
    49    39    40    1
    50    55    57   ar
    51    54    56   ar
    52    40    41    1
    53    66    64   ar
    54    66    67   ar
    55    46    47    2
    56    11    13   ar
    57    64    63   ar
    58    57    56   ar
    59    12    14   ar
    60    41    42    1
    61    67    65   ar
    62    13    14   ar
    63    63    65   ar
    64    63    62    1
    65    62    59    1
    66   103   102    2
    67   104   102   am
    68   102   101    1
    69    59    58    1
    70    59    60    1
    71    76    74   ar
    72    76    77   ar
    73    74    73   ar
    74   109   106    1
    75   109   110    1
    76   129   128   ar
    77   129   127   ar
    78   128   126   ar
    79   101   100    1
    80    60    61    2
    81    60    68   am
    82   106   107    1
    83   106   105    1
    84   110   112   ar
    85   110   111   ar
    86   115   112   ar
    87   115   117   ar
    88   127   125   ar
    89    77    79   ar
    90    77    75   ar
    91    68    69    1
    92   112   114   ar
    93   107   108    2
    94    79    81   ar
    95   111   113   ar
    96    73    75   ar
    97    73    72    1
    98    87    86    1
    99   117   118   ar
   100   100    97    1
   101    86    83    1
   102   126   124   ar
   103   114   113   ar
   104   114   116   ar
   105    75    78   ar
   106    72    69    1
   107    95    93   am
   108   118   116   ar
   109   125   124   ar
   110    69    70    1
   111    71    70    2
   112    81    80   ar
   113   124   123    1
   114    97    98    1
   115    97    96    1
   116    83    82    1
   117    83    84    1
   118    99    98    2
   119    93    94    2
   120    93    92    1
   121    78    80   ar
   122   121   122    2
   123   121   120    1
   124    85    84    2
   125    84    88   am
   126   123   120    1
   127    88    89    1
   128   120   119    1
   129    92    89    1
   130    89    90    1
   131    90    91    2
