@<TRIPOS>MOLECULE
tmp/4fzjB00.pdb
 108 104 0 0 0
SMALL
GASTEIGER

@<TRIPOS>ATOM
      1  N         -3.2290   -6.9710   29.6890 N.3    37  PRO37      -0.2102
      2  CA        -2.4420   -8.0770   29.1130 C.3    37  PRO37       0.1504
      3  C         -2.1870   -9.1850   30.1770 C.2    37  PRO37       0.2576
      4  O         -1.7580   -8.8830   31.2800 O.2    37  PRO37      -0.2718
      5  CB        -1.1280   -7.4250   28.7150 C.3    37  PRO37       0.0282
      6  CG        -1.3960   -5.9140   28.6690 C.3    37  PRO37       0.0208
      7  CD        -2.4630   -5.6860   29.7360 C.3    37  PRO37       0.0893
      8  N         -2.4040  -10.4530   29.8160 N.am   38  THR38      -0.1953
      9  CA        -2.1160  -11.5340   30.7330 C.3    38  THR38       0.1897
     10  C         -1.4780  -12.6880   30.0010 C.2    38  THR38       0.2313
     11  O         -1.4880  -12.7740   28.7950 O.2    38  THR38      -0.2863
     12  CB        -3.3970  -12.0930   31.4610 C.3    38  THR38       0.1794
     13  OG1       -4.1230  -12.9920   30.6280 O.3    38  THR38      -0.2208
     14  CG2       -4.3670  -10.9540   31.9000 C.3    38  THR38       0.0378
     15  N         -5.7390  -15.3970   38.2530 N.3    43  HIS43      -0.1241
     16  CA        -6.0300  -15.3870   39.6960 C.3    43  HIS43       0.1621
     17  C         -6.5130  -14.0150   40.1290 C.2    43  HIS43       0.2264
     18  O         -6.6880  -13.1030   39.3030 O.2    43  HIS43      -0.2867
     19  CB        -4.8140  -15.8480   40.5180 C.3    43  HIS43       0.0745
     20  CG        -3.5640  -15.0140   40.3110 C.ar   43  HIS43       0.0817
     21  ND1       -3.5030  -13.6620   40.6120 N.ar   43  HIS43      -0.2268
     22  CD2       -2.3400  -15.3380   39.8170 C.ar   43  HIS43       0.1154
     23  CE1       -2.3010  -13.1900   40.3070 C.ar   43  HIS43       0.1986
     24  NE2       -1.5750  -14.1840   39.7980 N.ar   43  HIS43      -0.2212
     25  N         -5.2050  -11.5140   41.3970 N.3    45  GLY45      -0.1210
     26  CA        -4.4030  -10.3530   41.0300 C.3    45  GLY45       0.1956
     27  C         -4.8080   -9.8860   39.6070 C.2    45  GLY45       0.2611
     28  O         -4.9740   -8.6580   39.3480 O.2    45  GLY45      -0.2717
     29  N         -4.9940  -10.8240   38.6900 N.am   46  HIS46      -0.1975
     30  CA        -5.4480  -10.4630   37.3410 C.3    46  HIS46       0.1656
     31  C         -6.8410   -9.8730   37.3830 C.2    46  HIS46       0.2291
     32  O         -7.1540   -8.9310   36.6410 O.2    46  HIS46      -0.2864
     33  CB        -5.5300  -11.6590   36.4050 C.3    46  HIS46       0.0771
     34  CG        -4.2260  -12.3580   36.2180 C.ar   46  HIS46       0.0820
     35  ND1       -3.8900  -13.4710   36.9740 N.ar   46  HIS46      -0.2267
     36  CD2       -3.1580  -12.1080   35.4090 C.ar   46  HIS46       0.1154
     37  CE1       -2.6940  -13.8990   36.6080 C.ar   46  HIS46       0.1986
     38  NE2       -2.2400  -13.1080   35.6340 N.ar   46  HIS46      -0.2212
     39  N         -8.1170   -8.0260   39.7300 N.3    48  ALA48      -0.1231
     40  CA        -7.9920   -6.6380   40.1370 C.3    48  ALA48       0.1694
     41  C         -7.6630   -5.7350   38.9560 C.2    48  ALA48       0.2591
     42  O         -8.1480   -4.5780   38.9410 O.2    48  ALA48      -0.2718
     43  CB        -6.9160   -6.4510   41.2020 C.3    48  ALA48       0.0304
     44  N         -6.8550   -6.2280   38.0010 N.am   49  LEU49      -0.1980
     45  CA        -6.5750   -5.4590   36.7840 C.3    49  LEU49       0.1596
     46  C         -7.9000   -5.2660   36.0180 C.2    49  LEU49       0.2287
     47  O         -8.2080   -4.1720   35.5860 O.2    49  LEU49      -0.2864
     48  CB        -5.6250   -6.1930   35.8180 C.3    49  LEU49       0.0297
     49  CG        -4.2750   -6.5210   36.4380 C.3    49  LEU49       0.0022
     50  CD1       -3.4160   -7.0450   35.3200 C.3    49  LEU49       0.0001
     51  CD2       -3.6570   -5.2720   37.0560 C.3    49  LEU49       0.0001
     52  N          0.1070   -4.9570   36.8540 N.3   145  GLY145     -0.1225
     53  CA         0.1990   -5.0120   38.3100 C.3   145  GLY145      0.1811
     54  C          1.4860   -4.3630   38.7780 C.2   145  GLY145      0.2280
     55  O          2.5370   -4.3730   38.1120 O.2   145  GLY145     -0.2866
     56  N          3.0930   -5.7090   41.1700 N.3   147  LYS147     -0.1231
     57  CA         3.9350   -6.7910   41.7210 C.3   147  LYS147      0.1693
     58  C          5.2230   -6.9700   40.9000 C.2   147  LYS147      0.2592
     59  O          6.3180   -7.1080   41.4580 O.2   147  LYS147     -0.2718
     60  CB         3.1870   -8.1170   41.7980 C.3   147  LYS147      0.0285
     61  CG         3.9970   -9.1020   42.7140 C.3   147  LYS147      0.0035
     62  CD         3.6300  -10.5140   42.5340 C.3   147  LYS147      0.0206
     63  CE         4.8680  -11.3380   42.5140 C.3   147  LYS147      0.1093
     64  NZ         4.8030  -12.3320   41.3640 N.3   147  LYS147     -0.1314
     65  N          5.0470   -6.8810   39.5690 N.am  148  ASP148     -0.1974
     66  CA         6.2240   -6.9040   38.6520 C.3   148  ASP148      0.1709
     67  C          6.6280   -5.4570   38.4080 C.2   148  ASP148      0.2293
     68  O          6.4150   -4.8600   37.3480 O.2   148  ASP148     -0.2864
     69  CB         5.8440   -7.6590   37.3620 C.3   148  ASP148      0.1436
     70  CG         5.5560   -9.1070   37.6580 C.2   148  ASP148      0.3671
     71  OD1        6.5490   -9.7690   38.0480 O.co2 148  ASP148     -0.2456
     72  OD2        4.3430   -9.4770   37.5000 O.co2 148  ASP148     -0.2456
     73  N         -1.5780   -1.2070   39.1110 N.3   171  VAL171     -0.1231
     74  CA        -2.6420   -1.6220   40.0480 C.3   171  VAL171      0.1678
     75  C         -1.9520   -2.3280   41.2500 C.2   171  VAL171      0.2434
     76  O         -1.0700   -3.1820   41.0180 O.2   171  VAL171     -0.2733
     77  CB        -3.6160   -2.6210   39.3080 C.3   171  VAL171      0.0265
     78  CG1       -4.6420   -3.1610   40.2990 C.3   171  VAL171      0.0020
     79  CG2       -4.2670   -1.8650   38.1250 C.3   171  VAL171      0.0020
     80  N         -2.2860   -1.9280   42.4920 N.am  172  PRO172     -0.2718
     81  CA        -1.5930   -2.4550   43.6750 C.3   172  PRO172      0.1535
     82  C         -1.7120   -3.9690   43.7400 C.2   172  PRO172      0.2599
     83  O         -2.7330   -4.5610   43.3300 O.2   172  PRO172     -0.2715
     84  CB        -2.3280   -1.7830   44.8500 C.3   172  PRO172      0.0310
     85  CG        -2.6810   -0.3750   44.2830 C.3   172  PRO172      0.0237
     86  CD        -3.1910   -0.8050   42.8590 C.3   172  PRO172      0.0939
     87  N         -0.6840   -4.5540   44.3190 N.am  173  THR173     -0.1937
     88  CA        -0.5600   -6.0140   44.4610 C.3   173  THR173      0.2028
     89  C         -1.7030   -6.5500   45.2880 C.2   173  THR173      0.2642
     90  O         -1.9280   -6.0460   46.3790 O.2   173  THR173     -0.2714
     91  CB         0.7980   -6.2580   45.1120 C.3   173  THR173      0.1808
     92  OG1        1.8030   -5.8380   44.1850 O.3   173  THR173     -0.2208
     93  CG2        1.0070   -7.7790   45.3480 C.3   173  THR173      0.0379
     94  N         -2.3120   -7.6600   44.8550 N.am  174  VAL174     -0.1977
     95  CA        -3.3160   -8.3430   45.6460 C.3   174  VAL174      0.1596
     96  C         -2.5700   -9.4170   46.4730 C.2   174  VAL174      0.2287
     97  O         -1.7020  -10.1060   45.9580 O.2   174  VAL174     -0.2864
     98  CB        -4.2850   -9.0270   44.7470 C.3   174  VAL174      0.0276
     99  CG1       -5.3560   -9.7970   45.5310 C.3   174  VAL174      0.0022
    100  CG2       -5.0820   -7.9470   43.8770 C.3   174  VAL174      0.0022
    101  N         -0.1210  -12.5590   45.6430 N.3   182  MET182     -0.1245
    102  CA        -0.6640  -13.6460   44.8040 C.3   182  MET182      0.1570
    103  C          0.1850  -14.0240   43.5640 C.2   182  MET182      0.2261
    104  O          0.7600  -13.1660   42.9150 O.2   182  MET182     -0.2867
    105  CB        -2.1190  -13.3640   44.4040 C.3   182  MET182      0.0387
    106  CG        -2.9740  -13.5320   45.6520 C.3   182  MET182      0.0595
    107  SD        -4.6370  -13.7460   45.1560 S.3   182  MET182     -0.1393
    108  CE        -5.4800  -13.5550   46.7340 C.3   182  MET182      0.0692
@<TRIPOS>BOND
     1     6     5    1
     2     6     7    1
     3     5     2    1
     4    11    10    2
     5     2     1    1
     6     2     3    1
     7     1     7    1
     8     8     3   am
     9     8     9    1
    10    10     9    1
    11     3     4    2
    12    13    12    1
    13     9    12    1
    14    12    14    1
    15    50    49    1
    16    36    38   ar
    17    36    34   ar
    18    47    46    2
    19    38    37   ar
    20    48    49    1
    21    48    45    1
    22    46    45    1
    23    34    33    1
    24    34    35   ar
    25    33    30    1
    26    49    51    1
    27    37    35   ar
    28    32    31    2
    29    45    44    1
    30    52    53    1
    31    30    31    1
    32    30    29    1
    33    68    67    2
    34    69    70    1
    35    69    66    1
    36    72    70   ar
    37    70    71   ar
    38    44    41   am
    39    55    54    2
    40    79    77    1
    41    15    16    1
    42    53    54    1
    43    67    66    1
    44    66    65    1
    45    29    27   am
    46    42    41    2
    47    41    40    1
    48    73    74    1
    49    18    17    2
    50    77    74    1
    51    77    78    1
    52    28    27    2
    53    65    58   am
    54    27    26    1
    55    16    17    1
    56    16    19    1
    57    39    40    1
    58    24    22   ar
    59    24    23   ar
    60    22    20   ar
    61    74    75    1
    62    40    43    1
    63    23    21   ar
    64    20    19    1
    65    20    21   ar
    66    58    59    2
    67    58    57    1
    68    76    75    2
    69    26    25    1
    70    56    57    1
    71    75    80   am
    72    64    63    1
    73    57    60    1
    74    60    61    1
    75    80    86    1
    76    80    81    1
    77    63    62    1
    78    62    61    1
    79    86    85    1
    80   104   103    2
    81    83    82    2
    82   103   102    1
    83    81    82    1
    84    81    84    1
    85    82    87   am
    86   100    98    1
    87    92    91    1
    88    85    84    1
    89    87    88    1
    90   105   102    1
    91   105   106    1
    92    88    91    1
    93    88    89    1
    94    98    99    1
    95    98    95    1
    96   102   101    1
    97    94    89   am
    98    94    95    1
    99    91    93    1
   100   107   106    1
   101   107   108    1
   102    89    90    2
   103    95    96    1
   104    97    96    2
