@<TRIPOS>MOLECULE
tmp/4fzjA00.pdb
 73 68 0 0 0
SMALL
GASTEIGER

@<TRIPOS>ATOM
      1  N         14.8130   10.8390  -11.0710 N.3   186  ARG186     -0.1245
      2  CA        16.1790   10.8510  -11.6790 C.3   186  ARG186      0.1563
      3  C         16.4510   12.1340  -12.4630 C.2   186  ARG186      0.2260
      4  O         15.5420   12.7570  -12.9580 O.2   186  ARG186     -0.2867
      5  CB        16.4150    9.6610  -12.5870 C.3   186  ARG186      0.0307
      6  CG        16.2170    8.3310  -11.8370 C.3   186  ARG186      0.0489
      7  CD        16.4520    7.1630  -12.7480 C.3   186  ARG186      0.2205
      8  NE        16.3160    5.9560  -11.8800 N.pl3 186  ARG186     -0.0865
      9  CZ        17.3120    5.4050  -11.1910 C.cat 186  ARG186      0.5346
     10  NH1       18.5630    5.8790  -11.3150 N.pl3 186  ARG186      0.1354
     11  NH2       17.0870    4.3290  -10.3630 N.pl3 186  ARG186      0.1354
     12  N         18.0020   14.0800  -15.7640 N.3   188  ALA188     -0.1231
     13  CA        17.8410   13.7050  -17.1720 C.3   188  ALA188      0.1694
     14  C         18.7750   12.5820  -17.6650 C.2   188  ALA188      0.2592
     15  O         18.3310   11.7640  -18.4680 O.2   188  ALA188     -0.2718
     16  CB        17.9770   15.0090  -18.1260 C.3   188  ALA188      0.0304
     17  N         20.0250   12.5030  -17.1650 N.am  189  ASP189     -0.1960
     18  CA        20.9330   11.4280  -17.5720 C.3   189  ASP189      0.1840
     19  C         20.7380   10.1150  -16.8030 C.2   189  ASP189      0.2622
     20  O         21.4080    9.1290  -17.0910 O.2   189  ASP189     -0.2715
     21  CB        22.4140   11.8450  -17.5120 C.3   189  ASP189      0.1450
     22  CG        22.9010   12.1450  -16.0970 C.2   189  ASP189      0.3671
     23  OD1       22.0270   12.1890  -15.1890 O.co2 189  ASP189     -0.2456
     24  OD2       24.1530   12.2870  -15.8980 O.co2 189  ASP189     -0.2456
     25  N         19.8050   10.0980  -15.8400 N.am  190  GLY190     -0.1954
     26  CA        19.5930    8.9050  -15.0290 C.3   190  GLY190      0.1869
     27  C         20.0850    8.9800  -13.5770 C.2   190  GLY190      0.2309
     28  O         19.6850    8.1030  -12.7550 O.2   190  GLY190     -0.2863
     29  N         23.5800    4.5050  -12.6520 N.3   212  SER212     -0.1217
     30  CA        22.2320    4.2990  -13.2820 C.3   212  SER212      0.1889
     31  C         22.4330    3.5440  -14.6360 C.2   212  SER212      0.2288
     32  O         21.6570    2.6430  -14.9570 O.2   212  SER212     -0.2866
     33  CB        21.4680    5.5880  -13.5150 C.3   212  SER212      0.2089
     34  OG        22.2490    6.5490  -14.2510 O.3   212  SER212     -0.2183
     35  N         22.9730   -0.0920  -13.9070 N.3   215  LEU215     -0.1231
     36  CA        21.7610   -0.7810  -13.4610 C.3   215  LEU215      0.1693
     37  C         20.7550   -0.9570  -14.5940 C.2   215  LEU215      0.2592
     38  O         20.1330   -2.0310  -14.7130 O.2   215  LEU215     -0.2718
     39  CB        21.0650    0.0060  -12.3460 C.3   215  LEU215      0.0284
     40  CG        21.8630    0.1280  -11.0320 C.3   215  LEU215      0.0019
     41  CD1       21.0870    0.8660   -9.9430 C.3   215  LEU215      0.0001
     42  CD2       22.1260   -1.2060  -10.5610 C.3   215  LEU215      0.0001
     43  N         20.5600    0.0610  -15.4500 N.am  216  THR216     -0.1953
     44  CA        19.6200   -0.1440  -16.5550 C.3   216  THR216      0.1897
     45  C         20.2010   -1.1260  -17.5750 C.2   216  THR216      0.2313
     46  O         19.4510   -1.9330  -18.1380 O.2   216  THR216     -0.2863
     47  CB        19.2490    1.1340  -17.3060 C.3   216  THR216      0.1794
     48  OG1       20.4590    1.7550  -17.7700 O.3   216  THR216     -0.2208
     49  CG2       18.4270    2.0390  -16.3850 C.3   216  THR216      0.0378
     50  N         22.3410    3.3670   -5.5930 N.3   279  ASP279     -0.1225
     51  CA        21.1850    3.2800   -6.4970 C.3   279  ASP279      0.1805
     52  C         20.7280    1.8330   -6.5370 C.2   279  ASP279      0.2598
     53  O         21.4310    0.9340   -6.1240 O.2   279  ASP279     -0.2718
     54  CB        21.5780    3.7680   -7.9270 C.3   279  ASP279      0.1424
     55  CG        20.3900    4.1920   -8.7950 C.2   279  ASP279      0.3668
     56  OD1       19.1560    3.9810   -8.5090 O.co2 279  ASP279     -0.2456
     57  OD2       20.6780    4.7150   -9.9320 O.co2 279  ASP279     -0.2456
     58  N         19.5500    1.6160   -7.0700 N.am  280  ASN280     -0.1960
     59  CA        19.0440    0.2220   -7.2150 C.3   280  ASN280      0.1819
     60  C         17.9510    0.1840   -8.2660 C.2   280  ASN280      0.2621
     61  O         17.3640    1.2190   -8.6310 O.2   280  ASN280     -0.2715
     62  CB        18.4650   -0.2500   -5.8220 C.3   280  ASN280      0.1195
     63  CG        17.2340    0.5620   -5.4300 C.2   280  ASN280      0.2630
     64  OD1       16.1100    0.2200   -5.8420 O.2   280  ASN280     -0.2716
     65  ND2       17.4360    1.6690   -4.6780 N.am  280  ASN280     -0.0877
     66  N         17.6580   -1.0190   -8.7490 N.am  281  ILE281     -0.1977
     67  CA        16.6410   -1.1470   -9.7910 C.3   281  ILE281      0.1596
     68  C         15.9960   -2.5120   -9.6640 C.2   281  ILE281      0.2287
     69  O         16.6510   -3.5220   -9.2660 O.2   281  ILE281     -0.2864
     70  CB        17.3530   -0.9620  -11.2240 C.3   281  ILE281      0.0276
     71  CG1       16.3050   -0.6470  -12.3150 C.3   281  ILE281      0.0022
     72  CG2       18.1750   -2.2200  -11.5530 C.3   281  ILE281      0.0022
     73  CD1       16.9870   -0.2750  -13.7230 C.3   281  ILE281      0.0001
@<TRIPOS>BOND
     1    15    14    2
     2    46    45    2
     3    16    13    1
     4    48    47    1
     5    14    13    1
     6    14    17   am
     7    45    44    1
     8    18    21    1
     9    18    17    1
    10    18    19    1
    11    21    22    1
    12    47    44    1
    13    47    49    1
    14    13    12    1
    15    20    19    2
    16    19    25   am
    17    44    43    1
    18    22    24   ar
    19    22    23   ar
    20    25    26    1
    21    43    37   am
    22    26    27    1
    23    32    31    2
    24    38    37    2
    25    31    30    1
    26    37    36    1
    27    34    33    1
    28    35    36    1
    29    73    71    1
    30    27    28    2
    31    33    30    1
    32    36    39    1
    33    30    29    1
    34     4     3    2
    35     7     8    1
    36     7     6    1
    37     5     6    1
    38     5     2    1
    39     3     2    1
    40    39    40    1
    41    71    70    1
    42     8     9    2
    43     2     1    1
    44    72    70    1
    45    10     9    1
    46    70    67    1
    47     9    11    1
    48    40    42    1
    49    40    41    1
    50    57    55   ar
    51    67    68    1
    52    67    66    1
    53    68    69    2
    54    55    56   ar
    55    55    54    1
    56    66    60   am
    57    61    60    2
    58    60    59    1
    59    54    51    1
    60    59    58    1
    61    59    62    1
    62    58    52   am
    63    52    51    1
    64    52    53    2
    65    51    50    1
    66    64    63    2
    67    62    63    1
    68    63    65   am
