@<TRIPOS>MOLECULE
tmp/4g05A01.pdb
 101 101 0 0 0
SMALL
GASTEIGER

@<TRIPOS>ATOM
      1  N          2.7200   15.0390    4.4620 N.3    43  ARG43      -0.1245
      2  CA         1.8530   16.2350    4.5520 C.3    43  ARG43       0.1563
      3  C          2.3600   17.0900    5.6880 C.2    43  ARG43       0.2260
      4  O          2.4810   18.3080    5.5660 O.2    43  ARG43      -0.2867
      5  CB         0.4290   15.8240    4.8260 C.3    43  ARG43       0.0307
      6  CG        -0.5270   16.9830    4.9170 C.3    43  ARG43       0.0489
      7  CD        -1.9370   16.4270    5.0790 C.3    43  ARG43       0.2205
      8  NE        -2.9820   17.4520    5.2070 N.pl3  43  ARG43      -0.0865
      9  CZ        -3.8290   17.5000    6.2370 C.cat  43  ARG43       0.5346
     10  NH1       -4.7340   18.4530    6.3070 N.pl3  43  ARG43       0.1354
     11  NH2       -3.7670   16.6070    7.2260 N.pl3  43  ARG43       0.1354
     12  N          5.1060   19.7440    5.0020 N.3    46  PHE46      -0.1227
     13  CA         4.6190   20.9560    4.3470 C.3    46  PHE46       0.1736
     14  C          3.8950   21.8920    5.3550 C.2    46  PHE46       0.2595
     15  O          4.1180   23.1290    5.4160 O.2    46  PHE46      -0.2718
     16  CB         3.6410   20.5580    3.2510 C.3    46  PHE46       0.0547
     17  CG         2.9780   21.7280    2.5770 C.ar   46  PHE46      -0.0202
     18  CD1        3.7320   22.7990    2.1130 C.ar   46  PHE46      -0.0042
     19  CD2        1.5760   21.7120    2.3340 C.ar   46  PHE46      -0.0042
     20  CE1        3.1220   23.8750    1.4310 C.ar   46  PHE46      -0.0003
     21  CE2        0.9450   22.7750    1.6680 C.ar   46  PHE46      -0.0003
     22  CZ         1.7330   23.8390    1.2010 C.ar   46  PHE46      -0.0000
     23  N          3.0070   21.2880    6.1520 N.am   47  HIS47      -0.1975
     24  CA         2.2700   22.0430    7.1600 C.3    47  HIS47       0.1656
     25  C          3.2200   22.6470    8.2060 C.2    47  HIS47       0.2291
     26  O          2.9840   23.7800    8.6640 O.2    47  HIS47      -0.2864
     27  CB         1.1500   21.1940    7.7130 C.3    47  HIS47       0.0771
     28  CG         0.0450   21.0030    6.7370 C.ar   47  HIS47       0.0820
     29  ND1       -1.2080   21.4100    6.9620 N.ar   47  HIS47      -0.2267
     30  CD2        0.0560   20.4760    5.4530 C.ar   47  HIS47       0.1154
     31  CE1       -1.9500   21.2030    5.8810 C.ar   47  HIS47       0.1986
     32  NE2       -1.1830   20.6240    4.9490 N.ar   47  HIS47      -0.2212
     33  N         -7.9380   25.9380   10.6570 N.3    76  PRO76      -0.2102
     34  CA        -8.7990   25.0690    9.8210 C.3    76  PRO76       0.1504
     35  C         -7.9880   24.2740    8.7840 C.2    76  PRO76       0.2575
     36  O         -8.2740   23.1100    8.5380 O.2    76  PRO76      -0.2718
     37  CB        -9.7110   26.0580    9.0940 C.3    76  PRO76       0.0282
     38  CG        -9.5910   27.3810    9.8160 C.3    76  PRO76       0.0208
     39  CD        -8.3910   27.3510   10.7060 C.3    76  PRO76       0.0893
     40  N         -7.0050   24.9170    8.1490 N.am   77  ALA77      -0.1980
     41  CA        -6.2110   24.2540    7.1030 C.3    77  ALA77       0.1597
     42  C         -5.2920   23.1350    7.6510 C.2    77  ALA77       0.2287
     43  O         -4.7880   22.3490    6.8750 O.2    77  ALA77      -0.2864
     44  CB        -5.4290   25.2800    6.2920 C.3    77  ALA77       0.0319
     45  N         -6.6620   20.8950    9.5370 N.3    79  ALA79      -0.1245
     46  CA        -7.6470   19.8780    9.8750 C.3    79  ALA79       0.1562
     47  C         -7.0420   18.4770    9.6100 C.2    79  ALA79       0.2260
     48  O         -6.4410   18.2310    8.5280 O.2    79  ALA79      -0.2867
     49  CB        -8.9440   20.0810    9.0430 C.3    79  ALA79       0.0290
     50  N         -1.2770   28.4370    5.5330 N.3   138  VAL138     -0.1231
     51  CA        -1.2780   27.1500    4.8240 C.3   138  VAL138      0.1678
     52  C         -2.3660   27.2000    3.7550 C.2   138  VAL138      0.2434
     53  O         -3.5270   27.4550    4.0670 O.2   138  VAL138     -0.2733
     54  CB        -1.5710   25.9720    5.7750 C.3   138  VAL138      0.0265
     55  CG1       -1.7490   24.6990    4.9220 C.3   138  VAL138      0.0020
     56  CG2       -0.4810   25.8520    6.8910 C.3   138  VAL138      0.0020
     57  N         -1.9930   26.9540    2.4750 N.am  139  PRO139     -0.2718
     58  CA        -3.0000   26.9770    1.3710 C.3   139  PRO139      0.1535
     59  C         -4.0920   25.9380    1.5350 C.2   139  PRO139      0.2599
     60  O         -3.8330   24.8890    2.1320 O.2   139  PRO139     -0.2715
     61  CB        -2.1650   26.6630    0.1470 C.3   139  PRO139      0.0310
     62  CG        -0.7330   26.9770    0.5500 C.3   139  PRO139      0.0237
     63  CD        -0.6420   26.6150    2.0000 C.3   139  PRO139      0.0939
     64  N         -5.3050   26.1980    1.0410 N.am  140  GLY140     -0.1941
     65  CA        -6.3140   25.1570    1.0250 C.3   140  GLY140      0.1998
     66  C         -6.8790   24.8530   -0.3580 C.2   140  GLY140      0.2481
     67  O         -6.6990   25.6340   -1.3000 O.2   140  GLY140     -0.2729
     68  N         -7.6310   23.7410   -0.4720 N.am  141  PRO141     -0.2715
     69  CA        -8.1920   23.2370   -1.7680 C.3   141  PRO141      0.1536
     70  C         -9.2430   24.1500   -2.4210 C.2   141  PRO141      0.2598
     71  O         -9.5360   23.9650   -3.6040 O.2   141  PRO141     -0.2715
     72  CB        -8.8370   21.9130   -1.3850 C.3   141  PRO141      0.0310
     73  CG        -9.2420   22.1170    0.1120 C.3   141  PRO141      0.0237
     74  CD        -8.1600   23.0010    0.7110 C.3   141  PRO141      0.0939
     75  N         -9.7660   25.1350   -1.6850 N.am  142  PHE142     -0.1974
     76  CA       -10.7940   26.0680   -2.1760 C.3   142  PHE142      0.1639
     77  C        -10.1760   27.4090   -2.5540 C.2   142  PHE142      0.2290
     78  O        -10.8830   28.2830   -3.0730 O.2   142  PHE142     -0.2864
     79  CB       -11.8970   26.2700   -1.1160 C.3   142  PHE142      0.0560
     80  CG       -11.3300   26.3400    0.2890 C.ar  142  PHE142     -0.0200
     81  CD1      -10.7040   27.5390    0.7680 C.ar  142  PHE142     -0.0042
     82  CD2      -11.3050   25.1910    1.1190 C.ar  142  PHE142     -0.0042
     83  CE1      -10.1020   27.5660    2.0530 C.ar  142  PHE142     -0.0003
     84  CE2      -10.7270   25.2330    2.4100 C.ar  142  PHE142     -0.0003
     85  CZ       -10.1260   26.4170    2.8730 C.ar  142  PHE142     -0.0000
     86  N        -10.8500   14.6130    5.1270 N.3   176  LYS176     -0.1231
     87  CA       -11.6890   15.7000    5.6310 C.3   176  LYS176      0.1693
     88  C        -12.4810   16.3880    4.5340 C.2   176  LYS176      0.2591
     89  O        -13.5490   16.9600    4.8390 O.2   176  LYS176     -0.2718
     90  CB       -10.8240   16.7340    6.3620 C.3   176  LYS176      0.0285
     91  CG        -9.9890   16.1930    7.5390 C.3   176  LYS176      0.0035
     92  CD       -10.8790   15.8320    8.7060 C.3   176  LYS176      0.0206
     93  CE       -10.1310   15.2430    9.8830 C.3   176  LYS176      0.1093
     94  NZ       -11.0690   14.8120   10.9900 N.3   176  LYS176     -0.1314
     95  N        -11.9800   16.3620    3.2880 N.am  177  VAL177     -0.1980
     96  CA       -12.6540   17.0580    2.1770 C.3   177  VAL177      0.1595
     97  C        -14.0670   16.4730    1.9850 C.2   177  VAL177      0.2287
     98  O        -15.0180   17.2450    1.7420 O.2   177  VAL177     -0.2864
     99  CB       -11.9200   16.9180    0.8100 C.3   177  VAL177      0.0276
    100  CG1      -12.6750   17.7040   -0.2540 C.3   177  VAL177      0.0022
    101  CG2      -10.4910   17.4180    0.8910 C.3   177  VAL177      0.0022
@<TRIPOS>BOND
     1    71    70    2
     2    78    77    2
     3    77    76    1
     4    70    69    1
     5    70    75   am
     6    76    75    1
     7    76    79    1
     8    69    72    1
     9    69    68    1
    10    72    73    1
    11    67    66    2
    12    79    80    1
    13    68    66   am
    14    68    74    1
    15    66    65    1
    16   100    99    1
    17    73    74    1
    18    61    62    1
    19    61    58    1
    20    80    81   ar
    21    80    82   ar
    22    62    63    1
    23    81    83   ar
    24    99   101    1
    25    99    96    1
    26    65    64    1
    27    64    59   am
    28    82    84   ar
    29    22    20   ar
    30    22    21   ar
    31    58    59    1
    32    58    57    1
    33    20    18   ar
    34    59    60    2
    35    21    19   ar
    36    98    97    2
    37    97    96    1
    38    63    57    1
    39    83    85   ar
    40    18    17   ar
    41    96    95    1
    42    19    17   ar
    43    84    85   ar
    44    57    52   am
    45    17    16    1
    46    16    13    1
    47    95    88   am
    48    52    53    2
    49    52    51    1
    50    13    12    1
    51    13    14    1
    52     1     2    1
    53    88    89    2
    54    88    87    1
    55     2     5    1
    56     2     3    1
    57    51    50    1
    58    51    54    1
    59     5     6    1
    60     6     7    1
    61    55    54    1
    62    32    30   ar
    63    32    31   ar
    64     7     8    1
    65    86    87    1
    66     8     9    2
    67    14    15    2
    68    14    23   am
    69    30    28   ar
    70     4     3    2
    71    87    90    1
    72    54    56    1
    73    31    29   ar
    74    23    24    1
    75     9    10    1
    76     9    11    1
    77    44    41    1
    78    90    91    1
    79    28    29   ar
    80    28    27    1
    81    43    42    2
    82    41    42    1
    83    41    40    1
    84    24    27    1
    85    24    25    1
    86    91    92    1
    87    40    35   am
    88    25    26    2
    89    48    47    2
    90    36    35    2
    91    92    93    1
    92    35    34    1
    93    49    46    1
    94    37    38    1
    95    37    34    1
    96    45    46    1
    97    47    46    1
    98    38    39    1
    99    34    33    1
   100    93    94    1
   101    33    39    1
