@<TRIPOS>MOLECULE
tmp/4g09A00.pdb
 160 154 0 0 0
SMALL
GASTEIGER

@<TRIPOS>ATOM
      1  N         57.6130   46.3500   81.2610 N.3   126  PRO126     -0.2116
      2  CA        58.2630   47.6160   81.6160 C.3   126  PRO126      0.1372
      3  C         59.7140   47.6220   81.1450 C.2   126  PRO126      0.2244
      4  O         60.3150   46.5630   80.9560 O.2   126  PRO126     -0.2868
      5  CB        58.1500   47.6490   83.1380 C.3   126  PRO126      0.0268
      6  CG        56.8970   46.8630   83.3950 C.3   126  PRO126      0.0207
      7  CD        57.0580   45.6950   82.4550 C.3   126  PRO126      0.0892
      8  N         63.1960   47.6770   85.8040 N.3   130  ALA130     -0.1245
      9  CA        62.0320   46.8570   86.1260 C.3   130  ALA130      0.1562
     10  C         61.7910   45.7980   85.0460 C.2   130  ALA130      0.2260
     11  O         60.8390   45.0250   85.1360 O.2   130  ALA130     -0.2867
     12  CB        60.7950   47.7410   86.2680 C.3   130  ALA130      0.0290
     13  N         62.1720   42.5160   83.6140 N.3   132  TYR132     -0.1241
     14  CA        62.5520   41.1590   84.0460 C.3   132  TYR132      0.1605
     15  C         62.3220   40.0290   83.0480 C.2   132  TYR132      0.2264
     16  O         61.2010   39.8130   82.5920 O.2   132  TYR132     -0.2867
     17  CB        61.8050   40.7900   85.3360 C.3   132  TYR132      0.0534
     18  CG        62.0510   41.7280   86.4960 C.ar  132  TYR132     -0.0201
     19  CD1       60.9870   42.2680   87.2210 C.ar  132  TYR132     -0.0009
     20  CD2       63.3430   42.0950   86.8530 C.ar  132  TYR132     -0.0009
     21  CE1       61.2140   43.1580   88.2750 C.ar  132  TYR132      0.0417
     22  CE2       63.5790   42.9760   87.8990 C.ar  132  TYR132      0.0417
     23  CZ        62.5140   43.5060   88.6030 C.ar  132  TYR132      0.1957
     24  OH        62.7610   44.3930   89.6280 O.3   132  TYR132     -0.2866
     25  N         62.2220   36.9650   83.6720 N.3   134  SER134     -0.1202
     26  CA        61.3290   35.9660   84.2830 C.3   134  SER134      0.2020
     27  C         59.8800   36.3290   83.9870 C.2   134  SER134      0.2619
     28  O         59.0540   35.4590   83.6990 O.2   134  SER134     -0.2717
     29  CB        61.5380   35.8890   85.7960 C.3   134  SER134      0.2103
     30  OG        61.2320   37.1300   86.4090 O.3   134  SER134     -0.2182
     31  N         59.5720   37.6190   84.0580 N.am  135  SER135     -0.1951
     32  CA        58.2220   38.0730   83.7590 C.3   135  SER135      0.1924
     33  C         57.8390   37.7920   82.3100 C.2   135  SER135      0.2314
     34  O         56.6840   37.4860   82.0280 O.2   135  SER135     -0.2863
     35  CB        58.0800   39.5610   84.0500 C.3   135  SER135      0.2116
     36  OG        58.0830   39.7680   85.4490 O.3   135  SER135     -0.2180
     37  N         51.5540   44.0530   83.8640 N.3   206  PRO206     -0.2102
     38  CA        51.4570   45.2590   84.6920 C.3   206  PRO206      0.1504
     39  C         52.3790   46.3870   84.2380 C.2   206  PRO206      0.2576
     40  O         53.4340   46.1420   83.6700 O.2   206  PRO206     -0.2718
     41  CB        51.8000   44.7440   86.0930 C.3   206  PRO206      0.0282
     42  CG        52.7510   43.6210   85.8100 C.3   206  PRO206      0.0208
     43  CD        52.0610   42.9160   84.6510 C.3   206  PRO206      0.0893
     44  N         51.9550   47.6240   84.4880 N.am  207  GLY207     -0.1943
     45  CA        52.7370   48.7880   84.1140 C.3   207  GLY207      0.2014
     46  C         52.5560   49.9000   85.1330 C.2   207  GLY207      0.2638
     47  O         51.9520   49.6820   86.1800 O.2   207  GLY207     -0.2714
     48  N         53.0630   51.0940   84.8410 N.am  208  ASN208     -0.1972
     49  CA        52.9180   52.2090   85.7730 C.3   208  ASN208      0.1688
     50  C         51.5450   52.8710   85.6810 C.2   208  ASN208      0.2292
     51  O         50.6380   52.3670   85.0090 O.2   208  ASN208     -0.2864
     52  CB        54.0100   53.2510   85.5330 C.3   208  ASN208      0.1181
     53  CG        54.0350   53.7550   84.1050 C.2   208  ASN208      0.2629
     54  OD1       52.9930   53.9910   83.4930 O.2   208  ASN208     -0.2716
     55  ND2       55.2360   53.9370   83.5720 N.am  208  ASN208     -0.0877
     56  N         52.3980   44.9200   95.2600 N.3   231  SER231     -0.1217
     57  CA        52.7790   43.5250   95.5130 C.3   231  SER231      0.1889
     58  C         52.9120   43.1710   97.0010 C.2   231  SER231      0.2288
     59  O         53.3120   44.0140   97.8060 O.2   231  SER231     -0.2866
     60  CB        54.1090   43.2480   94.7980 C.3   231  SER231      0.2089
     61  OG        54.5730   41.9310   95.0260 O.3   231  SER231     -0.2183
     62  N         60.5460   39.9750   99.0220 N.3   253  GLN253     -0.1245
     63  CA        59.3420   40.6610   98.5580 C.3   253  GLN253      0.1566
     64  C         59.5370   42.1770   98.6110 C.2   253  GLN253      0.2260
     65  O         59.2630   42.8990   97.6480 O.2   253  GLN253     -0.2867
     66  CB        58.1590   40.2450   99.4500 C.3   253  GLN253      0.0367
     67  CG        57.0270   41.2600   99.5760 C.3   253  GLN253      0.0905
     68  CD        56.3140   41.5780   98.2640 C.2   253  GLN253      0.2608
     69  OE1       55.4340   42.4410   98.2300 O.2   253  GLN253     -0.2717
     70  NE2       56.6850   40.8930   97.1870 N.am  253  GLN253     -0.0878
     71  N         61.2490   44.4870   95.8470 N.3   256  HIS256     -0.1226
     72  CA        60.5680   44.7050   94.5800 C.3   256  HIS256      0.1752
     73  C         60.1510   46.1380   94.3140 C.2   256  HIS256      0.2596
     74  O         60.3900   46.6860   93.2380 O.2   256  HIS256     -0.2718
     75  CB        59.3080   43.8430   94.5110 C.3   256  HIS256      0.0759
     76  CG        59.4670   42.5970   93.7030 C.ar  256  HIS256      0.0818
     77  ND1       59.9770   42.5680   92.4230 N.ar  256  HIS256     -0.2268
     78  CD2       59.0950   41.3220   93.9810 C.ar  256  HIS256      0.1154
     79  CE1       59.8920   41.3080   91.9700 C.ar  256  HIS256      0.1986
     80  NE2       59.3620   40.5100   92.8780 N.ar  256  HIS256     -0.2212
     81  N         59.5280   46.7410   95.3120 N.am  257  ASP257     -0.1974
     82  CA        58.9910   48.0750   95.1640 C.3   257  ASP257      0.1709
     83  C         58.9340   48.7100   96.5420 C.2   257  ASP257      0.2293
     84  O         58.7860   48.0010   97.5370 O.2   257  ASP257     -0.2864
     85  CB        57.5750   47.9440   94.5950 C.3   257  ASP257      0.1436
     86  CG        56.9830   49.2680   94.1670 C.2   257  ASP257      0.3671
     87  OD1       57.2690   49.7050   93.0290 O.co2 257  ASP257     -0.2456
     88  OD2       56.2350   49.8690   94.9690 O.co2 257  ASP257     -0.2456
     89  N         48.6760   38.0910   97.6120 N.3   321  GLU321     -0.1231
     90  CA        49.1210   37.6320   96.2950 C.3   321  GLU321      0.1699
     91  C         49.8860   36.3020   96.5190 C.2   321  GLU321      0.2592
     92  O         49.6660   35.3140   95.8290 O.2   321  GLU321     -0.2718
     93  CB        50.0720   38.6740   95.6780 C.3   321  GLU321      0.0402
     94  CG        50.8340   38.1920   94.4100 C.3   321  GLU321      0.1161
     95  CD        51.9480   39.1650   93.9230 C.2   321  GLU321      0.3649
     96  OE1       52.6550   39.7610   94.7620 O.co2 321  GLU321     -0.2457
     97  OE2       52.1350   39.3090   92.6980 O.co2 321  GLU321     -0.2457
     98  N         50.7970   36.3160   97.4900 N.am  322  HIS322     -0.1976
     99  CA        51.6010   35.1500   97.8490 C.3   322  HIS322      0.1656
    100  C         51.4030   34.8630   99.3360 C.2   322  HIS322      0.2291
    101  O         51.4610   35.7760  100.1580 O.2   322  HIS322     -0.2864
    102  CB        53.0940   35.4230   97.6240 C.3   322  HIS322      0.0771
    103  CG        53.4630   35.7270   96.2060 C.ar  322  HIS322      0.0820
    104  ND1       53.8800   36.9760   95.8000 N.ar  322  HIS322     -0.2267
    105  CD2       53.5170   34.9380   95.1070 C.ar  322  HIS322      0.1154
    106  CE1       54.1750   36.9440   94.5120 C.ar  322  HIS322      0.1986
    107  NE2       53.9650   35.7170   94.0690 N.ar  322  HIS322     -0.2212
    108  N         58.7550   31.7500   98.4670 N.3   351  GLU351     -0.1245
    109  CA        57.9340   32.2190   97.3710 C.3   351  GLU351      0.1567
    110  C         58.7910   32.4840   96.1240 C.2   351  GLU351      0.2260
    111  O         58.3490   32.2610   94.9950 O.2   351  GLU351     -0.2867
    112  CB        57.1600   33.4600   97.8340 C.3   351  GLU351      0.0388
    113  CG        57.5540   34.7380   97.1790 C.3   351  GLU351      0.1160
    114  CD        56.8660   34.9380   95.8500 C.2   351  GLU351      0.3649
    115  OE1       56.7890   33.9780   95.0500 O.co2 351  GLU351     -0.2457
    116  OE2       56.4020   36.0620   95.5940 O.co2 351  GLU351     -0.2457
    117  N         58.3210   32.4830   91.7250 N.3   355  ASP355     -0.1225
    118  CA        58.5370   33.5800   90.7890 C.3   355  ASP355      0.1805
    119  C         59.3030   33.0560   89.5810 C.2   355  ASP355      0.2597
    120  O         59.1290   33.5380   88.4670 O.2   355  ASP355     -0.2718
    121  CB        59.4250   34.6820   91.3990 C.3   355  ASP355      0.1424
    122  CG        58.7500   35.4600   92.5220 C.2   355  ASP355      0.3668
    123  OD1       57.5360   35.2610   92.7510 O.co2 355  ASP355     -0.2456
    124  OD2       59.4510   36.2870   93.1690 O.co2 355  ASP355     -0.2456
    125  N         60.1510   32.0570   89.8220 N.am  356  TYR356     -0.1976
    126  CA        61.0490   31.5480   88.7960 C.3   356  TYR356      0.1639
    127  C         60.9280   30.1780   88.1660 C.2   356  TYR356      0.2290
    128  O         60.7750   30.0690   86.9580 O.2   356  TYR356     -0.2864
    129  CB        62.4920   31.6630   89.3130 C.3   356  TYR356      0.0560
    130  CG        62.9420   33.0820   89.5590 C.ar  356  TYR356     -0.0198
    131  CD1       63.4490   33.4680   90.7940 C.ar  356  TYR356     -0.0009
    132  CD2       62.8530   34.0440   88.5540 C.ar  356  TYR356     -0.0009
    133  CE1       63.8600   34.7800   91.0220 C.ar  356  TYR356      0.0417
    134  CE2       63.2570   35.3560   88.7750 C.ar  356  TYR356      0.0417
    135  CZ        63.7610   35.7130   90.0080 C.ar  356  TYR356      0.1957
    136  OH        64.1810   36.9990   90.2220 O.3   356  TYR356     -0.2866
    137  N         53.7540   33.5060   88.0770 N.3   362  HIS362     -0.1226
    138  CA        54.0000   34.5380   89.0800 C.3   362  HIS362      0.1752
    139  C         53.2110   35.8220   88.8240 C.2   362  HIS362      0.2595
    140  O         53.3100   36.7780   89.5930 O.2   362  HIS362     -0.2718
    141  CB        55.5140   34.8270   89.2090 C.3   362  HIS362      0.0759
    142  CG        56.0920   35.6760   88.1130 C.ar  362  HIS362      0.0818
    143  ND1       57.4510   35.7730   87.8960 N.ar  362  HIS362     -0.2268
    144  CD2       55.5110   36.5220   87.2280 C.ar  362  HIS362      0.1154
    145  CE1       57.6820   36.6440   86.9290 C.ar  362  HIS362      0.1986
    146  NE2       56.5210   37.1140   86.5070 N.ar  362  HIS362     -0.2212
    147  N         52.4430   35.8570   87.7350 N.am  363  VAL363     -0.1980
    148  CA        51.6180   37.0330   87.4640 C.3   363  VAL363      0.1595
    149  C         50.3850   36.7200   88.2880 C.2   363  VAL363      0.2287
    150  O         49.5020   35.9530   87.8760 O.2   363  VAL363     -0.2864
    151  CB        51.2520   37.1710   85.9740 C.3   363  VAL363      0.0276
    152  CG1       50.4740   38.4720   85.7500 C.3   363  VAL363      0.0022
    153  CG2       52.5240   37.1590   85.1270 C.3   363  VAL363      0.0022
    154  N         46.9620   41.0240   92.9490 N.3   366  THR366     -0.1218
    155  CA        47.5200   41.8770   94.0080 C.3   366  THR366      0.1862
    156  C         46.4910   42.8350   94.6370 C.2   366  THR366      0.2287
    157  O         45.3830   42.9890   94.1360 O.2   366  THR366     -0.2866
    158  CB        48.6510   42.7600   93.4310 C.3   366  THR366      0.1770
    159  OG1       48.1010   43.6460   92.4370 O.3   366  THR366     -0.2211
    160  CG2       49.7220   41.9010   92.7830 C.3   366  THR366      0.0375
@<TRIPOS>BOND
     1     4     3    2
     2     3     2    1
     3     1     2    1
     4     1     7    1
     5     2     5    1
     6    34    33    2
     7    33    32    1
     8     7     6    1
     9    16    15    2
    10    15    14    1
    11     5     6    1
    12    54    53    2
    13    55    53   am
    14    13    14    1
    15    40    39    2
    16    25    26    1
    17    28    27    2
    18    32    35    1
    19    32    31    1
    20    37    43    1
    21    37    38    1
    22    27    31   am
    23    27    26    1
    24    14    17    1
    25    35    36    1
    26    53    52    1
    27    45    44    1
    28    45    46    1
    29    39    44   am
    30    39    38    1
    31    26    29    1
    32    43    42    1
    33    38    41    1
    34    48    46   am
    35    48    49    1
    36    51    50    2
    37    10    11    2
    38    10     9    1
    39   153   151    1
    40    46    47    2
    41    17    18    1
    42    52    49    1
    43    50    49    1
    44   152   151    1
    45    29    30    1
    46     8     9    1
    47    42    41    1
    48   151   148    1
    49     9    12    1
    50    18    20   ar
    51    18    19   ar
    52   146   145   ar
    53   146   144   ar
    54    20    22   ar
    55   145   143   ar
    56   128   127    2
    57    19    21   ar
    58   144   142   ar
    59   148   147    1
    60   148   149    1
    61   147   139   am
    62   150   149    2
    63   143   142   ar
    64    22    23   ar
    65   137   138    1
    66   142   141    1
    67   127   126    1
    68    21    23   ar
    69   120   119    2
    70   132   134   ar
    71   132   130   ar
    72    23    24    1
    73   134   135   ar
    74   126   129    1
    75   126   125    1
    76   139   138    1
    77   139   140    2
    78   138   141    1
    79   129   130    1
    80   130   131   ar
    81   119   125   am
    82   119   118    1
    83   135   136    1
    84   135   133   ar
    85   118   121    1
    86   118   117    1
    87   131   133   ar
    88   121   122    1
    89    79    77   ar
    90    79    80   ar
    91    77    76   ar
    92   159   158    1
    93   122   123   ar
    94   122   124   ar
    95    97    95   ar
    96   160   158    1
    97    80    78   ar
    98   154   155    1
    99    87    86   ar
   100    74    73    2
   101   158   155    1
   102    76    78   ar
   103    76    75    1
   104    95    94    1
   105    95    96   ar
   106   155   156    1
   107   107   106   ar
   108   107   105   ar
   109   157   156    2
   110    86    85    1
   111    86    88   ar
   112    73    72    1
   113    73    81   am
   114    94    93    1
   115    75    72    1
   116   106   104   ar
   117    72    71    1
   118    85    82    1
   119    60    61    1
   120    60    57    1
   121   111   110    2
   122   115   114   ar
   123   105   103   ar
   124    82    81    1
   125    82    83    1
   126    56    57    1
   127    57    58    1
   128   116   114   ar
   129    93    90    1
   130   104   103   ar
   131    92    91    2
   132   114   113    1
   133   110   109    1
   134   103   102    1
   135    90    91    1
   136    90    89    1
   137    91    98   am
   138    83    84    2
   139    58    59    2
   140   113   112    1
   141    70    68   am
   142   109   112    1
   143   109   108    1
   144    98    99    1
   145   102    99    1
   146    65    64    2
   147    99   100    1
   148    69    68    2
   149    68    67    1
   150    63    64    1
   151    63    62    1
   152    63    66    1
   153   100   101    2
   154    66    67    1
