@<TRIPOS>MOLECULE
tmp/4g0aA00.pdb
 132 123 0 0 0
SMALL
GASTEIGER

@<TRIPOS>ATOM
      1  N        -24.0630   31.5690    8.9030 N.3    59  ARG59      -0.1245
      2  CA       -22.7960   30.9490    9.2740 C.3    59  ARG59       0.1563
      3  C        -22.3540   31.3590   10.6780 C.2    59  ARG59       0.2260
      4  O        -21.3990   30.8030   11.2240 O.2    59  ARG59      -0.2867
      5  CB       -21.7110   31.3190    8.2640 C.3    59  ARG59       0.0307
      6  CG       -22.0000   30.8630    6.8420 C.3    59  ARG59       0.0489
      7  CD       -22.1290   29.3480    6.7570 C.3    59  ARG59       0.2205
      8  NE       -22.0810   28.8720    5.3770 N.pl3  59  ARG59      -0.0865
      9  CZ       -21.9950   27.5900    5.0320 C.cat  59  ARG59       0.5346
     10  NH1      -21.9500   26.6500    5.9670 N.pl3  59  ARG59       0.1354
     11  NH2      -21.9520   27.2440    3.7510 N.pl3  59  ARG59       0.1354
     12  N        -14.9200   28.9990   -1.6120 N.3   103  ARG103     -0.1231
     13  CA       -14.6270   27.6300   -1.1950 C.3   103  ARG103      0.1694
     14  C        -15.0990   27.3680    0.2320 C.2   103  ARG103      0.2592
     15  O        -14.7350   28.0870    1.1630 O.2   103  ARG103     -0.2718
     16  CB       -13.1320   27.3270   -1.3270 C.3   103  ARG103      0.0321
     17  CG       -12.7150   25.9320   -0.8540 C.3   103  ARG103      0.0489
     18  CD       -13.4970   24.8260   -1.5540 C.3   103  ARG103      0.2205
     19  NE       -12.6790   23.6410   -1.8160 N.pl3 103  ARG103     -0.0865
     20  CZ       -12.4390   22.6690   -0.9380 C.cat 103  ARG103      0.5346
     21  NH1      -12.9460   22.7220    0.2880 N.pl3 103  ARG103      0.1354
     22  NH2      -11.6810   21.6390   -1.2880 N.pl3 103  ARG103      0.1354
     23  N        -15.9260   26.3410    0.3920 N.am  104  VAL104     -0.1966
     24  CA       -16.3820   25.9250    1.7090 C.3   104  VAL104      0.1727
     25  C        -15.3580   24.9740    2.3180 C.2   104  VAL104      0.2616
     26  O        -14.9240   24.0190    1.6750 O.2   104  VAL104     -0.2715
     27  CB       -17.7530   25.2260    1.6320 C.3   104  VAL104      0.0290
     28  CG1      -18.1130   24.6090    2.9740 C.3   104  VAL104      0.0023
     29  CG2      -18.8240   26.2140    1.1820 C.3   104  VAL104      0.0023
     30  N        -14.9580   25.2470    3.5530 N.am  105  VAL105     -0.1963
     31  CA       -13.9230   24.4540    4.1990 C.3   105  VAL105      0.1727
     32  C        -14.3750   24.0040    5.5820 C.2   105  VAL105      0.2616
     33  O        -15.3550   24.5170    6.1220 O.2   105  VAL105     -0.2715
     34  CB       -12.6130   25.2470    4.3380 C.3   105  VAL105      0.0290
     35  CG1      -12.2180   25.8600    3.0010 C.3   105  VAL105      0.0023
     36  CG2      -12.7560   26.3280    5.4000 C.3   105  VAL105      0.0023
     37  N        -13.6570   23.0370    6.1460 N.am  106  SER106     -0.1950
     38  CA       -13.9050   22.5950    7.5110 C.3   106  SER106      0.1924
     39  C        -13.2690   23.5640    8.5000 C.2   106  SER106      0.2314
     40  O        -12.0420   23.6780    8.5710 O.2   106  SER106     -0.2863
     41  CB       -13.3470   21.1860    7.7360 C.3   106  SER106      0.2116
     42  OG       -13.3210   20.8660    9.1180 O.3   106  SER106     -0.2180
     43  N        -13.2290    9.5590    2.8820 N.3   220  HIS220     -0.1241
     44  CA       -13.9260   10.5120    2.0270 C.3   220  HIS220      0.1621
     45  C        -13.1530   10.7440    0.7330 C.2   220  HIS220      0.2264
     46  O        -13.4390   11.6830   -0.0100 O.2   220  HIS220     -0.2867
     47  CB       -14.1750   11.8280    2.7600 C.3   220  HIS220      0.0745
     48  CG       -15.2280   11.7350    3.8190 C.ar  220  HIS220      0.0817
     49  ND1      -15.7970   12.8440    4.4030 N.ar  220  HIS220     -0.2268
     50  CD2      -15.8160   10.6610    4.3980 C.ar  220  HIS220      0.1154
     51  CE1      -16.6890   12.4590    5.3000 C.ar  220  HIS220      0.1986
     52  NE2      -16.7180   11.1390    5.3170 N.ar  220  HIS220     -0.2212
     53  N         -9.9990   11.5320    0.1910 N.3   222  LYS222     -0.1245
     54  CA        -8.9500   12.5500    0.1680 C.3   222  LYS222      0.1561
     55  C         -7.5890   12.0440    0.6550 C.2   222  LYS222      0.2260
     56  O         -6.6740   12.8330    0.8930 O.2   222  LYS222     -0.2867
     57  CB        -9.3810   13.7900    0.9560 C.3   222  LYS222      0.0271
     58  CG       -10.6610   14.4180    0.4350 C.3   222  LYS222      0.0035
     59  CD       -10.9890   15.7040    1.1670 C.3   222  LYS222      0.0206
     60  CE       -12.3330   16.2520    0.7180 C.3   222  LYS222      0.1093
     61  NZ       -12.4020   16.4130   -0.7630 N.3   222  LYS222     -0.1314
     62  N        -11.0140    7.2880    7.8120 N.3   226  ARG226     -0.1245
     63  CA       -11.8560    7.8640    8.8400 C.3   226  ARG226      0.1563
     64  C        -12.5250    6.7400    9.6020 C.2   226  ARG226      0.2260
     65  O        -13.1660    5.8710    9.0110 O.2   226  ARG226     -0.2867
     66  CB       -12.8770    8.8160    8.2240 C.3   226  ARG226      0.0307
     67  CG       -12.2210    9.8210    7.2880 C.3   226  ARG226      0.0489
     68  CD       -13.1410   10.9630    6.8980 C.3   226  ARG226      0.2205
     69  NE       -12.4640   11.8820    5.9860 N.pl3 226  ARG226     -0.0865
     70  CZ       -12.7880   13.1600    5.8240 C.cat 226  ARG226      0.5346
     71  NH1      -13.7890   13.6900    6.5150 N.pl3 226  ARG226      0.1354
     72  NH2      -12.1060   13.9120    4.9690 N.pl3 226  ARG226      0.1354
     73  N        -24.8900    8.7920    7.2690 N.3   235  ASN235     -0.1240
     74  CA       -24.6860   10.2350    7.1880 C.3   235  ASN235      0.1653
     75  C        -23.4250   10.6050    6.4070 C.2   235  ASN235      0.2266
     76  O        -23.4370   11.5300    5.5960 O.2   235  ASN235     -0.2867
     77  CB       -24.6430   10.8530    8.5880 C.3   235  ASN235      0.1155
     78  CG       -24.4930   12.3620    8.5540 C.2   235  ASN235      0.2627
     79  OD1      -23.3920   12.8940    8.7140 O.2   235  ASN235     -0.2716
     80  ND2      -25.6030   13.0620    8.3430 N.am  235  ASN235     -0.0877
     81  N        -24.1030   10.1610    2.7020 N.3   238  ASP238     -0.1225
     82  CA       -24.8060   11.3130    2.1390 C.3   238  ASP238      0.1805
     83  C        -23.8590   12.4760    1.8630 C.2   238  ASP238      0.2597
     84  O        -23.8900   13.0670    0.7840 O.2   238  ASP238     -0.2718
     85  CB       -25.9350   11.7740    3.0670 C.3   238  ASP238      0.1424
     86  CG       -27.0490   10.7530    3.1820 C.2   238  ASP238      0.3668
     87  OD1      -27.0820    9.8110    2.3610 O.co2 238  ASP238     -0.2456
     88  OD2      -27.8970   10.8970    4.0890 O.co2 238  ASP238     -0.2456
     89  N        -23.0200   12.8030    2.8440 N.am  239  ARG239     -0.1979
     90  CA       -22.0800   13.9130    2.7130 C.3   239  ARG239      0.1597
     91  C        -21.0950   13.6860    1.5760 C.2   239  ARG239      0.2287
     92  O        -20.8480   14.5800    0.7660 O.2   239  ARG239     -0.2864
     93  CB       -21.3240   14.1350    4.0260 C.3   239  ARG239      0.0334
     94  CG       -22.1560   14.7790    5.1200 C.3   239  ARG239      0.0492
     95  CD       -21.7070   14.3210    6.5000 C.3   239  ARG239      0.2205
     96  NE       -20.3250   14.6890    6.7910 N.pl3 239  ARG239     -0.0865
     97  CZ       -19.6350   14.2130    7.8240 C.cat 239  ARG239      0.5346
     98  NH1      -20.2000   13.3450    8.6540 N.pl3 239  ARG239      0.1354
     99  NH2      -18.3800   14.5970    8.0240 N.pl3 239  ARG239      0.1354
    100  N        -22.9620   13.9250   -1.8680 N.3   242  ALA242     -0.1231
    101  CA       -23.2610   15.3170   -2.1840 C.3   242  ALA242      0.1694
    102  C        -22.0300   16.0370   -2.7310 C.2   242  ALA242      0.2592
    103  O        -22.0990   16.7090   -3.7610 O.2   242  ALA242     -0.2718
    104  CB       -23.7980   16.0350   -0.9570 C.3   242  ALA242      0.0304
    105  N        -20.9020   15.8880   -2.0430 N.am  243  THR243     -0.1953
    106  CA       -19.6550   16.5100   -2.4790 C.3   243  THR243      0.1897
    107  C        -19.2360   16.0000   -3.8550 C.2   243  THR243      0.2313
    108  O        -18.8040   16.7750   -4.7110 O.2   243  THR243     -0.2863
    109  CB       -18.5170   16.2540   -1.4750 C.3   243  THR243      0.1794
    110  OG1      -18.8000   16.9410   -0.2500 O.3   243  THR243     -0.2208
    111  CG2      -17.1900   16.7520   -2.0330 C.3   243  THR243      0.0378
    112  N        -21.8050   17.3800   -6.4460 N.3   246  SER246     -0.1202
    113  CA       -21.5660   18.8040   -6.6390 C.3   246  SER246      0.2020
    114  C        -20.3740   19.0580   -7.5570 C.2   246  SER246      0.2618
    115  O        -20.4330   19.9130   -8.4420 O.2   246  SER246     -0.2717
    116  CB       -21.3430   19.4940   -5.2940 C.3   246  SER246      0.2103
    117  OG       -21.0030   20.8550   -5.4780 O.3   246  SER246     -0.2182
    118  N        -19.2910   18.3190   -7.3410 N.am  247  ASN247     -0.1974
    119  CA       -18.1020   18.4640   -8.1720 C.3   247  ASN247      0.1688
    120  C        -18.3690   18.1110   -9.6320 C.2   247  ASN247      0.2292
    121  O        -17.7620   18.6820  -10.5360 O.2   247  ASN247     -0.2864
    122  CB       -16.9400   17.6360   -7.6190 C.3   247  ASN247      0.1181
    123  CG       -16.3420   18.2370   -6.3630 C.2   247  ASN247      0.2629
    124  OD1      -16.5830   19.4010   -6.0430 O.2   247  ASN247     -0.2716
    125  ND2      -15.5500   17.4470   -5.6470 N.am  247  ASN247     -0.0877
    126  N        -15.4890   20.7010  -11.2120 N.3   252  VAL252     -0.1245
    127  CA       -14.2990   20.2900  -10.4790 C.3   252  VAL252      0.1561
    128  C        -14.0800   18.7920  -10.6640 C.2   252  VAL252      0.2260
    129  O        -15.0320   18.0110  -10.6500 O.2   252  VAL252     -0.2867
    130  CB       -14.4240   20.6010   -8.9740 C.3   252  VAL252      0.0252
    131  CG1      -13.2230   20.0540   -8.2140 C.3   252  VAL252      0.0019
    132  CG2      -14.5680   22.0990   -8.7510 C.3   252  VAL252      0.0019
@<TRIPOS>BOND
     1   126   127    1
     2   128   129    2
     3   128   127    1
     4   121   120    2
     5   127   130    1
     6   120   119    1
     7   130   132    1
     8   130   131    1
     9   115   114    2
    10   119   122    1
    11   119   118    1
    12   122   123    1
    13   114   118   am
    14   114   113    1
    15   113   112    1
    16   113   116    1
    17   123   124    2
    18   123   125   am
    19   117   116    1
    20   108   107    2
    21   107   106    1
    22   103   102    2
    23   102   101    1
    24   102   105   am
    25   106   105    1
    26   106   109    1
    27   101   100    1
    28   101   104    1
    29   111   109    1
    30    19    18    1
    31    19    20    2
    32    12    13    1
    33    18    17    1
    34   109   110    1
    35    16    13    1
    36    16    17    1
    37    22    20    1
    38    13    14    1
    39    20    21    1
    40    61    60    1
    41    46    45    2
    42    54    53    1
    43    54    55    1
    44    54    57    1
    45    14    23   am
    46    14    15    2
    47    23    24    1
    48    58    57    1
    49    58    59    1
    50    55    56    2
    51    60    59    1
    52    45    44    1
    53    92    91    2
    54    84    83    2
    55    29    27    1
    56    91    90    1
    57    27    24    1
    58    27    28    1
    59    26    25    2
    60    24    25    1
    61    83    82    1
    62    83    89   am
    63    44    47    1
    64    44    43    1
    65    82    81    1
    66    82    85    1
    67    25    30   am
    68    87    86   ar
    69    90    89    1
    70    90    93    1
    71    47    48    1
    72    35    34    1
    73    85    86    1
    74    86    88   ar
    75    30    31    1
    76    11     9    1
    77    48    50   ar
    78    48    49   ar
    79    93    94    1
    80    31    34    1
    81    31    32    1
    82    34    36    1
    83    50    52   ar
    84    49    51   ar
    85    72    70    1
    86     9     8    2
    87     9    10    1
    88    94    95    1
    89    51    52   ar
    90     8     7    1
    91    32    33    2
    92    32    37   am
    93    76    75    2
    94    70    69    2
    95    70    71    1
    96    69    68    1
    97    37    38    1
    98    75    74    1
    99    95    96    1
   100     7     6    1
   101    96    97    2
   102     6     5    1
   103    68    67    1
   104    74    73    1
   105    74    77    1
   106    67    66    1
   107    38    41    1
   108    38    39    1
   109    41    42    1
   110    62    63    1
   111    97    99    1
   112    97    98    1
   113    66    63    1
   114     5     2    1
   115    80    78   am
   116    39    40    2
   117    78    77    1
   118    78    79    2
   119    63    64    1
   120     1     2    1
   121    65    64    2
   122     2     3    1
   123     3     4    2
