@<TRIPOS>MOLECULE
tmp/4g0cA00.pdb
 130 128 0 0 0
SMALL
GASTEIGER

@<TRIPOS>ATOM
      1  N         -8.5850    0.2290    5.8420 N.3    64  ASN64      -0.1240
      2  CA        -9.3970    1.1320    6.6310 C.3    64  ASN64       0.1653
      3  C        -10.5580    1.6160    5.8070 C.2    64  ASN64       0.2266
      4  O        -10.3840    1.9820    4.6470 O.2    64  ASN64      -0.2867
      5  CB        -8.6060    2.3930    7.0570 C.3    64  ASN64       0.1155
      6  CG        -7.3890    2.0890    7.9310 C.2    64  ASN64       0.2627
      7  OD1       -7.2780    1.0240    8.5350 O.2    64  ASN64      -0.2716
      8  ND2       -6.4910    3.0600    8.0320 N.am   64  ASN64      -0.0877
      9  N        -14.0580    8.1000   12.7870 N.3    88  ILE88      -0.1231
     10  CA       -13.1990    8.5330   11.6950 C.3    88  ILE88       0.1692
     11  C        -12.9060    7.3690   10.7490 C.2    88  ILE88       0.2591
     12  O        -12.8300    7.5430    9.5340 O.2    88  ILE88      -0.2718
     13  CB       -11.8930    9.2010   12.2220 C.3    88  ILE88       0.0266
     14  CG1      -10.9630    9.5540   11.0580 C.3    88  ILE88       0.0019
     15  CG2      -11.1960    8.2940   13.2280 C.3    88  ILE88       0.0020
     16  CD1       -9.7770   10.4340   11.4490 C.3    88  ILE88       0.0001
     17  N        -12.6420    6.1940   11.3330 N.am   89  GLN89      -0.1979
     18  CA       -12.3720    5.0210   10.5280 C.3    89  GLN89       0.1601
     19  C        -12.6160    3.7010   11.2870 C.2    89  GLN89       0.2287
     20  O        -12.7320    3.7210   12.3750 O.2    89  GLN89      -0.2864
     21  CB       -11.0320    4.9840    9.9350 C.3    89  GLN89       0.0394
     22  CG        -9.9460    4.9530   11.0090 C.3    89  GLN89       0.0908
     23  CD        -9.1710    3.6530   11.1570 C.2    89  GLN89       0.2608
     24  OE1       -9.6440    2.7290   11.2010 O.2    89  GLN89      -0.2717
     25  NE2       -8.0310    3.8270   11.4940 N.am   89  GLN89      -0.0878
     26  N        -11.2390   -0.6080   11.0390 N.3    91  HIS91      -0.1241
     27  CA       -10.4040   -1.5760   10.4910 C.3    91  HIS91       0.1621
     28  C        -10.4660   -2.8590   11.2880 C.2    91  HIS91       0.2264
     29  O        -11.0300   -2.9160   12.1360 O.2    91  HIS91      -0.2867
     30  CB        -8.9940   -1.1240   10.3940 C.3    91  HIS91       0.0745
     31  CG        -8.4280   -0.7990   11.7210 C.ar   91  HIS91       0.0817
     32  ND1       -8.6680    0.4010   12.2360 N.ar   91  HIS91      -0.2268
     33  CD2       -7.7380   -1.4880   12.6690 C.ar   91  HIS91       0.1154
     34  CE1       -8.1910    0.4610   13.4110 C.ar   91  HIS91       0.1986
     35  NE2       -7.6140   -0.6580   13.6760 N.ar   91  HIS91      -0.2212
     36  N         -8.2130   -6.6210   12.2990 N.3    93  HIS93      -0.1241
     37  CA        -7.0630   -7.3820   12.6110 C.3    93  HIS93       0.1621
     38  C         -7.3390   -8.8600   12.5360 C.2    93  HIS93       0.2264
     39  O         -8.3270   -9.2310   13.0860 O.2    93  HIS93      -0.2867
     40  CB        -6.3830   -7.1090   13.8460 C.3    93  HIS93       0.0745
     41  CG        -5.9980   -5.6900   14.1560 C.ar   93  HIS93       0.0817
     42  ND1       -4.7350   -5.2100   14.0710 N.ar   93  HIS93      -0.2268
     43  CD2       -6.7370   -4.6960   14.6270 C.ar   93  HIS93       0.1154
     44  CE1       -4.7870   -3.9820   14.4320 C.ar   93  HIS93       0.1986
     45  NE2       -5.9830   -3.6290   14.7480 N.ar   93  HIS93      -0.2212
     46  N        -12.1540   -2.7780   14.9430 N.3   116  HIS116     -0.1241
     47  CA       -11.8820   -1.5870   15.6260 C.3   116  HIS116      0.1621
     48  C        -12.5000   -0.3650   15.0480 C.2   116  HIS116      0.2264
     49  O        -12.1320   -0.0100   13.9530 O.2   116  HIS116     -0.2867
     50  CB       -10.4280   -1.3850   15.9270 C.3   116  HIS116      0.0745
     51  CG        -9.7290   -2.3730   16.7450 C.ar  116  HIS116      0.0817
     52  ND1       -8.3780   -2.5340   16.6630 N.ar  116  HIS116     -0.2268
     53  CD2      -10.1220   -3.2010   17.7110 C.ar  116  HIS116      0.1154
     54  CE1       -8.0300   -3.3720   17.5630 C.ar  116  HIS116      0.1986
     55  NE2       -9.0460   -3.8050   18.2200 N.ar  116  HIS116     -0.2212
     56  N        -12.7270    3.4090   15.3320 N.3   118  VAL118     -0.1245
     57  CA       -11.9770    4.4950   15.9540 C.3   118  VAL118      0.1561
     58  C        -12.7030    5.8320   15.9650 C.2   118  VAL118      0.2260
     59  O        -13.1840    6.3000   14.9350 O.2   118  VAL118     -0.2867
     60  CB       -10.6260    4.6670   15.2340 C.3   118  VAL118      0.0252
     61  CG1       -9.7670    5.7400   15.9040 C.3   118  VAL118      0.0019
     62  CG2       -9.8870    3.3260   15.1380 C.3   118  VAL118      0.0019
     63  N         -8.1850   15.0970   14.8500 N.3   127  PHE127     -0.1241
     64  CA        -7.6210   13.8160   15.2510 C.3   127  PHE127      0.1605
     65  C         -6.1880   13.9160   15.7490 C.2   127  PHE127      0.2264
     66  O         -5.8200   13.2840   16.7390 O.2   127  PHE127     -0.2867
     67  CB        -7.6940   12.8420   14.0720 C.3   127  PHE127      0.0534
     68  CG        -7.1820   11.4730   14.3870 C.ar  127  PHE127     -0.0203
     69  CD1       -7.9980   10.5380   15.0030 C.ar  127  PHE127     -0.0042
     70  CD2       -5.8750   11.1290   14.1010 C.ar  127  PHE127     -0.0042
     71  CE1       -7.5200    9.2860   15.3210 C.ar  127  PHE127     -0.0003
     72  CE2       -5.4000    9.8820   14.4160 C.ar  127  PHE127     -0.0003
     73  CZ        -6.2250    8.9590   15.0270 C.ar  127  PHE127     -0.0000
     74  N        -11.9420    3.6610   21.1970 N.3   139  VAL139     -0.1245
     75  CA       -11.9820    2.6270   20.1640 C.3   139  VAL139      0.1561
     76  C        -12.9320    1.5520   20.6210 C.2   139  VAL139      0.2260
     77  O        -12.8280    1.0740   21.7530 O.2   139  VAL139     -0.2867
     78  CB       -10.5920    2.0030   19.8880 C.3   139  VAL139      0.0252
     79  CG1      -10.7010    0.9440   18.7870 C.3   139  VAL139      0.0019
     80  CG2       -9.6120    3.0860   19.4560 C.3   139  VAL139      0.0019
     81  N         -2.9070    2.9780   21.3830 N.3   194  LEU194     -0.1231
     82  CA        -3.0610    2.5400   20.0020 C.3   194  LEU194      0.1693
     83  C         -2.2690    1.2290   19.9680 C.2   194  LEU194      0.2593
     84  O         -1.2840    1.0880   20.7080 O.2   194  LEU194     -0.2718
     85  CB        -2.4120    3.5430   19.0510 C.3   194  LEU194      0.0284
     86  CG        -3.0470    4.9340   19.0110 C.3   194  LEU194      0.0019
     87  CD1       -2.1980    5.8440   18.1330 C.3   194  LEU194      0.0001
     88  CD2       -4.4860    4.8740   18.5110 C.3   194  LEU194      0.0001
     89  N         -2.6900    0.2690   19.1440 N.am  195  THR195     -0.1939
     90  CA        -1.9930   -1.0100   19.0850 C.3   195  THR195      0.2028
     91  C         -0.9950   -1.0980   17.9500 C.2   195  THR195      0.2643
     92  O         -0.3430   -2.1310   17.7760 O.2   195  THR195     -0.2714
     93  CB        -2.9600   -2.1730   19.0360 C.3   195  THR195      0.1808
     94  OG1       -3.6520   -2.1720   17.8110 O.3   195  THR195     -0.2208
     95  CG2       -3.9960   -2.1560   20.1540 C.3   195  THR195      0.0379
     96  N         -0.8240    0.0050   17.2340 N.am  196  THR196     -0.1937
     97  CA         0.1960    0.0740   16.1960 C.3   196  THR196      0.2013
     98  C          0.9580    1.3630   16.4570 C.2   196  THR196      0.2484
     99  O          0.4270    2.3100   17.0440 O.2   196  THR196     -0.2729
    100  CB        -0.3650    0.0830   14.7630 C.3   196  THR196      0.1807
    101  OG1       -1.1390    1.2400   14.4960 O.3   196  THR196     -0.2208
    102  CG2       -1.1930   -1.1240   14.4340 C.3   196  THR196      0.0379
    103  N          2.2340    1.4280   16.0420 N.am  197  PRO197     -0.2715
    104  CA         2.9950    2.6560   16.2400 C.3   197  PRO197      0.1521
    105  C          2.2370    3.8320   15.6700 C.2   197  PRO197      0.2440
    106  O          1.4890    3.7020   14.6830 O.2   197  PRO197     -0.2731
    107  CB         4.2090    2.4250   15.3640 C.3   197  PRO197      0.0310
    108  CG         4.4430    0.9820   15.4950 C.3   197  PRO197      0.0237
    109  CD         3.0520    0.3980   15.3800 C.3   197  PRO197      0.0939
    110  N          2.3910    5.0020   16.2820 N.am  198  PRO198     -0.2727
    111  CA         3.2020    5.4130   17.4340 C.3   198  PRO198      0.1402
    112  C          2.8300    4.8940   18.8420 C.2   198  PRO198      0.2269
    113  O          3.4860    5.2680   19.8110 O.2   198  PRO198     -0.2865
    114  CB         3.1010    6.9350   17.3640 C.3   198  PRO198      0.0296
    115  CG         1.7650    7.1560   16.7660 C.3   198  PRO198      0.0237
    116  CD         1.6560    6.1360   15.7060 C.3   198  PRO198      0.0939
    117  N        -10.4920    2.1910   25.8180 N.3   205  TRP205     -0.1241
    118  CA       -10.9610    1.0140   25.1110 C.3   205  TRP205      0.1605
    119  C        -12.3240    0.5580   25.6140 C.2   205  TRP205      0.2264
    120  O        -12.5820    0.5100   26.8140 O.2   205  TRP205     -0.2867
    121  CB        -9.9580   -0.1320   25.2530 C.3   205  TRP205      0.0550
    122  CG        -8.8480   -0.0210   24.2870 C.ar  205  TRP205      0.0003
    123  CD1       -7.6380    0.5700   24.4840 C.ar  205  TRP205      0.0946
    124  CD2       -8.8640   -0.4660   22.9280 C.ar  205  TRP205      0.0152
    125  NE1       -6.8970    0.5180   23.3270 N.ar  205  TRP205     -0.2442
    126  CE2       -7.6290   -0.1220   22.3620 C.ar  205  TRP205      0.0810
    127  CE3       -9.8040   -1.1330   22.1390 C.ar  205  TRP205      0.0012
    128  CZ2       -7.3120   -0.4120   21.0490 C.ar  205  TRP205      0.0191
    129  CZ3       -9.4840   -1.4210   20.8360 C.ar  205  TRP205      0.0001
    130  CH2       -8.2520   -1.0620   20.3030 C.ar  205  TRP205      0.0015
@<TRIPOS>BOND
     1     4     3    2
     2     3     2    1
     3     1     2    1
     4     2     5    1
     5     5     6    1
     6     6     8   am
     7     6     7    2
     8    12    11    2
     9    21    18    1
    10    21    22    1
    11    30    27    1
    12    30    31    1
    13    27    26    1
    14    27    28    1
    15    18    19    1
    16    18    17    1
    17    11    17   am
    18    11    10    1
    19    22    23    1
    20    14    16    1
    21    14    13    1
    22    23    24    2
    23    23    25   am
    24    19    20    2
    25    28    29    2
    26    10    13    1
    27    10     9    1
    28    31    32   ar
    29    31    33   ar
    30    13    15    1
    31    32    34   ar
    32    36    37    1
    33    38    37    1
    34    38    39    2
    35    37    40    1
    36    33    35   ar
    37    34    35   ar
    38    40    41    1
    39    49    48    2
    40    42    41   ar
    41    42    44   ar
    42    67    68    1
    43    67    64    1
    44    70    68   ar
    45    70    72   ar
    46    41    43   ar
    47    68    69   ar
    48    72    73   ar
    49    44    45   ar
    50   102   100    1
    51   101   100    1
    52    43    45   ar
    53   106   105    2
    54   100    97    1
    55    63    64    1
    56    59    58    2
    57    46    47    1
    58    69    71   ar
    59    73    71   ar
    60    48    47    1
    61    62    60    1
    62    60    61    1
    63    60    57    1
    64    64    65    1
    65    56    57    1
    66   107   108    1
    67   107   104    1
    68   109   108    1
    69   109   103    1
    70    47    50    1
    71   105   104    1
    72   105   110   am
    73   116   110    1
    74   116   115    1
    75    65    66    2
    76    50    51    1
    77    57    58    1
    78   103   104    1
    79   103    98   am
    80    97    98    1
    81    97    96    1
    82   110   111    1
    83    98    99    2
    84    52    51   ar
    85    52    54   ar
    86    51    53   ar
    87   115   114    1
    88    96    91   am
    89   114   111    1
    90   111   112    1
    91    54    55   ar
    92    53    55   ar
    93    92    91    2
    94    94    93    1
    95    91    90    1
    96    87    86    1
    97    88    86    1
    98    79    78    1
    99   112   113    2
   100    86    85    1
   101    93    90    1
   102    93    95    1
   103    85    82    1
   104    90    89    1
   105    89    83   am
   106    80    78    1
   107    78    75    1
   108    83    82    1
   109    83    84    2
   110    82    81    1
   111    75    76    1
   112    75    74    1
   113   130   129   ar
   114   130   128   ar
   115    76    77    2
   116   129   127   ar
   117   128   126   ar
   118   127   124   ar
   119   126   124   ar
   120   126   125   ar
   121   124   122   ar
   122   125   123   ar
   123   122   123   ar
   124   122   121    1
   125   118   121    1
   126   118   119    1
   127   118   117    1
   128   119   120    2
