@<TRIPOS>MOLECULE
tmp/4g0kA00.pdb
 93 90 0 0 0
SMALL
GASTEIGER

@<TRIPOS>ATOM
      1  N        -64.7680   21.8090   47.5880 N.3    74  LEU74      -0.1245
      2  CA       -65.5990   22.0850   48.7150 C.3    74  LEU74       0.1561
      3  C        -66.9170   21.3330   48.6090 C.2    74  LEU74       0.2260
      4  O        -67.5020   21.0030   49.6530 O.2    74  LEU74      -0.2867
      5  CB       -65.8990   23.5580   48.8030 C.3    74  LEU74       0.0270
      6  CG       -64.6430   24.3830   48.9520 C.3    74  LEU74       0.0019
      7  CD1      -65.0000   25.8290   48.6870 C.3    74  LEU74       0.0001
      8  CD2      -64.1190   24.1690   50.3530 C.3    74  LEU74       0.0001
      9  N        -72.9720   19.0520   51.9730 N.3   166  ALA166     -0.1231
     10  CA       -73.7280   20.2490   52.3490 C.3   166  ALA166      0.1694
     11  C        -72.8480   21.5080   52.2780 C.2   166  ALA166      0.2593
     12  O        -71.6480   21.4780   52.5660 O.2   166  ALA166     -0.2718
     13  CB       -74.3350   20.1070   53.7120 C.3   166  ALA166      0.0304
     14  N        -73.4610   22.6210   51.9260 N.am  167  GLY167     -0.1942
     15  CA       -72.7020   23.8130   51.6500 C.3   167  GLY167      0.2014
     16  C        -73.4090   24.6370   50.6150 C.2   167  GLY167      0.2639
     17  O        -73.6250   24.2250   49.4390 O.2   167  GLY167     -0.2714
     18  N        -73.8320   25.8080   51.0320 N.am  168  ASP168     -0.1957
     19  CA       -74.2090   26.7790   49.9960 C.3   168  ASP168      0.1840
     20  C        -73.3320   28.0530   50.0410 C.2   168  ASP168      0.2622
     21  O        -73.4280   28.8790   50.9880 O.2   168  ASP168     -0.2715
     22  CB       -75.6660   27.1060   50.1740 C.3   168  ASP168      0.1450
     23  CG       -76.2410   27.7990   49.0480 C.2   168  ASP168      0.3671
     24  OD1      -75.4800   28.3090   48.1990 O.co2 168  ASP168     -0.2456
     25  OD2      -77.4940   27.8560   49.0480 O.co2 168  ASP168     -0.2456
     26  N        -72.5200   28.2060   48.9940 N.am  169  TYR169     -0.1974
     27  CA       -71.6770   29.3970   48.7810 C.3   169  TYR169      0.1639
     28  C        -72.3530   30.6120   48.1400 C.2   169  TYR169      0.2290
     29  O        -71.6940   31.5700   47.7580 O.2   169  TYR169     -0.2864
     30  CB       -70.4510   29.0040   47.9850 C.3   169  TYR169      0.0560
     31  CG       -69.7900   27.9230   48.7250 C.ar  169  TYR169     -0.0198
     32  CD1      -68.9200   28.2390   49.7510 C.ar  169  TYR169     -0.0009
     33  CD2      -70.1270   26.5650   48.4980 C.ar  169  TYR169     -0.0009
     34  CE1      -68.3500   27.2430   50.5250 C.ar  169  TYR169      0.0417
     35  CE2      -69.5980   25.5750   49.2590 C.ar  169  TYR169      0.0417
     36  CZ       -68.6810   25.9320   50.2760 C.ar  169  TYR169      0.1957
     37  OH       -68.0840   25.0020   51.0590 O.3   169  TYR169     -0.2866
     38  N        -64.3610   36.9690   59.5730 N.3   227  ARG227     -0.1231
     39  CA       -63.4610   35.9770   58.9850 C.3   227  ARG227      0.1694
     40  C        -63.3930   36.0920   57.4770 C.2   227  ARG227      0.2592
     41  O        -62.3160   36.0000   56.8870 O.2   227  ARG227     -0.2718
     42  CB       -63.9900   34.6010   59.2920 C.3   227  ARG227      0.0321
     43  CG       -63.0090   33.7840   59.8780 C.3   227  ARG227      0.0489
     44  CD       -62.6060   32.6820   59.0550 C.3   227  ARG227      0.2205
     45  NE       -62.9420   31.5210   59.8430 N.pl3 227  ARG227     -0.0865
     46  CZ       -62.3220   30.3350   59.8270 C.cat 227  ARG227      0.5346
     47  NH1      -61.2390   30.0550   59.0740 N.pl3 227  ARG227      0.1354
     48  NH2      -62.8300   29.4050   60.5840 N.pl3 227  ARG227      0.1354
     49  N        -64.5680   36.2720   56.8540 N.am  228  TYR228     -0.1976
     50  CA       -64.7300   36.2800   55.4050 C.3   228  TYR228      0.1639
     51  C        -65.3760   37.5520   54.9480 C.2   228  TYR228      0.2290
     52  O        -65.8610   38.3360   55.7620 O.2   228  TYR228     -0.2864
     53  CB       -65.5950   35.1400   55.0030 C.3   228  TYR228      0.0560
     54  CG       -65.0230   33.8590   55.4910 C.ar  228  TYR228     -0.0198
     55  CD1      -63.8430   33.4090   55.0070 C.ar  228  TYR228     -0.0009
     56  CD2      -65.6750   33.0790   56.4490 C.ar  228  TYR228     -0.0009
     57  CE1      -63.3050   32.2090   55.4370 C.ar  228  TYR228      0.0417
     58  CE2      -65.1380   31.9000   56.8790 C.ar  228  TYR228      0.0417
     59  CZ       -63.9560   31.4700   56.3580 C.ar  228  TYR228      0.1957
     60  OH       -63.3950   30.2890   56.7770 O.3   228  TYR228     -0.2866
     61  N        -69.0430   35.5910   58.8280 N.3   232  ASN232     -0.1225
     62  CA       -68.3260   34.3840   59.2570 C.3   232  ASN232      0.1785
     63  C        -68.6000   33.2250   58.3300 C.2   232  ASN232      0.2597
     64  O        -68.1680   32.1460   58.5970 O.2   232  ASN232     -0.2718
     65  CB       -68.7600   34.0250   60.6660 C.3   232  ASN232      0.1169
     66  CG       -70.2820   33.6090   60.7390 C.2   232  ASN232      0.2627
     67  OD1      -70.6970   32.8940   61.6500 O.2   232  ASN232     -0.2716
     68  ND2      -71.0940   34.0800   59.8010 N.am  232  ASN232     -0.0877
     69  N        -69.3530   33.4570   57.2650 N.am  233  GLN233     -0.1965
     70  CA       -69.6860   32.4120   56.3150 C.3   233  GLN233      0.1733
     71  C        -68.8370   32.6190   55.0980 C.2   233  GLN233      0.2616
     72  O        -68.7690   33.7200   54.6110 O.2   233  GLN233     -0.2715
     73  CB       -71.1650   32.5000   55.9050 C.3   233  GLN233      0.0408
     74  CG       -72.2080   32.1860   57.0640 C.3   233  GLN233      0.0908
     75  CD       -72.0150   30.7660   57.6530 C.2   233  GLN233      0.2608
     76  OE1      -72.2450   29.7550   56.9730 O.2   233  GLN233     -0.2717
     77  NE2      -71.5170   30.6930   58.8830 N.am  233  GLN233     -0.0878
     78  N        -68.1860   31.5550   54.6280 N.am  234  LEU234     -0.1977
     79  CA       -67.4530   31.5290   53.3900 C.3   234  LEU234      0.1596
     80  C        -68.3800   31.5230   52.1780 C.2   234  LEU234      0.2287
     81  O        -69.3140   30.7700   52.1380 O.2   234  LEU234     -0.2864
     82  CB       -66.5980   30.2820   53.3430 C.3   234  LEU234      0.0297
     83  CG       -65.6710   30.2070   52.1240 C.3   234  LEU234      0.0022
     84  CD1      -64.8020   31.3950   52.0600 C.3   234  LEU234      0.0001
     85  CD2      -64.8140   29.0250   52.1440 C.3   234  LEU234      0.0001
     86  N        -57.5620   25.0330   53.9280 N.3   279  MET279     -0.1245
     87  CA       -58.7410   24.2130   54.1480 C.3   279  MET279      0.1570
     88  C        -58.4860   22.8340   53.5600 C.2   279  MET279      0.2261
     89  O        -57.7250   22.6450   52.5760 O.2   279  MET279     -0.2867
     90  CB       -59.9700   24.8420   53.5530 C.3   279  MET279      0.0387
     91  CG       -60.2930   26.1570   54.1680 C.3   279  MET279      0.0595
     92  SD       -61.6680   26.8980   53.3120 S.3   279  MET279     -0.1393
     93  CE       -62.9870   25.8690   53.9150 C.3   279  MET279      0.0692
@<TRIPOS>BOND
     1     1     2    1
     2    29    28    2
     3    30    31    1
     4    30    27    1
     5    28    27    1
     6    24    23   ar
     7    33    31   ar
     8    33    35   ar
     9     3     2    1
    10     3     4    2
    11     7     6    1
    12     2     5    1
    13    31    32   ar
    14    27    26    1
    15     5     6    1
    16     6     8    1
    17    26    20   am
    18    25    23   ar
    19    23    22    1
    20    35    36   ar
    21    17    16    2
    22    32    34   ar
    23    19    20    1
    24    19    22    1
    25    19    18    1
    26    20    21    2
    27    36    34   ar
    28    36    37    1
    29    16    18   am
    30    16    15    1
    31    15    14    1
    32    14    11   am
    33     9    10    1
    34    84    83    1
    35    83    85    1
    36    83    82    1
    37    81    80    2
    38    80    79    1
    39    11    10    1
    40    11    12    2
    41    10    13    1
    42    89    88    2
    43    92    93    1
    44    92    91    1
    45    82    79    1
    46    79    78    1
    47    90    87    1
    48    90    91    1
    49    88    87    1
    50    86    87    1
    51    72    71    2
    52    78    71   am
    53    51    50    1
    54    51    52    2
    55    53    50    1
    56    53    54    1
    57    55    57   ar
    58    55    54   ar
    59    71    70    1
    60    50    49    1
    61    57    59   ar
    62    54    56   ar
    63    73    70    1
    64    73    74    1
    65    70    69    1
    66    59    60    1
    67    59    58   ar
    68    56    58   ar
    69    49    40   am
    70    41    40    2
    71    76    75    2
    72    74    75    1
    73    69    63   am
    74    40    39    1
    75    75    77   am
    76    63    64    2
    77    63    62    1
    78    61    62    1
    79    39    42    1
    80    39    38    1
    81    44    45    1
    82    44    43    1
    83    47    46    1
    84    62    65    1
    85    42    43    1
    86    68    66   am
    87    46    45    2
    88    46    48    1
    89    65    66    1
    90    66    67    2
