@<TRIPOS>MOLECULE
tmp/4g0kA02.pdb
 204 203 0 0 0
SMALL
GASTEIGER

@<TRIPOS>ATOM
      1  N        -54.7390   33.0480   20.0330 N.3     1  GLY1       -0.1210
      2  CA       -55.5760   33.8560   19.1740 C.3     1  GLY1        0.1956
      3  C        -56.7680   33.0110   18.7860 C.2     1  GLY1        0.2611
      4  O        -56.6730   31.7780   18.7660 O.2     1  GLY1       -0.2717
      5  N        -57.8670   33.6850   18.4480 N.am    2  GLN2       -0.1979
      6  CA       -59.1810   33.0720   18.3150 C.3     2  GLN2        0.1601
      7  C        -59.2880   31.7840   17.4160 C.2     2  GLN2        0.2287
      8  O        -58.2730   31.2160   16.9240 O.2     2  GLN2       -0.2864
      9  CB       -60.2300   34.1410   17.9470 C.3     2  GLN2        0.0394
     10  CG       -59.8270   35.6440   18.1580 C.3     2  GLN2        0.0908
     11  CD       -59.7560   36.1810   19.6380 C.2     2  GLN2        0.2608
     12  OE1      -60.2280   37.3040   19.9300 O.2     2  GLN2       -0.2717
     13  NE2      -59.1200   35.4110   20.5420 N.am    2  GLN2       -0.0878
     14  N        -58.1260   27.5210   13.3270 N.3     8  TRP8       -0.1241
     15  CA       -57.1800   28.0850   14.3180 C.3     8  TRP8        0.1605
     16  C        -56.3060   29.3140   13.8610 C.2     8  TRP8        0.2264
     17  O        -55.4960   29.2520   12.9010 O.2     8  TRP8       -0.2867
     18  CB       -56.2990   26.9770   14.9480 C.3     8  TRP8        0.0550
     19  CG       -55.2990   27.5300   15.9830 C.ar    8  TRP8        0.0003
     20  CD1      -53.9390   27.5880   15.8570 C.ar    8  TRP8        0.0946
     21  CD2      -55.6010   28.1240   17.2730 C.ar    8  TRP8        0.0152
     22  NE1      -53.3730   28.1480   16.9830 N.ar    8  TRP8       -0.2442
     23  CE2      -54.3660   28.4820   17.8680 C.ar    8  TRP8        0.0810
     24  CE3      -56.7910   28.3720   17.9870 C.ar    8  TRP8        0.0012
     25  CZ2      -54.2840   29.0650   19.1480 C.ar    8  TRP8        0.0191
     26  CZ3      -56.7030   28.9440   19.2530 C.ar    8  TRP8        0.0001
     27  CH2      -55.4520   29.2800   19.8220 C.ar    8  TRP8        0.0015
     28  N        -54.4780   29.5340   35.5600 N.3    62  CYS62      -0.1221
     29  CA       -55.5390   30.4990   35.3590 C.3    62  CYS62       0.1794
     30  C        -56.3210   30.6810   36.7060 C.2    62  CYS62       0.2443
     31  O        -56.5460   29.7110   37.4380 O.2    62  CYS62      -0.2733
     32  CB       -56.4190   29.8820   34.2410 C.3    62  CYS62       0.0970
     33  SG       -56.9380   28.3420   34.6220 S.3    62  CYS62      -0.0800
     34  N        -56.7120   31.9280   37.0760 N.am   63  PRO63      -0.2718
     35  CA       -57.6120   31.9700   38.2620 C.3    63  PRO63       0.1535
     36  C        -59.1400   31.7580   37.9580 C.2    63  PRO63       0.2598
     37  O        -59.8820   31.3910   38.8870 O.2    63  PRO63      -0.2715
     38  CB       -57.4030   33.3510   38.8340 C.3    63  PRO63       0.0310
     39  CG       -57.1310   34.1580   37.5350 C.3    63  PRO63       0.0237
     40  CD       -56.2290   33.2700   36.7260 C.3    63  PRO63       0.0939
     41  N        -59.5730   31.9200   36.7070 N.am   64  TRP64      -0.1974
     42  CA       -60.9410   31.5080   36.3330 C.3    64  TRP64       0.1640
     43  C        -61.1210   29.9730   36.4520 C.2    64  TRP64       0.2290
     44  O        -61.8370   29.4950   37.3110 O.2    64  TRP64      -0.2864
     45  CB       -61.3460   32.1370   35.0140 C.3    64  TRP64       0.0576
     46  CG       -61.3970   33.6560   35.2180 C.ar   64  TRP64       0.0006
     47  CD1      -62.4060   34.3980   35.8560 C.ar   64  TRP64       0.0946
     48  CD2      -60.3830   34.6050   34.8780 C.ar   64  TRP64       0.0152
     49  NE1      -62.0830   35.7460   35.8910 N.ar   64  TRP64      -0.2442
     50  CE2      -60.8500   35.9080   35.3110 C.ar   64  TRP64       0.0810
     51  CE3      -59.1490   34.4990   34.2410 C.ar   64  TRP64       0.0012
     52  CZ2      -60.1150   37.0920   35.0960 C.ar   64  TRP64       0.0191
     53  CZ3      -58.4220   35.6700   34.0120 C.ar   64  TRP64       0.0001
     54  CH2      -58.9170   36.9650   34.4410 C.ar   64  TRP64       0.0015
     55  N        -61.2230   28.5890   40.1760 N.3    67  ARG67      -0.1245
     56  CA       -62.4640   28.6590   40.8580 C.3    67  ARG67       0.1563
     57  C        -63.2790   27.3720   40.8040 C.2    67  ARG67       0.2260
     58  O        -63.8440   26.9370   41.8100 O.2    67  ARG67      -0.2867
     59  CB       -63.2670   29.7690   40.2470 C.3    67  ARG67       0.0307
     60  CG       -62.7120   31.1190   40.4810 C.3    67  ARG67       0.0489
     61  CD       -63.6340   31.9270   39.6920 C.3    67  ARG67       0.2205
     62  NE       -63.2800   33.3160   39.6120 N.pl3  67  ARG67      -0.0865
     63  CZ       -63.9340   34.1740   38.8300 C.cat  67  ARG67       0.5346
     64  NH1      -64.9760   33.7610   38.0640 N.pl3  67  ARG67       0.1354
     65  NH2      -63.5500   35.4430   38.8190 N.pl3  67  ARG67       0.1354
     66  N        -48.7850   28.5970   27.0700 N.3    90  MET90      -0.1245
     67  CA       -49.6030   28.9870   25.9680 C.3    90  MET90       0.1570
     68  C        -48.7230   29.4550   24.8540 C.2    90  MET90       0.2261
     69  O        -48.4450   30.6540   24.7270 O.2    90  MET90      -0.2867
     70  CB       -50.5160   30.1500   26.3200 C.3    90  MET90       0.0387
     71  CG       -51.8460   29.8340   26.9980 C.3    90  MET90       0.0595
     72  SD       -53.0950   30.9080   26.2730 S.3    90  MET90      -0.1393
     73  CE       -52.4950   32.5300   26.8130 C.3    90  MET90       0.0692
     74  N        -52.8300   28.5100   21.3720 N.3    94  GLY94      -0.1210
     75  CA       -53.4160   28.5460   22.7070 C.3    94  GLY94       0.1956
     76  C        -53.1870   27.3290   23.5810 C.2    94  GLY94       0.2611
     77  O        -52.1150   26.7220   23.6000 O.2    94  GLY94      -0.2717
     78  N        -54.2170   26.9310   24.3100 N.am   95  TRP95      -0.1976
     79  CA       -53.9510   25.9430   25.3550 C.3    95  TRP95       0.1640
     80  C        -53.6710   24.5950   24.7250 C.2    95  TRP95       0.2290
     81  O        -54.2210   24.2790   23.7030 O.2    95  TRP95      -0.2864
     82  CB       -55.1010   25.8710   26.3970 C.3    95  TRP95       0.0576
     83  CG       -55.3110   27.1020   27.3160 C.ar   95  TRP95       0.0006
     84  CD1      -56.2910   28.0670   27.2110 C.ar   95  TRP95       0.0946
     85  CD2      -54.5300   27.4510   28.4660 C.ar   95  TRP95       0.0152
     86  NE1      -56.1550   28.9830   28.2300 N.ar   95  TRP95      -0.2442
     87  CE2      -55.0810   28.6280   29.0050 C.ar   95  TRP95       0.0810
     88  CE3      -53.4050   26.8870   29.0810 C.ar   95  TRP95       0.0012
     89  CZ2      -54.5580   29.2370   30.1240 C.ar   95  TRP95       0.0191
     90  CZ3      -52.8960   27.4900   30.1910 C.ar   95  TRP95       0.0001
     91  CH2      -53.4670   28.6490   30.7070 C.ar   95  TRP95       0.0015
     92  N        -62.9360   33.1250   21.4980 N.3   129  ARG129     -0.1231
     93  CA       -61.7450   32.7880   22.2360 C.3   129  ARG129      0.1694
     94  C        -61.8620   31.3360   22.6350 C.2   129  ARG129      0.2592
     95  O        -62.9360   30.8130   22.6960 O.2   129  ARG129     -0.2718
     96  CB       -61.6360   33.6630   23.4710 C.3   129  ARG129      0.0321
     97  CG       -61.2620   35.1050   23.2160 C.3   129  ARG129      0.0489
     98  CD       -59.9990   35.4860   23.9910 C.3   129  ARG129      0.2205
     99  NE       -60.0500   36.8210   24.5890 N.pl3 129  ARG129     -0.0865
    100  CZ       -59.9030   37.0630   25.8890 C.cat 129  ARG129      0.5346
    101  NH1      -59.7050   36.0610   26.7300 N.pl3 129  ARG129      0.1354
    102  NH2      -59.9530   38.3040   26.3510 N.pl3 129  ARG129      0.1354
    103  N        -60.7620   30.6740   22.9140 N.am  130  VAL130     -0.1966
    104  CA       -60.8250   29.2900   23.3170 C.3   130  VAL130      0.1727
    105  C        -60.3080   29.1350   24.7180 C.2   130  VAL130      0.2617
    106  O        -59.1520   28.8930   24.9250 O.2   130  VAL130     -0.2715
    107  CB       -59.9600   28.4350   22.4390 C.3   130  VAL130      0.0290
    108  CG1      -59.4490   27.2940   23.2130 C.3   130  VAL130      0.0023
    109  CG2      -60.7140   27.9510   21.2750 C.3   130  VAL130      0.0023
    110  N        -61.1880   29.2540   25.6870 N.am  131  THR131     -0.1937
    111  CA       -60.7970   29.4240   27.0550 C.3   131  THR131      0.2028
    112  C        -60.9680   28.2150   27.9500 C.2   131  THR131      0.2642
    113  O        -61.6960   27.3100   27.6440 O.2   131  THR131     -0.2714
    114  CB       -61.5890   30.5700   27.6200 C.3   131  THR131      0.1808
    115  OG1      -62.9680   30.2660   27.5510 O.3   131  THR131     -0.2208
    116  CG2      -61.3820   31.7620   26.8010 C.3   131  THR131      0.0379
    117  N        -60.2690   28.2260   29.0670 N.am  132  VAL132     -0.1963
    118  CA       -60.6030   27.4050   30.1950 C.3   132  VAL132      0.1712
    119  C        -61.3310   28.2890   31.1810 C.2   132  VAL132      0.2458
    120  O        -61.1510   29.4610   31.1740 O.2   132  VAL132     -0.2730
    121  CB       -59.3950   26.8260   30.8650 C.3   132  VAL132      0.0289
    122  CG1      -58.8440   25.7340   30.0500 C.3   132  VAL132      0.0023
    123  CG2      -58.3870   27.8690   31.0490 C.3   132  VAL132      0.0023
    124  N        -62.1860   27.7260   32.0070 N.am  133  PRO133     -0.2727
    125  CA       -62.4410   26.3080   32.0060 C.3   133  PRO133      0.1402
    126  C        -63.5520   25.9250   31.0630 C.2   133  PRO133      0.2269
    127  O        -64.3560   26.7240   30.6870 O.2   133  PRO133     -0.2865
    128  CB       -62.8980   26.0880   33.4200 C.3   133  PRO133      0.0296
    129  CG       -63.5840   27.2740   33.7350 C.3   133  PRO133      0.0237
    130  CD       -62.7930   28.3470   33.1830 C.3   133  PRO133      0.0939
    131  N        -68.5860   27.3290   29.3310 N.3   146  ASN146     -0.1225
    132  CA       -67.2070   27.8270   29.4430 C.3   146  ASN146      0.1785
    133  C        -67.2010   29.1250   30.1950 C.2   146  ASN146      0.2597
    134  O        -66.3290   29.9470   30.0320 O.2   146  ASN146     -0.2718
    135  CB       -66.3830   27.8980   28.1060 C.3   146  ASN146      0.1169
    136  CG       -66.8280   29.0010   27.1790 C.2   146  ASN146      0.2627
    137  OD1      -67.9220   29.5710   27.2840 O.2   146  ASN146     -0.2716
    138  ND2      -66.0090   29.2300   26.1630 N.am  146  ASN146     -0.0877
    139  N        -68.1710   29.2620   31.0780 N.am  147  GLU147     -0.1965
    140  CA       -68.2380   30.4210   31.9500 C.3   147  GLU147      0.1733
    141  C        -68.0910   30.0490   33.4580 C.2   147  GLU147      0.2617
    142  O        -69.0620   29.6510   34.1310 O.2   147  GLU147     -0.2715
    143  CB       -69.5160   31.2180   31.6610 C.3   147  GLU147      0.0429
    144  CG       -69.8080   32.2940   32.6920 C.3   147  GLU147      0.1163
    145  CD       -68.7240   33.4040   32.7270 C.2   147  GLU147      0.3649
    146  OE1      -68.7260   34.1410   31.6980 O.co2 147  GLU147     -0.2457
    147  OE2      -67.9040   33.5120   33.7520 O.co2 147  GLU147     -0.2457
    148  N        -66.8840   30.2540   33.9830 N.am  148  SER148     -0.1950
    149  CA       -66.5360   29.9620   35.3730 C.3   148  SER148      0.1924
    150  C        -67.4980   30.5020   36.4420 C.2   148  SER148      0.2314
    151  O        -67.7550   29.8400   37.4130 O.2   148  SER148     -0.2863
    152  CB       -65.0890   30.3850   35.7040 C.3   148  SER148      0.2116
    153  OG       -65.0110   31.7640   35.9240 O.3   148  SER148     -0.2180
    154  N        -59.6720   41.3880   37.4920 N.3   191  ASN191     -0.1240
    155  CA       -59.4060   41.9080   36.2030 C.3   191  ASN191      0.1653
    156  C        -58.4060   43.0100   36.3270 C.2   191  ASN191      0.2266
    157  O        -57.6190   43.1780   35.3950 O.2   191  ASN191     -0.2867
    158  CB       -60.6830   42.4580   35.5570 C.3   191  ASN191      0.1155
    159  CG       -60.8000   42.0450   34.1360 C.2   191  ASN191      0.2627
    160  OD1      -61.0320   40.8600   33.8430 O.2   191  ASN191     -0.2716
    161  ND2      -60.5730   42.9890   33.2280 N.am  191  ASN191     -0.0877
    162  N        -54.7970   42.3630   35.4700 N.3   194  TYR194     -0.1241
    163  CA       -54.6170   42.1860   34.0130 C.3   194  TYR194      0.1605
    164  C        -54.5740   43.5570   33.2710 C.2   194  TYR194      0.2264
    165  O        -53.7260   43.7600   32.3810 O.2   194  TYR194     -0.2867
    166  CB       -55.6780   41.2180   33.4090 C.3   194  TYR194      0.0534
    167  CG       -55.4540   39.7570   33.7850 C.ar  194  TYR194     -0.0201
    168  CD1      -54.7700   38.9280   32.9360 C.ar  194  TYR194     -0.0009
    169  CD2      -55.8900   39.2380   34.9800 C.ar  194  TYR194     -0.0009
    170  CE1      -54.5040   37.6540   33.2290 C.ar  194  TYR194      0.0417
    171  CE2      -55.6110   37.9030   35.3210 C.ar  194  TYR194      0.0417
    172  CZ       -54.9100   37.1060   34.4110 C.ar  194  TYR194      0.1957
    173  OH       -54.5530   35.7840   34.6290 O.3   194  TYR194     -0.2866
    174  N        -51.0830   44.3940   31.3400 N.3   198  PHE198     -0.1241
    175  CA       -51.1020   44.6230   29.8950 C.3   198  PHE198      0.1605
    176  C        -51.5020   46.0390   29.5350 C.2   198  PHE198      0.2264
    177  O        -51.9040   46.2660   28.3880 O.2   198  PHE198     -0.2867
    178  CB       -52.0480   43.6440   29.1550 C.3   198  PHE198      0.0534
    179  CG       -51.6450   42.2020   29.2630 C.ar  198  PHE198     -0.0203
    180  CD1      -50.5480   41.7280   28.5740 C.ar  198  PHE198     -0.0042
    181  CD2      -52.3600   41.3250   30.0310 C.ar  198  PHE198     -0.0042
    182  CE1      -50.1520   40.4180   28.6610 C.ar  198  PHE198     -0.0003
    183  CE2      -51.9740   39.9760   30.1320 C.ar  198  PHE198     -0.0003
    184  CZ       -50.8740   39.5320   29.4590 C.ar  198  PHE198     -0.0000
    185  N        -46.7230   29.6140   33.5130 N.3   294  HIS294     -0.1241
    186  CA       -47.6940   30.1820   32.6250 C.3   294  HIS294      0.1621
    187  C        -47.4710   31.6640   32.3860 C.2   294  HIS294      0.2264
    188  O        -47.3820   32.0970   31.2560 O.2   294  HIS294     -0.2867
    189  CB       -49.1770   29.8630   33.0010 C.3   294  HIS294      0.0745
    190  CG       -50.1520   30.7260   32.2640 C.ar  294  HIS294      0.0817
    191  ND1      -50.3750   30.5950   30.9060 N.ar  294  HIS294     -0.2268
    192  CD2      -50.8900   31.7960   32.6620 C.ar  294  HIS294      0.1154
    193  CE1      -51.2330   31.5270   30.5040 C.ar  294  HIS294      0.1986
    194  NE2      -51.5480   32.2830   31.5430 N.ar  294  HIS294     -0.2212
    195  N        -46.0290   35.1590   28.3440 N.3   299  HIS299     -0.1241
    196  CA       -46.4000   36.5400   27.9820 C.3   299  HIS299      0.1621
    197  C        -45.1990   37.2720   27.4200 C.2   299  HIS299      0.2264
    198  O        -44.6600   38.1240   28.0680 O.2   299  HIS299     -0.2867
    199  CB       -46.9930   37.2770   29.1560 C.3   299  HIS299      0.0745
    200  CG       -48.2300   36.6340   29.6940 C.ar  299  HIS299      0.0817
    201  ND1      -49.4770   37.2080   29.5750 N.ar  299  HIS299     -0.2268
    202  CD2      -48.4170   35.4590   30.3380 C.ar  299  HIS299      0.1154
    203  CE1      -50.3830   36.4210   30.1220 C.ar  299  HIS299      0.1986
    204  NE2      -49.7660   35.3520   30.5940 N.ar  299  HIS299     -0.2212
@<TRIPOS>BOND
     1    17    16    2
     2    14    15    1
     3    16    15    1
     4    15    18    1
     5    18    19    1
     6    20    19   ar
     7    20    22   ar
     8    19    21   ar
     9     8     7    2
    10    22    23   ar
    11    21    23   ar
    12    21    24   ar
    13     7     6    1
    14    23    25   ar
    15     9    10    1
    16     9     6    1
    17    24    26   ar
    18    10    11    1
    19     6     5    1
    20     5     3   am
    21     4     3    2
    22     3     2    1
    23    25    27   ar
    24     2     1    1
    25    26    27   ar
    26    11    12    2
    27    11    13   am
    28   109   107    1
    29    74    75    1
    30    92    93    1
    31    93    94    1
    32    93    96    1
    33   107   108    1
    34   107   104    1
    35    94    95    2
    36    94   103   am
    37    75    76    1
    38   103   104    1
    39    97    96    1
    40    97    98    1
    41   104   105    1
    42    76    77    2
    43    76    78   am
    44    81    80    2
    45    98    99    1
    46    78    79    1
    47    99   100    2
    48   105   106    2
    49   105   110   am
    50    80    79    1
    51    69    68    2
    52    68    67    1
    53    79    82    1
    54   110   111    1
    55   100   102    1
    56   100   101    1
    57    67    70    1
    58    67    66    1
    59   138   136   am
    60    72    73    1
    61    72    71    1
    62    70    71    1
    63    82    83    1
    64   116   114    1
    65   111   114    1
    66   111   112    1
    67   136   137    2
    68   136   135    1
    69    84    83   ar
    70    84    86   ar
    71    83    85   ar
    72   197   196    1
    73   197   198    2
    74   115   114    1
    75   113   112    2
    76   112   117   am
    77   196   195    1
    78   196   199    1
    79   135   132    1
    80    86    87   ar
    81   177   176    2
    82    85    87   ar
    83    85    88   ar
    84   180   182   ar
    85   180   179   ar
    86   182   184   ar
    87    87    89   ar
    88   117   118    1
    89    88    90   ar
    90   178   179    1
    91   178   175    1
    92   199   200    1
    93   179   181   ar
    94   131   132    1
    95   132   133    1
    96   184   183   ar
    97   176   175    1
    98   201   200   ar
    99   201   203   ar
   100   200   202   ar
   101   175   174    1
   102   181   183   ar
   103   134   133    2
   104   122   121    1
   105   203   204   ar
   106    89    91   ar
   107    90    91   ar
   108   118   121    1
   109   118   119    1
   110   133   139   am
   111   202   204   ar
   112   193   191   ar
   113   193   194   ar
   114   127   126    2
   115   121   123    1
   116   191   190   ar
   117   126   125    1
   118   139   140    1
   119   120   119    2
   120   119   124   am
   121   188   187    2
   122   194   192   ar
   123   143   140    1
   124   143   144    1
   125   146   145   ar
   126   140   141    1
   127   125   124    1
   128   125   128    1
   129   124   130    1
   130   190   192   ar
   131   190   189    1
   132   165   164    2
   133   187   186    1
   134   186   189    1
   135   186   185    1
   136   144   145    1
   137   145   147   ar
   138   168   170   ar
   139   168   167   ar
   140   130   129    1
   141   161   159   am
   142   170   172   ar
   143   164   163    1
   144   166   167    1
   145   166   163    1
   146   128   129    1
   147   141   148   am
   148   141   142    2
   149   167   169   ar
   150   160   159    2
   151   148   149    1
   152    53    51   ar
   153    53    54   ar
   154   163   162    1
   155   159   158    1
   156    32    33    1
   157    32    29    1
   158    51    48   ar
   159   172   173    1
   160   172   171   ar
   161    54    52   ar
   162    48    46   ar
   163    48    50   ar
   164   169   171   ar
   165    45    46    1
   166    45    42    1
   167    52    50   ar
   168    46    47   ar
   169    50    49   ar
   170    29    28    1
   171    29    30    1
   172   149   152    1
   173   149   150    1
   174   157   156    2
   175   158   155    1
   176   152   153    1
   177    47    49   ar
   178   155   156    1
   179   155   154    1
   180    42    43    1
   181    42    41    1
   182   150   151    2
   183    43    44    2
   184    30    34   am
   185    30    31    2
   186    41    36   am
   187    40    34    1
   188    40    39    1
   189    34    35    1
   190    39    38    1
   191    36    35    1
   192    36    37    2
   193    64    63    1
   194    35    38    1
   195    65    63    1
   196    63    62    2
   197    62    61    1
   198    61    60    1
   199    55    56    1
   200    59    60    1
   201    59    56    1
   202    57    56    1
   203    57    58    2
