@<TRIPOS>MOLECULE
tmp/4g0kA01.pdb
 88 84 0 0 0
SMALL
GASTEIGER

@<TRIPOS>ATOM
      1  N        -59.5730   31.9200   36.7070 N.3    64  TRP64      -0.1241
      2  CA       -60.9410   31.5080   36.3330 C.3    64  TRP64       0.1605
      3  C        -61.1210   29.9730   36.4520 C.2    64  TRP64       0.2264
      4  O        -61.8370   29.4950   37.3110 O.2    64  TRP64      -0.2867
      5  CB       -61.3460   32.1370   35.0140 C.3    64  TRP64       0.0550
      6  CG       -61.3970   33.6560   35.2180 C.ar   64  TRP64       0.0003
      7  CD1      -62.4060   34.3980   35.8560 C.ar   64  TRP64       0.0946
      8  CD2      -60.3830   34.6050   34.8780 C.ar   64  TRP64       0.0152
      9  NE1      -62.0830   35.7460   35.8910 N.ar   64  TRP64      -0.2442
     10  CE2      -60.8500   35.9080   35.3110 C.ar   64  TRP64       0.0810
     11  CE3      -59.1490   34.4990   34.2410 C.ar   64  TRP64       0.0012
     12  CZ2      -60.1150   37.0920   35.0960 C.ar   64  TRP64       0.0191
     13  CZ3      -58.4220   35.6700   34.0120 C.ar   64  TRP64       0.0001
     14  CH2      -58.9170   36.9650   34.4410 C.ar   64  TRP64       0.0015
     15  N        -61.2230   28.5890   40.1760 N.3    67  ARG67      -0.1245
     16  CA       -62.4640   28.6590   40.8580 C.3    67  ARG67       0.1563
     17  C        -63.2790   27.3720   40.8040 C.2    67  ARG67       0.2260
     18  O        -63.8440   26.9370   41.8100 O.2    67  ARG67      -0.2867
     19  CB       -63.2670   29.7690   40.2470 C.3    67  ARG67       0.0307
     20  CG       -62.7120   31.1190   40.4810 C.3    67  ARG67       0.0489
     21  CD       -63.6340   31.9270   39.6920 C.3    67  ARG67       0.2205
     22  NE       -63.2800   33.3160   39.6120 N.pl3  67  ARG67      -0.0865
     23  CZ       -63.9340   34.1740   38.8300 C.cat  67  ARG67       0.5346
     24  NH1      -64.9760   33.7610   38.0640 N.pl3  67  ARG67       0.1354
     25  NH2      -63.5500   35.4430   38.8190 N.pl3  67  ARG67       0.1354
     26  N        -68.1710   29.2620   31.0780 N.3   147  GLU147     -0.1231
     27  CA       -68.2380   30.4210   31.9500 C.3   147  GLU147      0.1699
     28  C        -68.0910   30.0490   33.4580 C.2   147  GLU147      0.2593
     29  O        -69.0620   29.6510   34.1310 O.2   147  GLU147     -0.2718
     30  CB       -69.5160   31.2180   31.6610 C.3   147  GLU147      0.0402
     31  CG       -69.8080   32.2940   32.6920 C.3   147  GLU147      0.1161
     32  CD       -68.7240   33.4040   32.7270 C.2   147  GLU147      0.3649
     33  OE1      -68.7260   34.1410   31.6980 O.co2 147  GLU147     -0.2457
     34  OE2      -67.9040   33.5120   33.7520 O.co2 147  GLU147     -0.2457
     35  N        -66.8840   30.2540   33.9830 N.am  148  SER148     -0.1938
     36  CA       -66.5360   29.9620   35.3730 C.3   148  SER148      0.2055
     37  C        -67.4980   30.5020   36.4420 C.2   148  SER148      0.2642
     38  O        -67.7550   29.8400   37.4130 O.2   148  SER148     -0.2714
     39  CB       -65.0890   30.3850   35.7040 C.3   148  SER148      0.2130
     40  OG       -65.0110   31.7640   35.9240 O.3   148  SER148     -0.2179
     41  N        -67.9860   31.7100   36.2960 N.am  149  ALA149     -0.1977
     42  CA       -68.9020   32.2040   37.2930 C.3   149  ALA149      0.1597
     43  C        -70.1790   31.4100   37.4160 C.2   149  ALA149      0.2287
     44  O        -70.7700   31.3920   38.5010 O.2   149  ALA149     -0.2864
     45  CB       -69.2590   33.6400   37.0310 C.3   149  ALA149      0.0319
     46  N        -73.4380   39.5990   45.2010 N.3   179  ASP179     -0.1239
     47  CA       -73.4170   40.1400   43.8530 C.3   179  ASP179      0.1674
     48  C        -72.6880   41.4730   43.7630 C.2   179  ASP179      0.2266
     49  O        -71.9880   41.7240   42.7710 O.2   179  ASP179     -0.2867
     50  CB       -74.8060   40.2390   43.3340 C.3   179  ASP179      0.1410
     51  CG       -75.3410   38.8890   42.8370 C.2   179  ASP179      0.3668
     52  OD1      -74.5290   37.9860   42.4560 O.co2 179  ASP179     -0.2456
     53  OD2      -76.5970   38.7690   42.8120 O.co2 179  ASP179     -0.2456
     54  N        -68.8580   40.7640   44.1640 N.3   182  ASN182     -0.1225
     55  CA       -68.3750   40.1390   42.9220 C.3   182  ASN182      0.1785
     56  C        -68.0930   41.1910   41.8950 C.2   182  ASN182      0.2597
     57  O        -67.0510   41.1760   41.2790 O.2   182  ASN182     -0.2718
     58  CB       -69.3430   39.1220   42.3310 C.3   182  ASN182      0.1169
     59  CG       -69.2550   37.7540   42.9860 C.2   182  ASN182      0.2627
     60  OD1      -68.3240   37.4800   43.7100 O.2   182  ASN182     -0.2716
     61  ND2      -70.2230   36.8990   42.7200 N.am  182  ASN182     -0.0877
     62  N        -69.0240   42.1100   41.7340 N.am  183  GLY183     -0.1957
     63  CA       -68.9440   43.1160   40.7180 C.3   183  GLY183      0.1869
     64  C        -67.7280   43.9850   40.8320 C.2   183  GLY183      0.2309
     65  O        -66.9040   44.1100   39.8930 O.2   183  GLY183     -0.2863
     66  N        -64.4310   41.8790   40.6660 N.3   186  TYR186     -0.1241
     67  CA       -63.9860   41.3790   39.3730 C.3   186  TYR186      0.1605
     68  C        -63.4320   42.5640   38.5500 C.2   186  TYR186      0.2264
     69  O        -62.3680   42.4750   37.9230 O.2   186  TYR186     -0.2867
     70  CB       -65.0760   40.5530   38.6600 C.3   186  TYR186      0.0534
     71  CG       -64.8500   40.5710   37.2090 C.ar  186  TYR186     -0.0201
     72  CD1      -63.9410   39.6790   36.6320 C.ar  186  TYR186     -0.0009
     73  CD2      -65.4750   41.5470   36.3860 C.ar  186  TYR186     -0.0009
     74  CE1      -63.6680   39.7170   35.2600 C.ar  186  TYR186      0.0417
     75  CE2      -65.1990   41.5980   35.0260 C.ar  186  TYR186      0.0417
     76  CZ       -64.2970   40.6720   34.4720 C.ar  186  TYR186      0.1957
     77  OH       -64.0130   40.6820   33.1240 O.3   186  TYR186     -0.2866
     78  N        -63.7160   33.7550   44.7860 N.3   240  ARG240     -0.1245
     79  CA       -63.3230   34.5360   43.6180 C.3   240  ARG240      0.1563
     80  C        -62.1830   35.4840   43.9180 C.2   240  ARG240      0.2260
     81  O        -61.2390   35.5850   43.1660 O.2   240  ARG240     -0.2867
     82  CB       -64.5330   35.2570   43.0420 C.3   240  ARG240      0.0307
     83  CG       -65.4530   34.2430   42.2760 C.3   240  ARG240      0.0489
     84  CD       -66.8380   34.7820   42.0380 C.3   240  ARG240      0.2205
     85  NE       -66.6590   36.0700   41.4030 N.pl3 240  ARG240     -0.0865
     86  CZ       -67.3870   36.5500   40.4180 C.cat 240  ARG240      0.5346
     87  NH1      -68.4110   35.8680   39.9160 N.pl3 240  ARG240      0.1354
     88  NH2      -67.0640   37.7420   39.9490 N.pl3 240  ARG240      0.1354
@<TRIPOS>BOND
     1    26    27    1
     2    30    27    1
     3    30    31    1
     4    33    32   ar
     5    27    28    1
     6    31    32    1
     7    32    34   ar
     8    77    76    1
     9    28    35   am
    10    28    29    2
    11    35    36    1
    12    13    11   ar
    13    13    14   ar
    14    11     8   ar
    15    14    12   ar
    16    76    75   ar
    17    76    74   ar
    18     8     6   ar
    19     8    10   ar
    20     5     6    1
    21     5     2    1
    22    75    73   ar
    23    12    10   ar
    24     6     7   ar
    25    74    72   ar
    26    10     9   ar
    27    36    39    1
    28    36    37    1
    29    39    40    1
    30     7     9   ar
    31    41    37   am
    32    41    42    1
    33     2     3    1
    34     2     1    1
    35    73    71   ar
    36    37    38    2
    37     3     4    2
    38    72    71   ar
    39    45    42    1
    40    71    70    1
    41    42    43    1
    42    43    44    2
    43    69    68    2
    44    24    23    1
    45    68    67    1
    46    70    67    1
    47    25    23    1
    48    23    22    2
    49    67    66    1
    50    22    21    1
    51    21    20    1
    52    65    64    2
    53    87    86    1
    54    88    86    1
    55    15    16    1
    56    19    20    1
    57    19    16    1
    58    86    85    2
    59    63    64    1
    60    63    62    1
    61    17    16    1
    62    17    18    2
    63    57    56    2
    64    85    84    1
    65    62    56   am
    66    56    55    1
    67    84    83    1
    68    83    82    1
    69    58    55    1
    70    58    59    1
    71    52    51   ar
    72    61    59   am
    73    49    48    2
    74    53    51   ar
    75    51    50    1
    76    55    54    1
    77    59    60    2
    78    82    79    1
    79    81    80    2
    80    50    47    1
    81    79    80    1
    82    79    78    1
    83    48    47    1
    84    47    46    1
