@<TRIPOS>MOLECULE
tmp/4g0lA00.pdb
 174 175 0 0 0
SMALL
GASTEIGER

@<TRIPOS>ATOM
      1  N        -54.3870   34.2440   22.6040 N.3     1  GLY1       -0.1225
      2  CA       -55.0530   34.1770   21.3150 C.3     1  GLY1        0.1811
      3  C        -56.5550   34.3620   21.4180 C.2     1  GLY1        0.2280
      4  O        -57.0650   34.7930   22.4470 O.2     1  GLY1       -0.2866
      5  N        -58.8020   30.0160   15.0160 N.3     8  TRP8       -0.1241
      6  CA       -57.9100   30.5240   16.0520 C.3     8  TRP8        0.1605
      7  C        -56.9480   31.5540   15.4930 C.2     8  TRP8        0.2264
      8  O        -56.4370   31.4060   14.3860 O.2     8  TRP8       -0.2867
      9  CB       -57.1150   29.3750   16.6780 C.3     8  TRP8        0.0550
     10  CG       -56.1060   29.8060   17.7170 C.ar    8  TRP8        0.0003
     11  CD1      -54.7520   29.8600   17.5660 C.ar    8  TRP8        0.0946
     12  CD2      -56.3760   30.2300   19.0660 C.ar    8  TRP8        0.0152
     13  NE1      -54.1610   30.2890   18.7310 N.ar    8  TRP8       -0.2442
     14  CE2      -55.1340   30.5240   19.6670 C.ar    8  TRP8        0.0810
     15  CE3      -57.5450   30.3930   19.8200 C.ar    8  TRP8        0.0012
     16  CZ2      -55.0270   30.9680   20.9880 C.ar    8  TRP8        0.0191
     17  CZ3      -57.4350   30.8390   21.1310 C.ar    8  TRP8        0.0001
     18  CH2      -56.1850   31.1180   21.7000 C.ar    8  TRP8        0.0015
     19  N        -55.3770   29.6980   37.6050 N.3    62  CYS62      -0.1221
     20  CA       -56.4070   30.7070   37.3720 C.3    62  CYS62       0.1794
     21  C        -57.3180   30.9150   38.5820 C.2    62  CYS62       0.2443
     22  O        -57.9540   29.9710   39.0500 O.2    62  CYS62      -0.2733
     23  CB       -57.2320   30.3260   36.1430 C.3    62  CYS62       0.0970
     24  SG       -58.7100   31.3190   35.9130 S.3    62  CYS62      -0.0800
     25  N        -57.3930   32.1570   39.0850 N.am   63  PRO63      -0.2718
     26  CA       -58.2050   32.4230   40.2810 C.3    63  PRO63       0.1535
     27  C        -59.6970   32.1760   40.0280 C.2    63  PRO63       0.2598
     28  O        -60.4100   31.7940   40.9550 O.2    63  PRO63      -0.2715
     29  CB       -57.9300   33.9020   40.5790 C.3    63  PRO63       0.0310
     30  CG       -57.5220   34.4800   39.2630 C.3    63  PRO63       0.0237
     31  CD       -56.8170   33.3850   38.5100 C.3    63  PRO63       0.0939
     32  N        -60.1580   32.3860   38.7970 N.am   64  TRP64      -0.1974
     33  CA       -61.5500   32.0910   38.4550 C.3    64  TRP64       0.1640
     34  C        -61.8150   30.5920   38.4410 C.2    64  TRP64       0.2290
     35  O        -62.7620   30.1090   39.0640 O.2    64  TRP64      -0.2864
     36  CB       -61.9320   32.7180   37.1130 C.3    64  TRP64       0.0576
     37  CG       -62.0370   34.1990   37.2110 C.ar   64  TRP64       0.0006
     38  CD1      -63.1140   34.9260   37.6510 C.ar   64  TRP64       0.0946
     39  CD2      -61.0180   35.1440   36.8970 C.ar   64  TRP64       0.0152
     40  NE1      -62.8250   36.2700   37.6160 N.ar   64  TRP64      -0.2442
     41  CE2      -61.5440   36.4290   37.1550 C.ar   64  TRP64       0.0810
     42  CE3      -59.7150   35.0330   36.4150 C.ar   64  TRP64       0.0012
     43  CZ2      -60.8090   37.5860   36.9460 C.ar   64  TRP64       0.0191
     44  CZ3      -58.9890   36.1860   36.2020 C.ar   64  TRP64       0.0001
     45  CH2      -59.5360   37.4450   36.4690 C.ar   64  TRP64       0.0015
     46  N        -61.9700   29.0080   41.9260 N.3    67  ARG67      -0.1245
     47  CA       -63.2460   29.0600   42.6340 C.3    67  ARG67       0.1563
     48  C        -64.0090   27.7480   42.5180 C.2    67  ARG67       0.2260
     49  O        -64.5940   27.2820   43.4930 O.2    67  ARG67      -0.2867
     50  CB       -64.1350   30.1580   42.0660 C.3    67  ARG67       0.0307
     51  CG       -63.5400   31.5410   42.0640 C.3    67  ARG67       0.0489
     52  CD       -64.3710   32.4300   41.1650 C.3    67  ARG67       0.2205
     53  NE       -64.2110   33.8360   41.4830 N.pl3  67  ARG67      -0.0865
     54  CZ       -64.8700   34.8120   40.8740 C.cat  67  ARG67       0.5346
     55  NH1      -65.7330   34.5300   39.9110 N.pl3  67  ARG67       0.1354
     56  NH2      -64.6610   36.0710   41.2230 N.pl3  67  ARG67       0.1354
     57  N        -49.3280   29.4340   28.8330 N.3    90  MET90      -0.1245
     58  CA       -50.3500   29.8480   27.8910 C.3    90  MET90       0.1570
     59  C        -49.7310   30.7020   26.7910 C.2    90  MET90       0.2261
     60  O        -49.6410   31.9250   26.9170 O.2    90  MET90      -0.2867
     61  CB       -51.4530   30.6150   28.6160 C.3    90  MET90       0.0387
     62  CG       -52.6250   30.9900   27.7320 C.3    90  MET90       0.0595
     63  SD       -53.8370   31.9790   28.6110 S.3    90  MET90      -0.1393
     64  CE       -53.0440   33.5870   28.5820 C.3    90  MET90       0.0692
     65  N        -54.6580   28.1390   26.0020 N.3    95  TRP95      -0.1241
     66  CA       -54.5550   27.0060   26.9220 C.3    95  TRP95       0.1605
     67  C        -54.2980   25.7040   26.1670 C.2    95  TRP95       0.2264
     68  O        -54.9110   25.4290   25.1330 O.2    95  TRP95      -0.2867
     69  CB       -55.7830   26.8920   27.8320 C.3    95  TRP95       0.0550
     70  CG       -55.9020   28.0030   28.8450 C.ar   95  TRP95       0.0003
     71  CD1      -56.8430   28.9930   28.8690 C.ar   95  TRP95       0.0946
     72  CD2      -55.0510   28.2320   29.9760 C.ar   95  TRP95       0.0152
     73  NE1      -56.6330   29.8210   29.9430 N.ar   95  TRP95      -0.2442
     74  CE2      -55.5380   29.3790   30.6390 C.ar   95  TRP95       0.0810
     75  CE3      -53.9260   27.5790   30.4940 C.ar   95  TRP95       0.0012
     76  CZ2      -54.9380   29.8870   31.7940 C.ar   95  TRP95       0.0191
     77  CZ3      -53.3330   28.0810   31.6420 C.ar   95  TRP95       0.0001
     78  CH2      -53.8390   29.2270   32.2770 C.ar   95  TRP95       0.0015
     79  N        -63.2320   34.4860   23.4400 N.3   129  ARG129     -0.1231
     80  CA       -62.0350   34.0820   24.1560 C.3   129  ARG129      0.1694
     81  C        -62.1660   32.6420   24.6400 C.2   129  ARG129      0.2592
     82  O        -63.2430   32.2120   25.0490 O.2   129  ARG129     -0.2718
     83  CB       -61.7640   35.0450   25.3070 C.3   129  ARG129      0.0321
     84  CG       -61.7480   36.5060   24.8670 C.3   129  ARG129      0.0489
     85  CD       -60.8000   37.3380   25.7200 C.3   129  ARG129      0.2205
     86  NE       -59.4530   36.7710   25.7310 N.pl3 129  ARG129     -0.0865
     87  CZ       -58.5030   37.0700   24.8480 C.cat 129  ARG129      0.5346
     88  NH1      -58.7450   37.9420   23.8760 N.pl3 129  ARG129      0.1354
     89  NH2      -57.3070   36.4990   24.9390 N.pl3 129  ARG129      0.1354
     90  N        -61.0700   31.8970   24.5630 N.am  130  VAL130     -0.1966
     91  CA       -61.0330   30.5010   24.9900 C.3   130  VAL130      0.1727
     92  C        -60.5190   30.3840   26.4220 C.2   130  VAL130      0.2617
     93  O        -59.3130   30.2970   26.6570 O.2   130  VAL130     -0.2715
     94  CB       -60.1530   29.6610   24.0440 C.3   130  VAL130      0.0290
     95  CG1      -59.8730   28.2820   24.6230 C.3   130  VAL130      0.0023
     96  CG2      -60.8170   29.5600   22.6960 C.3   130  VAL130      0.0023
     97  N        -61.4480   30.3620   27.3740 N.am  131  THR131     -0.1937
     98  CA       -61.1040   30.5060   28.7850 C.3   131  THR131      0.2028
     99  C        -61.3450   29.2550   29.6210 C.2   131  THR131      0.2642
    100  O        -62.0780   28.3570   29.2220 O.2   131  THR131     -0.2714
    101  CB       -61.8930   31.6710   29.4120 C.3   131  THR131      0.1808
    102  OG1      -63.2960   31.4640   29.1980 O.3   131  THR131     -0.2208
    103  CG2      -61.5030   32.9880   28.7660 C.3   131  THR131      0.0379
    104  N        -60.6890   29.2060   30.7770 N.am  132  VAL132     -0.1963
    105  CA       -61.0180   28.2730   31.8460 C.3   132  VAL132      0.1712
    106  C        -61.6690   29.1150   32.9460 C.2   132  VAL132      0.2458
    107  O        -61.4220   30.3150   33.0230 O.2   132  VAL132     -0.2730
    108  CB       -59.7550   27.5920   32.4020 C.3   132  VAL132      0.0289
    109  CG1      -59.1370   26.6850   31.3600 C.3   132  VAL132      0.0023
    110  CG2      -58.7530   28.6340   32.8440 C.3   132  VAL132      0.0023
    111  N        -62.5220   28.5090   33.7860 N.am  133  PRO133     -0.2727
    112  CA       -62.9070   27.0970   33.7830 C.3   133  PRO133      0.1402
    113  C        -63.9800   26.8110   32.7440 C.2   133  PRO133      0.2269
    114  O        -64.6990   27.7250   32.3270 O.2   133  PRO133     -0.2865
    115  CB       -63.5020   26.9100   35.1800 C.3   133  PRO133      0.0296
    116  CG       -64.1190   28.2400   35.4790 C.3   133  PRO133      0.0237
    117  CD       -63.2240   29.2670   34.8420 C.3   133  PRO133      0.0939
    118  N        -69.0250   28.3240   30.9850 N.3   146  ASN146     -0.1225
    119  CA       -67.6510   28.7540   31.1970 C.3   146  ASN146      0.1785
    120  C        -67.6450   30.0540   31.9960 C.2   146  ASN146      0.2597
    121  O        -66.8620   30.9630   31.7430 O.2   146  ASN146     -0.2718
    122  CB       -66.8890   28.8800   29.8780 C.3   146  ASN146      0.1169
    123  CG       -67.3740   30.0280   29.0360 C.2   146  ASN146      0.2627
    124  OD1      -68.5200   30.4700   29.1610 O.2   146  ASN146     -0.2716
    125  ND2      -66.5040   30.5250   28.1670 N.am  146  ASN146     -0.0877
    126  N        -68.5390   30.1170   32.9760 N.am  147  GLU147     -0.1965
    127  CA       -68.6610   31.2660   33.8600 C.3   147  GLU147      0.1733
    128  C        -68.5350   30.8210   35.3290 C.2   147  GLU147      0.2617
    129  O        -69.4830   30.2880   35.9140 O.2   147  GLU147     -0.2715
    130  CB       -69.9950   31.9780   33.6030 C.3   147  GLU147      0.0429
    131  CG       -70.3030   33.1260   34.5470 C.3   147  GLU147      0.1163
    132  CD       -69.1950   34.1630   34.5800 C.2   147  GLU147      0.3649
    133  OE1      -69.0950   34.9460   33.6010 O.co2 147  GLU147     -0.2457
    134  OE2      -68.4310   34.1880   35.5840 O.co2 147  GLU147     -0.2457
    135  N        -67.3680   31.0610   35.9230 N.am  148  SER148     -0.1950
    136  CA       -67.0620   30.5690   37.2680 C.3   148  SER148      0.1924
    137  C        -68.0190   31.0390   38.3680 C.2   148  SER148      0.2314
    138  O        -68.2520   30.3190   39.3370 O.2   148  SER148     -0.2863
    139  CB       -65.6110   30.8930   37.6580 C.3   148  SER148      0.2116
    140  OG       -65.4540   32.2560   38.0240 O.3   148  SER148     -0.2180
    141  N        -55.6380   42.8470   37.6620 N.3   194  TYR194     -0.1241
    142  CA       -55.4270   42.6960   36.2160 C.3   194  TYR194      0.1605
    143  C        -55.4240   44.0450   35.5130 C.2   194  TYR194      0.2264
    144  O        -54.5850   44.3070   34.6550 O.2   194  TYR194     -0.2867
    145  CB       -56.4590   41.7560   35.5810 C.3   194  TYR194      0.0534
    146  CG       -56.1240   40.2830   35.7390 C.ar  194  TYR194     -0.0201
    147  CD1      -55.3710   39.6140   34.7860 C.ar  194  TYR194     -0.0009
    148  CD2      -56.5570   39.5680   36.8460 C.ar  194  TYR194     -0.0009
    149  CE1      -55.0630   38.2690   34.9350 C.ar  194  TYR194      0.0417
    150  CE2      -56.2510   38.2270   37.0060 C.ar  194  TYR194      0.0417
    151  CZ       -55.5050   37.5870   36.0510 C.ar  194  TYR194      0.1957
    152  OH       -55.2080   36.2580   36.2150 O.3   194  TYR194     -0.2866
    153  N        -47.3840   30.1190   35.2610 N.3   294  HIS294     -0.1226
    154  CA       -48.3260   30.6880   34.3150 C.3   294  HIS294      0.1752
    155  C        -48.1090   32.1860   34.1370 C.2   294  HIS294      0.2596
    156  O        -47.9350   32.6670   33.0180 O.2   294  HIS294     -0.2718
    157  CB       -49.7810   30.4200   34.7030 C.3   294  HIS294      0.0759
    158  CG       -50.7530   31.2870   33.9660 C.ar  294  HIS294      0.0818
    159  ND1      -51.1050   31.0600   32.6530 N.ar  294  HIS294     -0.2268
    160  CD2      -51.4060   32.4130   34.3400 C.ar  294  HIS294      0.1154
    161  CE1      -51.9480   31.9980   32.2550 C.ar  294  HIS294      0.1986
    162  NE2      -52.1460   32.8320   33.2590 N.ar  294  HIS294     -0.2212
    163  N        -48.1110   32.9220   35.2420 N.am  295  TYR295     -0.1976
    164  CA       -48.0850   34.3830   35.1640 C.3   295  TYR295      0.1639
    165  C        -46.7980   34.9640   34.5850 C.2   295  TYR295      0.2290
    166  O        -46.8440   35.8040   33.6830 O.2   295  TYR295     -0.2864
    167  CB       -48.3710   35.0060   36.5270 C.3   295  TYR295      0.0560
    168  CG       -49.8300   35.0290   36.8920 C.ar  295  TYR295     -0.0198
    169  CD1      -50.6420   36.0950   36.5170 C.ar  295  TYR295     -0.0009
    170  CD2      -50.3990   33.9970   37.6150 C.ar  295  TYR295     -0.0009
    171  CE1      -51.9830   36.1300   36.8560 C.ar  295  TYR295      0.0417
    172  CE2      -51.7490   34.0210   37.9660 C.ar  295  TYR295      0.0417
    173  CZ       -52.5350   35.0880   37.5820 C.ar  295  TYR295      0.1957
    174  OH       -53.8700   35.1150   37.9300 O.3   295  TYR295     -0.2866
@<TRIPOS>BOND
     1     8     7    2
     2     5     6    1
     3     7     6    1
     4     6     9    1
     5     9    10    1
     6    11    10   ar
     7    11    13   ar
     8    10    12   ar
     9    13    14   ar
    10    12    14   ar
    11    12    15   ar
    12    14    16   ar
    13    15    17   ar
    14    16    18   ar
    15    17    18   ar
    16     2     3    1
    17     2     1    1
    18     3     4    2
    19    96    94    1
    20    79    80    1
    21    88    87    1
    22    94    95    1
    23    94    91    1
    24    80    81    1
    25    80    83    1
    26    90    81   am
    27    90    91    1
    28    81    82    2
    29    87    89    1
    30    87    86    2
    31    84    83    1
    32    84    85    1
    33    91    92    1
    34    68    67    2
    35    85    86    1
    36    65    66    1
    37    67    66    1
    38    92    93    2
    39    92    97   am
    40    59    60    2
    41    59    58    1
    42    66    69    1
    43    97    98    1
    44    62    63    1
    45    62    61    1
    46    69    70    1
    47    58    61    1
    48    58    57    1
    49   125   123   am
    50    64    63    1
    51   103   101    1
    52    98   101    1
    53    98    99    1
    54    70    71   ar
    55    70    72   ar
    56    71    73   ar
    57   123   124    2
    58   123   122    1
    59   102   101    1
    60   100    99    2
    61    99   104   am
    62   122   119    1
    63    73    74   ar
    64    72    75   ar
    65    72    74   ar
    66    75    77   ar
    67    74    76   ar
    68   104   105    1
    69   118   119    1
    70   119   120    1
    71   109   108    1
    72    77    78   ar
    73   121   120    2
    74    76    78   ar
    75   105   108    1
    76   105   106    1
    77   120   126   am
    78   161   159   ar
    79   161   162   ar
    80   114   113    2
    81   108   110    1
    82   159   158   ar
    83   113   112    1
    84   106   107    2
    85   106   111   am
    86   126   127    1
    87   156   155    2
    88   162   160   ar
    89   133   132   ar
    90   130   127    1
    91   130   131    1
    92   166   165    2
    93   112   111    1
    94   112   115    1
    95   111   117    1
    96   127   128    1
    97   158   160   ar
    98   158   157    1
    99   155   154    1
   100   155   163   am
   101   154   157    1
   102   154   153    1
   103   131   132    1
   104   132   134   ar
   105   165   164    1
   106   144   143    2
   107   147   149   ar
   108   147   146   ar
   109   117   116    1
   110   149   151   ar
   111   164   163    1
   112   164   167    1
   113   115   116    1
   114   128   129    2
   115   128   135   am
   116   143   142    1
   117   145   146    1
   118   145   142    1
   119   146   148   ar
   120    24    23    1
   121   135   136    1
   122   151   152    1
   123   151   150   ar
   124    23    20    1
   125    44    42   ar
   126    44    45   ar
   127   142   141    1
   128    42    39   ar
   129    45    43   ar
   130   169   171   ar
   131   169   168   ar
   132   167   168    1
   133   148   150   ar
   134   171   173   ar
   135   168   170   ar
   136    39    41   ar
   137    39    37   ar
   138    43    41   ar
   139    36    37    1
   140    36    33    1
   141    41    40   ar
   142    37    38   ar
   143   136   139    1
   144   136   137    1
   145    20    19    1
   146    20    21    1
   147   173   174    1
   148   173   172   ar
   149   170   172   ar
   150    40    38   ar
   151   139   140    1
   152   137   138    2
   153    34    33    1
   154    34    35    2
   155    33    32    1
   156    31    25    1
   157    31    30    1
   158    21    22    2
   159    21    25   am
   160    32    27   am
   161    25    26    1
   162    30    29    1
   163    55    54    1
   164    27    26    1
   165    27    28    2
   166    26    29    1
   167    54    56    1
   168    54    53    2
   169    52    53    1
   170    52    51    1
   171    46    47    1
   172    51    50    1
   173    50    47    1
   174    48    47    1
   175    48    49    2
