@<TRIPOS>MOLECULE
tmp/4g0pA00.pdb
 118 111 0 0 0
SMALL
GASTEIGER

@<TRIPOS>ATOM
      1  N         23.4740   26.6230   44.4480 N.3    90  LEU90      -0.1245
      2  CA        23.8370   25.5100   43.5650 C.3    90  LEU90       0.1561
      3  C         24.9340   24.6560   44.1940 C.2    90  LEU90       0.2260
      4  O         25.8240   25.1810   44.8590 O.2    90  LEU90      -0.2867
      5  CB        24.3520   26.0000   42.2020 C.3    90  LEU90       0.0270
      6  CG        23.4730   26.8760   41.3280 C.3    90  LEU90       0.0019
      7  CD1       24.2100   27.4320   40.1130 C.3    90  LEU90       0.0001
      8  CD2       22.3090   26.0990   40.8730 C.3    90  LEU90       0.0001
      9  N         28.5330   22.9850   44.0290 N.3    92  ASP92      -0.1239
     10  CA        29.7530   23.5700   43.4790 C.3    92  ASP92       0.1674
     11  C         29.9960   23.0730   42.0500 C.2    92  ASP92       0.2266
     12  O         30.3610   23.8350   41.1450 O.2    92  ASP92      -0.2867
     13  CB        30.9580   23.2110   44.3530 C.3    92  ASP92       0.1410
     14  CG        30.8960   23.8430   45.7350 C.2    92  ASP92       0.3668
     15  OD1       30.1870   24.8700   45.9290 O.co2  92  ASP92      -0.2456
     16  OD2       31.5580   23.2860   46.6400 O.co2  92  ASP92      -0.2456
     17  N         27.8130   21.5640   39.2900 N.3    94  ASN94      -0.1225
     18  CA        26.3680   21.4210   39.0380 C.3    94  ASN94       0.1785
     19  C         26.0320   21.0380   37.6090 C.2    94  ASN94       0.2597
     20  O         24.8650   20.9010   37.2560 O.2    94  ASN94      -0.2718
     21  CB        25.5770   22.6640   39.4740 C.3    94  ASN94       0.1169
     22  CG        26.0740   23.9270   38.8170 C.2    94  ASN94       0.2627
     23  OD1       25.7390   24.2130   37.6740 O.2    94  ASN94      -0.2716
     24  ND2       26.8770   24.7000   39.5450 N.am   94  ASN94      -0.0877
     25  N         27.0570   20.7980   36.7950 N.am   95  GLY95      -0.1957
     26  CA        26.8250   20.3320   35.4290 C.3    95  GLY95       0.1869
     27  C         25.9540   21.3180   34.6600 C.2    95  GLY95       0.2309
     28  O         26.2710   22.5150   34.5780 O.2    95  GLY95      -0.2863
     29  N         23.2980   25.2310   36.0300 N.3    98  TYR98      -0.1241
     30  CA        23.4350   26.6700   35.8440 C.3    98  TYR98       0.1605
     31  C         22.7770   27.1100   34.5150 C.2    98  TYR98       0.2264
     32  O         21.9060   28.0010   34.5010 O.2    98  TYR98      -0.2867
     33  CB        24.9040   27.0850   35.9220 C.3    98  TYR98       0.0534
     34  CG        25.1590   28.5680   35.6930 C.ar   98  TYR98      -0.0201
     35  CD1       25.2810   29.0790   34.4020 C.ar   98  TYR98      -0.0009
     36  CD2       25.2470   29.4470   36.7620 C.ar   98  TYR98      -0.0009
     37  CE1       25.5210   30.4140   34.1810 C.ar   98  TYR98       0.0417
     38  CE2       25.4580   30.7950   36.5530 C.ar   98  TYR98       0.0417
     39  CZ        25.5960   31.2760   35.2450 C.ar   98  TYR98       0.1957
     40  OH        25.8080   32.6120   34.9910 O.3    98  TYR98      -0.2866
     41  N         19.4410   29.4470   33.8780 N.3   102  LYS102     -0.1245
     42  CA        19.4830   30.7570   33.2400 C.3   102  LYS102      0.1561
     43  C         18.5900   30.8670   32.0320 C.2   102  LYS102      0.2260
     44  O         18.0040   31.9050   31.8010 O.2   102  LYS102     -0.2867
     45  CB        20.9160   31.1620   32.9210 C.3   102  LYS102      0.0271
     46  CG        21.7370   31.4150   34.1780 C.3   102  LYS102      0.0035
     47  CD        21.2450   32.6420   34.9220 C.3   102  LYS102      0.0206
     48  CE        22.1060   32.8190   36.1680 C.3   102  LYS102      0.1093
     49  NZ        21.8370   34.0600   36.9320 N.3   102  LYS102     -0.1314
     50  N         20.3580   35.2680   40.7510 N.3   114  GLN114     -0.1231
     51  CA        21.7400   35.3010   41.2000 C.3   114  GLN114      0.1698
     52  C         22.0600   33.9480   41.7610 C.2   114  GLN114      0.2592
     53  O         21.4520   33.5340   42.7340 O.2   114  GLN114     -0.2718
     54  CB        21.9400   36.3690   42.2820 C.3   114  GLN114      0.0381
     55  CG        23.3840   36.4690   42.8070 C.3   114  GLN114      0.0905
     56  CD        24.3670   36.7660   41.6840 C.2   114  GLN114      0.2608
     57  OE1       24.2370   37.7710   41.0280 O.2   114  GLN114     -0.2717
     58  NE2       25.3270   35.8830   41.4550 N.am  114  GLN114     -0.0878
     59  N         23.0120   33.2430   41.1150 N.am  115  CYS115     -0.1956
     60  CA        23.4470   31.9310   41.5910 C.3   115  CYS115      0.1843
     61  C         24.5890   32.0600   42.5990 C.2   115  CYS115      0.2626
     62  O         25.4820   32.9080   42.4620 O.2   115  CYS115     -0.2714
     63  CB        23.8460   31.0300   40.4110 C.3   115  CYS115      0.0997
     64  SG        22.5130   30.6880   39.2770 S.3   115  CYS115     -0.0797
     65  N         24.5400   31.2030   43.6220 N.am  116  CYS116     -0.1954
     66  CA        25.5530   31.1450   44.6490 C.3   116  CYS116      0.1843
     67  C         25.9210   29.7000   44.9030 C.2   116  CYS116      0.2625
     68  O         25.0620   28.9260   45.1460 O.2   116  CYS116     -0.2714
     69  CB        25.0370   31.7790   45.9390 C.3   116  CYS116      0.0997
     70  SG        24.4120   33.4710   45.7350 S.3   116  CYS116     -0.0797
     71  N         27.2020   29.4640   44.8950 N.am  117  LEU117     -0.1977
     72  CA        27.7040   28.1010   45.0630 C.3   117  LEU117      0.1596
     73  C         27.8090   27.7010   46.5500 C.2   117  LEU117      0.2287
     74  O         28.1610   28.5180   47.3990 O.2   117  LEU117     -0.2864
     75  CB        29.0750   27.9430   44.4020 C.3   117  LEU117      0.0297
     76  CG        29.1960   28.0490   42.8820 C.3   117  LEU117      0.0022
     77  CD1       30.5910   27.5330   42.4660 C.3   117  LEU117      0.0001
     78  CD2       28.1150   27.3020   42.1560 C.3   117  LEU117      0.0001
     79  N         30.4890   28.9360   48.8940 N.3   120  HIS120     -0.1241
     80  CA        30.4070   30.3000   49.4210 C.3   120  HIS120      0.1621
     81  C         29.3180   30.4620   50.4560 C.2   120  HIS120      0.2264
     82  O         29.3840   31.3400   51.3080 O.2   120  HIS120     -0.2867
     83  CB        30.1370   31.3040   48.3070 C.3   120  HIS120      0.0745
     84  CG        31.1470   31.2640   47.2140 C.ar  120  HIS120      0.0817
     85  ND1       30.8100   31.0090   45.9010 N.ar  120  HIS120     -0.2268
     86  CD2       32.4930   31.4180   47.2350 C.ar  120  HIS120      0.1154
     87  CE1       31.9010   31.0210   45.1640 C.ar  120  HIS120      0.1986
     88  NE2       32.9350   31.2550   45.9480 N.ar  120  HIS120     -0.2212
     89  N         32.8100   38.2180   49.9360 N.3   128  TYR128     -0.1241
     90  CA        31.9360   37.5510   48.9810 C.3   128  TYR128      0.1605
     91  C         30.5830   38.2890   48.9090 C.2   128  TYR128      0.2264
     92  O         30.1190   38.6750   47.8180 O.2   128  TYR128     -0.2867
     93  CB        31.7440   36.0700   49.3470 C.3   128  TYR128      0.0534
     94  CG        30.6800   35.3710   48.4900 C.ar  128  TYR128     -0.0201
     95  CD1       30.9880   34.8710   47.2230 C.ar  128  TYR128     -0.0009
     96  CD2       29.3800   35.2370   48.9480 C.ar  128  TYR128     -0.0009
     97  CE1       30.0380   34.2630   46.4530 C.ar  128  TYR128      0.0417
     98  CE2       28.4090   34.6080   48.1850 C.ar  128  TYR128      0.0417
     99  CZ        28.7450   34.1300   46.9560 C.ar  128  TYR128      0.1957
    100  OH        27.7730   33.5130   46.2090 O.3   128  TYR128     -0.2866
    101  N         26.8980   42.5910   41.9250 N.3   135  LYS135     -0.1245
    102  CA        26.2720   41.8860   40.7860 C.3   135  LYS135      0.1561
    103  C         24.7500   42.0700   40.7580 C.2   135  LYS135      0.2260
    104  O         24.1760   42.4910   39.7570 O.2   135  LYS135     -0.2867
    105  CB        26.5910   40.3900   40.8250 C.3   135  LYS135      0.0271
    106  CG        28.0160   40.0140   40.4730 C.3   135  LYS135      0.0035
    107  CD        28.1340   38.5330   40.0350 C.3   135  LYS135      0.0206
    108  CE        27.5430   38.2930   38.5950 C.3   135  LYS135      0.1093
    109  NZ        28.0900   36.9750   38.0240 N.3   135  LYS135     -0.1314
    110  N         22.0930   44.0070   38.1300 N.3   139  LYS139     -0.1245
    111  CA        21.0870   43.1720   37.4890 C.3   139  LYS139      0.1561
    112  C         19.7150   43.7680   37.6290 C.2   139  LYS139      0.2260
    113  O         18.8970   43.6440   36.7290 O.2   139  LYS139     -0.2867
    114  CB        21.0680   41.7770   38.1030 C.3   139  LYS139      0.0271
    115  CG        22.0780   40.8280   37.4520 C.3   139  LYS139      0.0035
    116  CD        22.3320   39.6530   38.3640 C.3   139  LYS139      0.0206
    117  CE        23.3450   38.7640   37.7230 C.3   139  LYS139      0.1093
    118  NZ        23.5700   37.5790   38.5410 N.3   139  LYS139     -0.1314
@<TRIPOS>BOND
     1    44    43    2
     2    43    42    1
     3    45    42    1
     4    45    46    1
     5    42    41    1
     6    46    47    1
     7    37    35   ar
     8    37    39   ar
     9    35    34   ar
    10    32    31    2
    11    31    30    1
    12    28    27    2
    13    27    26    1
    14    47    48    1
    15    40    39    1
    16    39    38   ar
    17    26    25    1
    18    34    33    1
    19    34    36   ar
    20    30    33    1
    21    30    29    1
    22    48    49    1
    23    38    36   ar
    24   113   112    2
    25    25    19   am
    26    20    19    2
    27   115   114    1
    28   115   116    1
    29   111   112    1
    30   111   114    1
    31   111   110    1
    32    19    18    1
    33    23    22    2
    34   117   116    1
    35   117   118    1
    36   109   108    1
    37   108   107    1
    38    22    21    1
    39    22    24   am
    40    18    17    1
    41    18    21    1
    42    64    63    1
    43   104   103    2
    44   107   106    1
    45     7     6    1
    46    63    60    1
    47   106   105    1
    48    50    51    1
    49   103   102    1
    50   102   105    1
    51   102   101    1
    52     8     6    1
    53    57    56    2
    54    59    60    1
    55    59    52   am
    56    12    11    2
    57    51    52    1
    58    51    54    1
    59     6     5    1
    60    58    56   am
    61    60    61    1
    62    56    55    1
    63    52    53    2
    64    11    10    1
    65    78    76    1
    66     5     2    1
    67    54    55    1
    68    62    61    2
    69    77    76    1
    70    61    65   am
    71    76    75    1
    72    10     9    1
    73    10    13    1
    74     2     3    1
    75     2     1    1
    76    65    66    1
    77     3     4    2
    78    13    14    1
    79    75    72    1
    80    66    67    1
    81    66    69    1
    82    71    67   am
    83    71    72    1
    84    67    68    2
    85    72    73    1
    86    87    85   ar
    87    87    88   ar
    88    70    69    1
    89    14    15   ar
    90    14    16   ar
    91    85    84   ar
    92    88    86   ar
    93   100    99    1
    94    97    99   ar
    95    97    95   ar
    96    73    74    2
    97    99    98   ar
    98    84    86   ar
    99    84    83    1
   100    95    94   ar
   101    92    91    2
   102    98    96   ar
   103    83    80    1
   104    94    96   ar
   105    94    93    1
   106    79    80    1
   107    91    90    1
   108    90    93    1
   109    90    89    1
   110    80    81    1
   111    81    82    2
