@<TRIPOS>MOLECULE
tmp/4g0sA00.pdb
 219 206 0 0 0
SMALL
GASTEIGER

@<TRIPOS>ATOM
      1  N         -3.1720  -20.7700    0.9810 N.3     2  LEU2       -0.1245
      2  CA        -2.2870  -19.7220    0.4520 C.3     2  LEU2        0.1561
      3  C         -2.1250  -19.7570   -1.0880 C.2     2  LEU2        0.2260
      4  O         -1.7880  -20.7960   -1.6500 O.2     2  LEU2       -0.2867
      5  CB        -0.9240  -19.8750    1.1480 C.3     2  LEU2        0.0270
      6  CG        -0.1610  -18.7310    1.8190 C.3     2  LEU2        0.0019
      7  CD1       -0.7700  -18.2520    3.1450 C.3     2  LEU2        0.0001
      8  CD2        1.2640  -19.2220    2.0610 C.3     2  LEU2        0.0001
      9  N         -0.0050  -19.4010   -3.5780 N.3     4  VAL4       -0.1231
     10  CA         1.3640  -19.3020   -4.0980 C.3     4  VAL4        0.1692
     11  C          1.9200  -20.6400   -4.6080 C.2     4  VAL4        0.2592
     12  O          1.7220  -21.6950   -3.9810 O.2     4  VAL4       -0.2718
     13  CB         2.3410  -18.5770   -3.1190 C.3     4  VAL4        0.0266
     14  CG1        2.3070  -19.1840   -1.7150 C.3     4  VAL4        0.0020
     15  CG2        3.7570  -18.5750   -3.6810 C.3     4  VAL4        0.0020
     16  N          2.6180  -20.5680   -5.7500 N.am    5  GLU5       -0.1966
     17  CA         3.1710  -21.7490   -6.4270 C.3     5  GLU5        0.1733
     18  C          4.5130  -22.1830   -5.8130 C.2     5  GLU5        0.2616
     19  O          5.1390  -21.4140   -5.0590 O.2     5  GLU5       -0.2715
     20  CB         3.2380  -21.5220   -7.9570 C.3     5  GLU5        0.0429
     21  CG         3.0330  -22.7730   -8.8270 C.3     5  GLU5        0.1163
     22  CD         2.4460  -23.9680   -8.0640 C.2     5  GLU5        0.3649
     23  OE1        1.2270  -23.9860   -7.7920 O.co2   5  GLU5       -0.2457
     24  OE2        3.2160  -24.9010   -7.7440 O.co2   5  GLU5       -0.2457
     25  N          4.9380  -23.4150   -6.1170 N.am    6  LYS6       -0.1963
     26  CA         6.0520  -24.0610   -5.4200 C.3     6  LYS6        0.1728
     27  C          7.4560  -23.6740   -5.9210 C.2     6  LYS6        0.2616
     28  O          7.7230  -23.7140   -7.1140 O.2     6  LYS6       -0.2715
     29  CB         5.8560  -25.5910   -5.4090 C.3     6  LYS6        0.0311
     30  CG         4.8430  -26.0690   -4.3590 C.3     6  LYS6        0.0038
     31  CD         4.3340  -27.4840   -4.6020 C.3     6  LYS6        0.0206
     32  CE         5.1310  -28.5000   -3.8100 C.3     6  LYS6        0.1093
     33  NZ         4.2980  -29.6940   -3.4890 N.3     6  LYS6       -0.1314
     34  N          8.3450  -23.3170   -4.9900 N.am    7  CYS7       -0.1968
     35  CA         9.7150  -22.9030   -5.3180 C.3     7  CYS7        0.1712
     36  C         10.7820  -23.9680   -4.9920 C.2     7  CYS7        0.2296
     37  O         10.5120  -24.9370   -4.2820 O.2     7  CYS7       -0.2864
     38  CB        10.0810  -21.6160   -4.5430 C.3     7  CYS7        0.0983
     39  SG         9.1310  -20.1160   -4.9160 S.3     7  CYS7       -0.0798
     40  N         13.7450  -23.9720   -2.6030 N.3     9  LEU9       -0.1245
     41  CA        13.9820  -23.1530   -1.4060 C.3     9  LEU9        0.1561
     42  C         15.1760  -22.2180   -1.5220 C.2     9  LEU9        0.2260
     43  O         15.1680  -21.1430   -0.9470 O.2     9  LEU9       -0.2867
     44  CB        14.0670  -24.0190   -0.1320 C.3     9  LEU9        0.0270
     45  CG        12.7710  -24.7480    0.2740 C.3     9  LEU9        0.0019
     46  CD1       12.9720  -25.6390    1.4880 C.3     9  LEU9        0.0001
     47  CD2       11.5430  -23.8310    0.4420 C.3     9  LEU9        0.0001
     48  N         11.3670  -17.3020   -4.1350 N.3    15  MET15      -0.1245
     49  CA        11.0120  -17.2020   -2.7050 C.3    15  MET15       0.1570
     50  C         10.5430  -15.8060   -2.2780 C.2    15  MET15       0.2261
     51  O          9.5520  -15.6810   -1.5330 O.2    15  MET15      -0.2867
     52  CB        12.1650  -17.7100   -1.8230 C.3    15  MET15       0.0387
     53  CG        12.4400  -19.2040   -1.9450 C.3    15  MET15       0.0595
     54  SD        11.1440  -20.3550   -1.4240 S.3    15  MET15      -0.1393
     55  CE        10.5010  -19.5100    0.0390 C.3    15  MET15       0.0692
     56  N          7.1890  -15.2470   -3.7940 N.3    18  ALA18      -0.1231
     57  CA         6.1920  -16.1080   -3.1250 C.3    18  ALA18       0.1694
     58  C          5.8150  -15.5180   -1.7750 C.2    18  ALA18       0.2592
     59  O          4.6460  -15.4770   -1.4060 O.2    18  ALA18      -0.2718
     60  CB         6.7360  -17.5230   -2.9420 C.3    18  ALA18       0.0304
     61  N          6.8160  -15.0860   -1.0190 N.am   19  PHE19      -0.1976
     62  CA         6.5500  -14.3430    0.2110 C.3    19  PHE19       0.1639
     63  C          5.6880  -13.1460   -0.1400 C.2    19  PHE19       0.2290
     64  O          4.7150  -12.8650    0.5390 O.2    19  PHE19      -0.2864
     65  CB         7.8410  -13.8030    0.7870 C.3    19  PHE19       0.0560
     66  CG         8.5310  -14.7200    1.7280 C.ar   19  PHE19      -0.0200
     67  CD1        8.8290  -16.0430    1.3790 C.ar   19  PHE19      -0.0042
     68  CD2        8.9600  -14.2400    2.9630 C.ar   19  PHE19      -0.0042
     69  CE1        9.5160  -16.8770    2.2610 C.ar   19  PHE19      -0.0003
     70  CE2        9.6390  -15.0670    3.8520 C.ar   19  PHE19      -0.0003
     71  CZ         9.9210  -16.3850    3.4960 C.ar   19  PHE19      -0.0000
     72  N          2.0660  -14.0680   -0.9250 N.3    22  ALA22      -0.1231
     73  CA         1.3900  -14.8050    0.1480 C.3    22  ALA22       0.1694
     74  C          1.0220  -13.9190    1.3270 C.2    22  ALA22       0.2591
     75  O          0.1020  -14.2460    2.0790 O.2    22  ALA22      -0.2718
     76  CB         2.2360  -15.9970    0.6120 C.3    22  ALA22       0.0304
     77  N          1.7310  -12.7920    1.4700 N.am   23  LEU23      -0.1980
     78  CA         1.5640  -11.8760    2.6150 C.3    23  LEU23       0.1596
     79  C          0.1220  -11.4720    2.9700 C.2    23  LEU23       0.2287
     80  O         -0.3030  -11.7070    4.0720 O.2    23  LEU23      -0.2864
     81  CB         2.4860  -10.6440    2.4720 C.3    23  LEU23       0.0297
     82  CG         2.8510   -9.7870    3.7000 C.3    23  LEU23       0.0022
     83  CD1        3.0270  -10.6450    4.9460 C.3    23  LEU23       0.0001
     84  CD2        4.1100   -8.9750    3.4500 C.3    23  LEU23       0.0001
     85  N         -1.6940  -14.2900    4.5400 N.3    26  PHE26      -0.1227
     86  CA        -1.0350  -14.8020    5.7260 C.3    26  PHE26       0.1736
     87  C         -1.3540  -13.8600    6.9160 C.2    26  PHE26       0.2595
     88  O         -1.8220  -14.3120    7.9730 O.2    26  PHE26      -0.2718
     89  CB         0.4730  -14.9210    5.4660 C.3    26  PHE26       0.0547
     90  CG         1.2690  -15.4180    6.6580 C.ar   26  PHE26      -0.0202
     91  CD1        1.5120  -16.7680    6.8290 C.ar   26  PHE26      -0.0042
     92  CD2        1.8040  -14.5270    7.5880 C.ar   26  PHE26      -0.0042
     93  CE1        2.2560  -17.2330    7.8970 C.ar   26  PHE26      -0.0003
     94  CE2        2.5420  -14.9850    8.6810 C.ar   26  PHE26      -0.0003
     95  CZ         2.7540  -16.3400    8.8400 C.ar   26  PHE26      -0.0000
     96  N         -1.1660  -12.5570    6.6990 N.am   27  VAL27      -0.1980
     97  CA        -1.3650  -11.5480    7.7400 C.3    27  VAL27       0.1595
     98  C         -2.8340  -11.2060    7.9900 C.2    27  VAL27       0.2287
     99  O         -3.1340  -10.4210    8.8900 O.2    27  VAL27      -0.2864
    100  CB        -0.5810  -10.2300    7.4710 C.3    27  VAL27       0.0276
    101  CG1        0.9230  -10.4770    7.5100 C.3    27  VAL27       0.0022
    102  CG2       -1.0440   -9.5460    6.1810 C.3    27  VAL27       0.0022
    103  N         -2.0560  -10.4830   11.7660 N.3    38  MET38      -0.1245
    104  CA        -0.8100   -9.7730   11.9220 C.3    38  MET38       0.1570
    105  C         -0.8280   -8.3500   11.4120 C.2    38  MET38       0.2261
    106  O          0.2140   -7.6570   11.3830 O.2    38  MET38      -0.2867
    107  CB         0.2790  -10.5940   11.3130 C.3    38  MET38       0.0387
    108  CG         0.4050  -11.8940   12.0740 C.3    38  MET38       0.0595
    109  SD         2.0010  -12.4910   11.6450 S.3    38  MET38      -0.1393
    110  CE         1.4350  -13.7870   10.5600 C.3    38  MET38       0.0692
    111  N          1.9960   -3.9890    8.2750 N.3    65  LEU65      -0.1245
    112  CA         2.5780   -5.2830    7.8090 C.3    65  LEU65       0.1561
    113  C          1.8550   -5.9330    6.6290 C.2    65  LEU65       0.2260
    114  O          2.4810   -6.6450    5.8450 O.2    65  LEU65      -0.2867
    115  CB         2.6110   -6.3090    8.9510 C.3    65  LEU65       0.0270
    116  CG         3.8310   -7.2220    9.0040 C.3    65  LEU65       0.0019
    117  CD1        4.9990   -6.4500    9.5890 C.3    65  LEU65       0.0001
    118  CD2        3.6130   -8.5190    9.7820 C.3    65  LEU65       0.0001
    119  N          3.7430   -4.3870    3.7360 N.3    68  ALA68      -0.1245
    120  CA         5.2030   -4.5640    3.6510 C.3    68  ALA68       0.1562
    121  C          5.6910   -5.0210    2.2740 C.2    68  ALA68       0.2260
    122  O          4.9990   -5.7710    1.5940 O.2    68  ALA68      -0.2867
    123  CB         5.6870   -5.5320    4.7280 C.3    68  ALA68       0.0290
    124  N          8.6130   -7.1800    0.4660 N.3    70  ILE70      -0.1245
    125  CA         9.7360   -8.1260    0.5630 C.3    70  ILE70       0.1561
    126  C         10.8500   -7.8280   -0.4680 C.2    70  ILE70       0.2260
    127  O         10.6310   -7.8240   -1.6890 O.2    70  ILE70      -0.2867
    128  CB         9.3030   -9.6160    0.4490 C.3    70  ILE70       0.0252
    129  CG1        7.9030   -9.8990    1.0590 C.3    70  ILE70       0.0019
    130  CG2       10.4080  -10.5510    0.9770 C.3    70  ILE70       0.0019
    131  CD1        7.7350   -9.6930    2.5620 C.3    70  ILE70       0.0001
    132  N         17.2040  -18.4500    1.6250 N.3    75  TRP75      -0.1241
    133  CA        17.1390  -19.7050    2.3330 C.3    75  TRP75       0.1605
    134  C         18.3510  -20.5100    2.0340 C.2    75  TRP75       0.2264
    135  O         18.6740  -20.7740    0.8760 O.2    75  TRP75      -0.2867
    136  CB        15.8980  -20.4430    1.9180 C.3    75  TRP75       0.0550
    137  CG        15.4090  -21.4700    2.9120 C.ar   75  TRP75       0.0003
    138  CD1       16.1210  -22.5390    3.4690 C.ar   75  TRP75       0.0946
    139  CD2       14.0390  -21.6070    3.4230 C.ar   75  TRP75       0.0152
    140  NE1       15.3110  -23.2860    4.2940 N.ar   75  TRP75      -0.2442
    141  CE2       14.0510  -22.7920    4.3140 C.ar   75  TRP75       0.0810
    142  CE3       12.8610  -20.8770    3.2740 C.ar   75  TRP75       0.0012
    143  CZ2       12.9280  -23.1950    5.0140 C.ar   75  TRP75       0.0191
    144  CZ3       11.7290  -21.3000    3.9800 C.ar   75  TRP75       0.0001
    145  CH2       11.7640  -22.4350    4.8300 C.ar   75  TRP75       0.0015
    146  N         15.7460  -12.9130    5.7320 N.3    84  VAL84      -0.1245
    147  CA        14.6140  -12.2060    5.1540 C.3    84  VAL84       0.1561
    148  C         14.7630  -10.6850    5.3170 C.2    84  VAL84       0.2260
    149  O         14.7540  -10.1480    6.4570 O.2    84  VAL84      -0.2867
    150  CB        13.2530  -12.7040    5.7220 C.3    84  VAL84       0.0252
    151  CG1       12.0840  -11.9580    5.0930 C.3    84  VAL84       0.0019
    152  CG2       13.0630  -14.1920    5.4570 C.3    84  VAL84       0.0019
    153  N         13.1220   -6.9540    4.2020 N.3    86  PHE86      -0.1241
    154  CA        11.8950   -6.2870    3.7960 C.3    86  PHE86       0.1605
    155  C         11.8730   -4.8510    4.2780 C.2    86  PHE86       0.2264
    156  O         12.8700   -4.3860    4.8300 O.2    86  PHE86      -0.2867
    157  CB        10.6250   -7.0760    4.1980 C.3    86  PHE86       0.0534
    158  CG        10.3610   -7.1710    5.6930 C.ar   86  PHE86      -0.0203
    159  CD1        9.3540   -6.4210    6.2840 C.ar   86  PHE86      -0.0042
    160  CD2       11.0430   -8.0800    6.4790 C.ar   86  PHE86      -0.0042
    161  CE1        9.0660   -6.5410    7.6470 C.ar   86  PHE86      -0.0003
    162  CE2       10.7720   -8.2010    7.8510 C.ar   86  PHE86      -0.0003
    163  CZ         9.7820   -7.4210    8.4360 C.ar   86  PHE86      -0.0000
    164  N         15.9180   -9.8050    8.9950 N.3   124  LEU124     -0.1245
    165  CA        15.5600  -10.9370    9.8520 C.3   124  LEU124      0.1561
    166  C         16.3240  -12.2100    9.4620 C.2   124  LEU124      0.2260
    167  O         16.3160  -12.6170    8.2890 O.2   124  LEU124     -0.2867
    168  CB        14.0490  -11.1890    9.8380 C.3   124  LEU124      0.0270
    169  CG        13.5560  -12.4140   10.6170 C.3   124  LEU124      0.0019
    170  CD1       13.5570  -12.1590   12.1150 C.3   124  LEU124      0.0001
    171  CD2       12.1730  -12.8180   10.1190 C.3   124  LEU124      0.0001
    172  N          5.8380  -11.9700   15.3480 N.3   200  ILE200     -0.1245
    173  CA         6.0810  -12.4230   13.9110 C.3   200  ILE200      0.1561
    174  C          6.8490  -13.7670   13.6800 C.2   200  ILE200      0.2260
    175  O          6.3670  -14.6460   12.9470 O.2   200  ILE200     -0.2867
    176  CB         6.7950  -11.3150   13.1140 C.3   200  ILE200      0.0252
    177  CG1        5.8560  -10.1270   12.8660 C.3   200  ILE200      0.0019
    178  CG2        7.4270  -11.7900   11.8040 C.3   200  ILE200      0.0019
    179  CD1        6.5930   -8.7960   12.9600 C.3   200  ILE200      0.0001
    180  N          4.9960  -17.2910   12.1830 N.3   204  ILE204     -0.1245
    181  CA         5.5990  -18.0880   11.1010 C.3   204  ILE204      0.1561
    182  C          5.9300  -19.5180   11.5740 C.2   204  ILE204      0.2260
    183  O          5.6070  -20.5160   10.9190 O.2   204  ILE204     -0.2867
    184  CB         6.8610  -17.4180   10.5280 C.3   204  ILE204      0.0252
    185  CG1        6.5820  -15.9580   10.1000 C.3   204  ILE204      0.0019
    186  CG2        7.3560  -18.1910    9.3130 C.3   204  ILE204      0.0019
    187  CD1        7.8450  -15.1370    9.9190 C.3   204  ILE204      0.0001
    188  N          2.8560  -21.7170   11.7130 N.3   207  PHE207     -0.1227
    189  CA         2.4950  -22.0620   10.3510 C.3   207  PHE207      0.1736
    190  C          3.2570  -23.3040    9.9310 C.2   207  PHE207      0.2595
    191  O          2.6680  -24.3440    9.7350 O.2   207  PHE207     -0.2718
    192  CB         2.7960  -20.8930    9.4070 C.3   207  PHE207      0.0547
    193  CG         2.3340  -21.1440    8.0250 C.ar  207  PHE207     -0.0202
    194  CD1        0.9730  -21.2350    7.7460 C.ar  207  PHE207     -0.0042
    195  CD2        3.2480  -21.3950    7.0030 C.ar  207  PHE207     -0.0042
    196  CE1        0.5130  -21.5420    6.4520 C.ar  207  PHE207     -0.0003
    197  CE2        2.7990  -21.6790    5.7040 C.ar  207  PHE207     -0.0003
    198  CZ         1.4210  -21.7630    5.4360 C.ar  207  PHE207     -0.0000
    199  N          4.5800  -23.1880    9.8740 N.am  208  LEU208     -0.1980
    200  CA         5.4480  -24.2470    9.3670 C.3   208  LEU208      0.1596
    201  C          5.6180  -25.4570   10.2820 C.2   208  LEU208      0.2287
    202  O          6.1630  -26.4490    9.8320 O.2   208  LEU208     -0.2864
    203  CB         6.8380  -23.6710    9.0260 C.3   208  LEU208      0.0297
    204  CG         6.8660  -22.4260    8.1510 C.3   208  LEU208      0.0022
    205  CD1        8.1360  -21.6480    8.4150 C.3   208  LEU208      0.0001
    206  CD2        6.6780  -22.7650    6.6670 C.3   208  LEU208      0.0001
    207  N          4.7830  -27.5870    0.8560 N.3   216  ILE216     -0.1231
    208  CA         5.0530  -26.2480    0.3010 C.3   216  ILE216      0.1692
    209  C          6.4280  -26.0910   -0.3610 C.2   216  ILE216      0.2591
    210  O          6.7500  -25.0260   -0.8620 O.2   216  ILE216     -0.2718
    211  CB         4.7790  -25.1070    1.3300 C.3   216  ILE216      0.0266
    212  CG1        5.6660  -25.2480    2.5810 C.3   216  ILE216      0.0019
    213  CG2        3.2920  -25.0540    1.6990 C.3   216  ILE216      0.0020
    214  CD1        5.4450  -24.1540    3.5980 C.3   216  ILE216      0.0001
    215  N          7.2400  -27.1380   -0.3880 N.am  217  ALA217     -0.1980
    216  CA         8.5210  -27.0310   -1.0900 C.3   217  ALA217      0.1597
    217  C          8.7090  -28.1200   -2.1420 C.2   217  ALA217      0.2287
    218  O          7.9660  -29.1090   -2.1590 O.2   217  ALA217     -0.2864
    219  CB         9.6700  -27.0390   -0.0980 C.3   217  ALA217      0.0319
@<TRIPOS>BOND
     1    21    22    1
     2    21    20    1
     3    22    23   ar
     4    22    24   ar
     5    20    17    1
     6    28    27    2
     7    17    18    1
     8    17    16    1
     9    25    18   am
    10    25    26    1
    11    27    26    1
    12    27    34   am
    13    18    19    2
    14    16    11   am
    15    26    29    1
    16    29    30    1
    17    35    36    1
    18    35    34    1
    19    35    38    1
    20    36    37    2
    21    39    38    1
    22    11    10    1
    23    11    12    2
    24    31    30    1
    25    31    32    1
    26    48    49    1
    27    10     9    1
    28    10    13    1
    29    32    33    1
    30    56    57    1
    31    15    13    1
    32    57    60    1
    33    57    58    1
    34    13    14    1
    35    49    50    1
    36    49    52    1
    37    40    41    1
    38    50    51    2
    39   218   217    2
    40   217   216    1
    41    53    52    1
    42    53    54    1
    43    58    59    2
    44    58    61   am
    45   127   126    2
    46     4     3    2
    47    42    41    1
    48    42    43    2
    49    54    55    1
    50    41    44    1
    51   216   215    1
    52   216   219    1
    53     3     2    1
    54    61    62    1
    55    72    73    1
    56   210   209    2
    57   126   125    1
    58   215   209   am
    59   209   208    1
    60    63    62    1
    61    63    64    2
    62    44    45    1
    63    73    76    1
    64    73    74    1
    65    62    65    1
    66    45    47    1
    67    45    46    1
    68   208   207    1
    69   208   211    1
    70   128   125    1
    71   128   130    1
    72   128   129    1
    73     2     1    1
    74     2     5    1
    75   124   125    1
    76    65    66    1
    77   135   134    2
    78   129   131    1
    79     5     6    1
    80    74    77   am
    81    74    75    2
    82   211   213    1
    83   211   212    1
    84    67    66   ar
    85    67    69   ar
    86    77    78    1
    87   122   121    2
    88   132   133    1
    89    66    68   ar
    90     6     8    1
    91     6     7    1
    92   136   133    1
    93   136   137    1
    94   134   133    1
    95    69    71   ar
    96   121   120    1
    97    81    78    1
    98    81    82    1
    99   212   214    1
   100    78    79    1
   101   137   139   ar
   102   137   138   ar
   103    68    70   ar
   104    79    80    2
   105   142   139   ar
   106   142   144   ar
   107   139   141   ar
   108    84    82    1
   109   138   140   ar
   110    71    70   ar
   111   120   119    1
   112   120   123    1
   113    82    83    1
   114   154   157    1
   115   154   153    1
   116   154   155    1
   117   144   145   ar
   118   157   158    1
   119   155   156    2
   120   140   141   ar
   121   141   143   ar
   122    85    86    1
   123   145   143   ar
   124   151   150    1
   125   147   148    1
   126   147   150    1
   127   147   146    1
   128   148   149    2
   129   198   197   ar
   130   198   196   ar
   131   152   150    1
   132    89    86    1
   133    89    90    1
   134   158   159   ar
   135   158   160   ar
   136   197   195   ar
   137    86    87    1
   138   114   113    2
   139   102   100    1
   140   159   161   ar
   141   196   194   ar
   142   160   162   ar
   143   113   112    1
   144    90    91   ar
   145    90    92   ar
   146   206   204    1
   147    96    87   am
   148    96    97    1
   149    91    93   ar
   150    87    88    2
   151   195   193   ar
   152   100   101    1
   153   100    97    1
   154    92    94   ar
   155   161   163   ar
   156    97    98    1
   157   194   193   ar
   158   112   111    1
   159   112   115    1
   160   162   163   ar
   161    93    95   ar
   162    98    99    2
   163   193   192    1
   164   204   205    1
   165   204   203    1
   166   167   166    2
   167    94    95   ar
   168   115   116    1
   169   164   165    1
   170   116   117    1
   171   116   118    1
   172   203   200    1
   173   186   184    1
   174   200   199    1
   175   200   201    1
   176   192   189    1
   177   166   165    1
   178   191   190    2
   179   202   201    2
   180   168   165    1
   181   168   169    1
   182   199   190   am
   183   187   185    1
   184   190   189    1
   185   185   184    1
   186   171   169    1
   187   189   188    1
   188   184   181    1
   189   110   109    1
   190   169   170    1
   191   183   182    2
   192   181   182    1
   193   181   180    1
   194   107   104    1
   195   107   108    1
   196   106   105    2
   197   105   104    1
   198   109   108    1
   199   103   104    1
   200   178   176    1
   201   177   179    1
   202   177   176    1
   203   175   174    2
   204   176   173    1
   205   174   173    1
   206   173   172    1
