@<TRIPOS>MOLECULE
tmp/4g0uB00.pdb
 78 74 0 0 0
SMALL
GASTEIGER

@<TRIPOS>ATOM
      1  N         23.5320   90.8760   36.8930 N.3     2  ILE2       -0.1231
      2  CA        23.0350   91.5470   35.6940 C.3     2  ILE2        0.1678
      3  C         21.5840   91.9930   35.8880 C.2     2  ILE2        0.2434
      4  O         20.9370   91.5670   36.8550 O.2     2  ILE2       -0.2733
      5  CB        23.1550   90.6330   34.4530 C.3     2  ILE2        0.0265
      6  CG1       22.5760   89.2530   34.7420 C.3     2  ILE2        0.0019
      7  CG2       24.6040   90.5080   34.0190 C.3     2  ILE2        0.0020
      8  CD1       22.4570   88.3930   33.5030 C.3     2  ILE2        0.0001
      9  N         21.0820   92.8870   34.9990 N.am    3  PRO3       -0.2729
     10  CA        19.6600   93.2660   35.0250 C.3     3  PRO3        0.1401
     11  C         18.7280   92.0510   34.9260 C.2     3  PRO3        0.2269
     12  O         18.9980   91.1100   34.1600 O.2     3  PRO3       -0.2865
     13  CB        19.5260   94.1540   33.7940 C.3     3  PRO3        0.0296
     14  CG        20.8490   94.8210   33.6950 C.3     3  PRO3        0.0237
     15  CD        21.8620   93.8010   34.1390 C.3     3  PRO3        0.0939
     16  N         20.2430  100.2780   32.4770 N.3    51  ARG51      -0.1231
     17  CA        21.1150  100.8790   33.4720 C.3    51  ARG51       0.1694
     18  C         21.9030  102.0780   32.9920 C.2    51  ARG51       0.2593
     19  O         22.7320  102.6050   33.7330 O.2    51  ARG51      -0.2718
     20  CB        22.0400   99.8340   34.0850 C.3    51  ARG51       0.0321
     21  CG        21.3870   99.1730   35.2740 C.3    51  ARG51       0.0489
     22  CD        22.1360   97.9850   35.7560 C.3    51  ARG51       0.2205
     23  NE        21.3070   97.2220   36.6720 N.pl3  51  ARG51      -0.0865
     24  CZ        21.6880   96.0820   37.2270 C.cat  51  ARG51       0.5346
     25  NH1       22.8870   95.5920   36.9550 N.pl3  51  ARG51       0.1354
     26  NH2       20.8770   95.4450   38.0560 N.pl3  51  ARG51       0.1354
     27  N         21.6240  102.5260   31.7720 N.am   52  GLY52      -0.1942
     28  CA        22.2540  103.7270   31.2520 C.3    52  GLY52       0.2014
     29  C         22.0760  103.8240   29.7560 C.2    52  GLY52       0.2639
     30  O         21.2240  103.1310   29.1910 O.2    52  GLY52      -0.2714
     31  N         22.8830  104.6680   29.1140 N.am   53  LYS53      -0.1963
     32  CA        22.8120  104.8380   27.6650 C.3    53  LYS53       0.1728
     33  C         23.0980  103.5100   26.9800 C.2    53  LYS53       0.2616
     34  O         23.9030  102.7200   27.4590 O.2    53  LYS53      -0.2715
     35  CB        23.7780  105.9260   27.1690 C.3    53  LYS53       0.0311
     36  CG        23.5710  107.2870   27.7770 C.3    53  LYS53       0.0038
     37  CD        22.1160  107.7020   27.6980 C.3    53  LYS53       0.0206
     38  CE        21.8530  108.9880   28.4440 C.3    53  LYS53       0.1093
     39  NZ        22.6120  110.1350   27.8730 N.3    53  LYS53      -0.1314
     40  N         22.4170  103.2610   25.8670 N.am   54  ILE54      -0.1977
     41  CA        22.5420  101.9870   25.1970 C.3    54  ILE54       0.1596
     42  C         23.1110  102.1930   23.8030 C.2    54  ILE54       0.2287
     43  O         23.2860  103.3240   23.3600 O.2    54  ILE54      -0.2864
     44  CB        21.2000  101.2460   25.0960 C.3    54  ILE54       0.0276
     45  CG1       20.2730  101.9690   24.1170 C.3    54  ILE54       0.0022
     46  CG2       20.5680  101.0580   26.4850 C.3    54  ILE54       0.0022
     47  CD1       18.9530  101.3100   23.9330 C.3    54  ILE54       0.0001
     48  N         24.5560   93.5210   25.5520 N.3    69  ALA69      -0.1231
     49  CA        23.6470   92.9800   26.5630 C.3    69  ALA69       0.1694
     50  C         22.2110   93.4770   26.4530 C.2    69  ALA69       0.2591
     51  O         21.2790   92.6690   26.4330 O.2    69  ALA69      -0.2718
     52  CB        24.1690   93.2560   27.9480 C.3    69  ALA69       0.0304
     53  N         22.0320   94.7970   26.3950 N.am   70  GLU70      -0.1979
     54  CA        20.6990   95.3860   26.4710 C.3    70  GLU70       0.1602
     55  C         19.8940   95.0490   25.2450 C.2    70  GLU70       0.2287
     56  O         18.7790   94.5220   25.3480 O.2    70  GLU70      -0.2864
     57  CB        20.7690   96.9060   26.6270 C.3    70  GLU70       0.0415
     58  CG        20.9710   97.3770   28.0510 C.3    70  GLU70       0.1163
     59  CD        22.2810   96.8860   28.6400 C.2    70  GLU70       0.3649
     60  OE1       23.3210   96.9560   27.9240 O.co2  70  GLU70      -0.2457
     61  OE2       22.2570   96.4160   29.8070 O.co2  70  GLU70      -0.2457
     62  N         18.9700   91.3350   25.2600 N.3    73  ASN73      -0.1240
     63  CA        17.9320   90.9900   26.2200 C.3    73  ASN73       0.1653
     64  C         16.5520   91.4560   25.7620 C.2    73  ASN73       0.2266
     65  O         15.5710   90.7320   25.9160 O.2    73  ASN73      -0.2867
     66  CB        18.2550   91.5370   27.6140 C.3    73  ASN73       0.1155
     67  CG        19.3250   90.7320   28.3150 C.2    73  ASN73       0.2627
     68  OD1       19.4040   89.5180   28.1460 O.2    73  ASN73      -0.2716
     69  ND2       20.1610   91.4020   29.0970 N.am   73  ASN73      -0.0877
     70  N         29.5470  110.3380   40.8320 N.3   269  GLN269     -0.1245
     71  CA        30.7520  109.6620   40.3300 C.3   269  GLN269      0.1566
     72  C         31.3030  110.3480   39.0720 C.2   269  GLN269      0.2260
     73  O         32.5060  110.2990   38.7990 O.2   269  GLN269     -0.2867
     74  CB        30.5240  108.1550   40.0970 C.3   269  GLN269      0.0367
     75  CG        29.8730  107.7620   38.7700 C.3   269  GLN269      0.0905
     76  CD        28.3900  108.1960   38.6440 C.2   269  GLN269      0.2608
     77  OE1       27.7550  108.6290   39.6240 O.2   269  GLN269     -0.2717
     78  NE2       27.8400  108.0730   37.4290 N.am  269  GLN269     -0.0878
@<TRIPOS>BOND
     1    43    42    2
     2    42    41    1
     3    47    45    1
     4    45    44    1
     5    44    41    1
     6    44    46    1
     7    41    40    1
     8    55    56    2
     9    55    54    1
    10    62    63    1
    11    48    49    1
    12    64    65    2
    13    64    63    1
    14    40    33   am
    15    63    66    1
    16    53    50   am
    17    53    54    1
    18    51    50    2
    19    50    49    1
    20    54    57    1
    21    49    52    1
    22    57    58    1
    23    33    34    2
    24    33    32    1
    25    35    32    1
    26    35    36    1
    27    66    67    1
    28    32    31    1
    29    37    36    1
    30    37    38    1
    31    39    38    1
    32    60    59   ar
    33    58    59    1
    34    68    67    2
    35    67    69   am
    36    59    61   ar
    37    31    29   am
    38    30    29    2
    39    29    28    1
    40    28    27    1
    41    27    18   am
    42    16    17    1
    43    18    17    1
    44    18    19    2
    45    17    20    1
    46     8     6    1
    47    14    13    1
    48    14    15    1
    49    13    10    1
    50     7     5    1
    51    20    21    1
    52    15     9    1
    53    12    11    2
    54     5     6    1
    55     5     2    1
    56    11    10    1
    57     9    10    1
    58     9     3   am
    59    21    22    1
    60     2     3    1
    61     2     1    1
    62    22    23    1
    63     3     4    2
    64    23    24    2
    65    25    24    1
    66    24    26    1
    67    78    76   am
    68    76    75    1
    69    76    77    2
    70    75    74    1
    71    73    72    2
    72    72    71    1
    73    74    71    1
    74    71    70    1
