@<TRIPOS>MOLECULE
tmp/4g0vA00.pdb
 78 72 0 0 0
SMALL
GASTEIGER

@<TRIPOS>ATOM
      1  N         41.2320   91.9830   50.0100 N.3    52  ARG52      -0.1231
      2  CA        40.2700   93.0370   50.3300 C.3    52  ARG52       0.1694
      3  C         39.2460   92.5900   51.3630 C.2    52  ARG52       0.2593
      4  O         38.3940   91.7620   51.0720 O.2    52  ARG52      -0.2718
      5  CB        39.5520   93.5140   49.0710 C.3    52  ARG52       0.0321
      6  CG        40.0380   94.8580   48.5730 C.3    52  ARG52       0.0489
      7  CD        39.5480   95.1030   47.1660 C.3    52  ARG52       0.2205
      8  NE        38.0950   95.1040   47.1070 N.pl3  52  ARG52      -0.0865
      9  CZ        37.3850   94.8450   46.0120 C.cat  52  ARG52       0.5346
     10  NH1       37.9890   94.5540   44.8550 N.pl3  52  ARG52       0.1354
     11  NH2       36.0610   94.8880   46.0810 N.pl3  52  ARG52       0.1354
     12  N         39.3280   93.1510   52.5630 N.am   53  GLY53      -0.1942
     13  CA        38.3940   92.8200   53.6230 C.3    53  GLY53       0.2014
     14  C         38.8670   91.6700   54.4880 C.2    53  GLY53       0.2639
     15  O         39.7370   90.8980   54.0770 O.2    53  GLY53      -0.2714
     16  N         38.2980   91.5570   55.6870 N.am   54  LYS54      -0.1963
     17  CA        38.5980   90.4490   56.5950 C.3    54  LYS54       0.1728
     18  C         38.3940   89.1020   55.8980 C.2    54  LYS54       0.2616
     19  O         37.4610   88.9430   55.1030 O.2    54  LYS54      -0.2715
     20  CB        37.7250   90.5420   57.8550 C.3    54  LYS54       0.0311
     21  CG        37.8320   91.8880   58.6110 C.3    54  LYS54       0.0038
     22  CD        39.2590   92.1440   59.1010 C.3    54  LYS54       0.0206
     23  CE        39.4400   93.4890   59.7890 C.3    54  LYS54       0.1093
     24  NZ        38.9100   93.4840   61.1740 N.3    54  LYS54      -0.1314
     25  N         39.2760   88.1440   56.1730 N.am   55  ILE55      -0.1963
     26  CA        39.2060   86.8140   55.5730 C.3    55  ILE55       0.1727
     27  C         38.4690   85.8270   56.4870 C.2    55  ILE55       0.2616
     28  O         38.3190   86.0600   57.6900 O.2    55  ILE55      -0.2715
     29  CB        40.6300   86.2760   55.2470 C.3    55  ILE55       0.0290
     30  CG1       41.4770   87.3680   54.5960 C.3    55  ILE55       0.0022
     31  CG2       40.5780   85.0660   54.3210 C.3    55  ILE55       0.0023
     32  CD1       40.9260   87.8610   53.2740 C.3    55  ILE55       0.0001
     33  N         38.0280   84.7260   55.9040 N.am   56  LEU56      -0.1977
     34  CA        37.3720   83.6530   56.6230 C.3    56  LEU56       0.1596
     35  C         38.2590   83.0940   57.7360 C.2    56  LEU56       0.2287
     36  O         39.4140   82.7530   57.5040 O.2    56  LEU56      -0.2864
     37  CB        37.0400   82.5520   55.6180 C.3    56  LEU56       0.0297
     38  CG        36.3440   81.2780   56.0620 C.3    56  LEU56       0.0022
     39  CD1       34.9220   81.5880   56.4480 C.3    56  LEU56       0.0001
     40  CD2       36.3970   80.2660   54.9160 C.3    56  LEU56       0.0001
     41  N         35.3940   80.0110   49.3730 N.3    69  ASN69      -0.1240
     42  CA        36.0710   81.2740   49.6160 C.3    69  ASN69       0.1653
     43  C         37.0830   81.6440   48.5430 C.2    69  ASN69       0.2266
     44  O         38.0890   80.9620   48.3490 O.2    69  ASN69      -0.2867
     45  CB        36.7390   81.3040   50.9870 C.3    69  ASN69       0.1155
     46  CG        37.3290   82.6690   51.3090 C.2    69  ASN69       0.2627
     47  OD1       38.5140   82.9150   51.0960 O.2    69  ASN69      -0.2716
     48  ND2       36.4930   83.5690   51.7980 N.am   69  ASN69      -0.0877
     49  N         39.2480   84.1230   48.4720 N.3    71  GLU71      -0.1245
     50  CA        40.5580   84.5540   48.9490 C.3    71  GLU71       0.1567
     51  C         41.4640   83.3990   49.3580 C.2    71  GLU71       0.2260
     52  O         42.6320   83.3600   48.9970 O.2    71  GLU71      -0.2867
     53  CB        40.4130   85.5370   50.1110 C.3    71  GLU71       0.0388
     54  CG        40.2240   86.9820   49.6830 C.3    71  GLU71       0.1160
     55  CD        38.7700   87.3320   49.4490 C.2    71  GLU71       0.3649
     56  OE1       37.8860   86.5440   49.8560 O.co2  71  GLU71      -0.2457
     57  OE2       38.5180   88.3970   48.8530 O.co2  71  GLU71      -0.2457
     58  N         36.6480  103.6920   57.2390 N.3   261  GLY261     -0.1225
     59  CA        35.9160  103.7900   56.0000 C.3   261  GLY261      0.1811
     60  C         34.5660  104.4010   56.2870 C.2   261  GLY261      0.2280
     61  O         33.9990  104.1990   57.3580 O.2   261  GLY261     -0.2866
     62  N         31.6260  104.1460   54.6590 N.3   263  GLN263     -0.1245
     63  CA        30.3890  103.3940   54.4340 C.3   263  GLN263      0.1566
     64  C         29.8520  102.8670   55.7580 C.2   263  GLN263      0.2260
     65  O         28.6420  102.8010   55.9640 O.2   263  GLN263     -0.2867
     66  CB        30.5400  102.2660   53.3930 C.3   263  GLN263      0.0367
     67  CG        31.4090  101.0730   53.8060 C.3   263  GLN263      0.0905
     68  CD        30.6500   99.9370   54.5110 C.2   263  GLN263      0.2608
     69  OE1       29.5130   99.6350   54.1560 O.2   263  GLN263     -0.2717
     70  NE2       31.2920   99.2990   55.5010 N.am  263  GLN263     -0.0878
     71  N         26.1560  103.7130   57.2220 N.3   267  MET267     -0.1245
     72  CA        25.2600  102.6880   57.7250 C.3   267  MET267      0.1570
     73  C         24.8200  102.9860   59.1530 C.2   267  MET267      0.2261
     74  O         23.6510  102.8060   59.4890 O.2   267  MET267     -0.2867
     75  CB        25.8610  101.2910   57.5850 C.3   267  MET267      0.0387
     76  CG        25.8580  100.7900   56.1330 C.3   267  MET267      0.0595
     77  SD        26.8500   99.2710   55.8910 S.3   267  MET267     -0.1393
     78  CE        25.9420   98.0580   56.8720 C.3   267  MET267      0.0692
@<TRIPOS>BOND
     1    10     9    1
     2     9    11    1
     3     9     8    2
     4     8     7    1
     5     7     6    1
     6    44    43    2
     7    49    50    1
     8    43    42    1
     9     6     5    1
    10    57    55   ar
    11    50    51    1
    12    50    53    1
    13    52    51    2
    14     5     2    1
    15    41    42    1
    16    55    54    1
    17    55    56   ar
    18    42    45    1
    19    54    53    1
    20     1     2    1
    21     2     3    1
    22    45    46    1
    23     4     3    2
    24    47    46    2
    25    46    48   am
    26     3    12   am
    27    12    13    1
    28    32    30    1
    29    66    67    1
    30    66    63    1
    31    13    14    1
    32    67    68    1
    33    15    14    2
    34    69    68    2
    35    31    29    1
    36    63    62    1
    37    63    64    1
    38    14    16   am
    39    68    70   am
    40    30    29    1
    41    40    38    1
    42    19    18    2
    43    29    26    1
    44    26    25    1
    45    26    27    1
    46    37    38    1
    47    37    34    1
    48    16    17    1
    49    64    65    2
    50    77    76    1
    51    77    78    1
    52    18    25   am
    53    18    17    1
    54    33    27   am
    55    33    34    1
    56    59    60    1
    57    59    58    1
    58    38    39    1
    59    76    75    1
    60    60    61    2
    61    27    28    2
    62    17    20    1
    63    34    35    1
    64    71    72    1
    65    36    35    2
    66    75    72    1
    67    72    73    1
    68    20    21    1
    69    21    22    1
    70    22    23    1
    71    73    74    2
    72    23    24    1
