@<TRIPOS>MOLECULE
tmp/4g0yA00.pdb
 122 115 0 0 0
SMALL
GASTEIGER

@<TRIPOS>ATOM
      1  N         23.6250   26.7210   44.4920 N.3    90  LEU90      -0.1245
      2  CA        23.9660   25.6120   43.5950 C.3    90  LEU90       0.1561
      3  C         25.1450   24.8260   44.1390 C.2    90  LEU90       0.2260
      4  O         26.0590   25.4090   44.7230 O.2    90  LEU90      -0.2867
      5  CB        24.4040   26.1330   42.2170 C.3    90  LEU90       0.0270
      6  CG        23.5060   26.9490   41.3000 C.3    90  LEU90       0.0019
      7  CD1       24.2900   27.3330   40.0550 C.3    90  LEU90       0.0001
      8  CD2       22.2750   26.1600   40.9200 C.3    90  LEU90       0.0001
      9  N         28.7250   23.1130   44.0240 N.3    92  ASP92      -0.1239
     10  CA        29.9500   23.6330   43.4330 C.3    92  ASP92       0.1674
     11  C         30.1430   23.1620   41.9930 C.2    92  ASP92       0.2266
     12  O         30.4860   23.9580   41.1250 O.2    92  ASP92      -0.2867
     13  CB        31.1650   23.2530   44.2900 C.3    92  ASP92       0.1410
     14  CG        31.1290   23.8900   45.6760 C.2    92  ASP92       0.3668
     15  OD1       30.5050   24.9680   45.8330 O.co2  92  ASP92      -0.2456
     16  OD2       31.7300   23.3140   46.6100 O.co2  92  ASP92      -0.2456
     17  N         27.9300   21.5460   39.0780 N.3    94  ASN94      -0.1225
     18  CA        26.5040   21.3440   38.8260 C.3    94  ASN94       0.1785
     19  C         26.1210   20.9920   37.3840 C.2    94  ASN94       0.2597
     20  O         24.9350   20.8610   37.0650 O.2    94  ASN94      -0.2718
     21  CB        25.7080   22.5660   39.2930 C.3    94  ASN94       0.1169
     22  CG        26.1170   23.8280   38.5750 C.2    94  ASN94       0.2627
     23  OD1       25.7330   24.0510   37.4270 O.2    94  ASN94      -0.2716
     24  ND2       26.8990   24.6640   39.2450 N.am   94  ASN94      -0.0877
     25  N         27.1130   20.8200   36.5150 N.am   95  GLY95      -0.1957
     26  CA        26.8370   20.3750   35.1590 C.3    95  GLY95       0.1869
     27  C         25.9470   21.3340   34.3900 C.2    95  GLY95       0.2309
     28  O         26.2930   22.5040   34.2290 O.2    95  GLY95      -0.2863
     29  N         23.3260   25.2190   35.9090 N.3    98  TYR98      -0.1227
     30  CA        23.4920   26.6670   35.7500 C.3    98  TYR98       0.1736
     31  C         22.8420   27.1770   34.4470 C.2    98  TYR98       0.2596
     32  O         22.0620   28.1400   34.4580 O.2    98  TYR98      -0.2718
     33  CB        24.9710   27.0540   35.8220 C.3    98  TYR98       0.0548
     34  CG        25.2210   28.5390   35.6460 C.ar   98  TYR98      -0.0200
     35  CD1       25.4750   29.0690   34.3900 C.ar   98  TYR98      -0.0009
     36  CD2       25.2010   29.4030   36.7320 C.ar   98  TYR98      -0.0009
     37  CE1       25.6990   30.4150   34.2140 C.ar   98  TYR98       0.0417
     38  CE2       25.4200   30.7650   36.5670 C.ar   98  TYR98       0.0417
     39  CZ        25.6690   31.2580   35.3000 C.ar   98  TYR98       0.1957
     40  OH        25.8950   32.5960   35.0950 O.3    98  TYR98      -0.2866
     41  N         23.1650   26.5350   33.3290 N.am   99  GLY99      -0.1957
     42  CA        22.6300   26.9430   32.0400 C.3    99  GLY99       0.1869
     43  C         21.1260   26.7480   31.9260 C.2    99  GLY99       0.2309
     44  O         20.4280   27.5720   31.3230 O.2    99  GLY99      -0.2863
     45  N         19.5100   29.5510   33.9090 N.3   102  LYS102     -0.1245
     46  CA        19.5680   30.8480   33.2440 C.3   102  LYS102      0.1561
     47  C         18.6250   30.9090   32.0490 C.2   102  LYS102      0.2260
     48  O         17.9790   31.9210   31.8120 O.2   102  LYS102     -0.2867
     49  CB        21.0020   31.1700   32.8170 C.3   102  LYS102      0.0271
     50  CG        21.9320   31.4510   33.9960 C.3   102  LYS102      0.0035
     51  CD        21.4560   32.6590   34.7880 C.3   102  LYS102      0.0206
     52  CE        22.3720   32.9190   35.9750 C.3   102  LYS102      0.1093
     53  NZ        21.9800   34.1530   36.7250 N.3   102  LYS102     -0.1314
     54  N         20.3780   35.2830   40.7150 N.3   114  GLN114     -0.1231
     55  CA        21.7590   35.3580   41.1920 C.3   114  GLN114      0.1698
     56  C         22.1300   34.0090   41.7620 C.2   114  GLN114      0.2592
     57  O         21.5230   33.5620   42.7340 O.2   114  GLN114     -0.2718
     58  CB        21.9060   36.4390   42.2680 C.3   114  GLN114      0.0381
     59  CG        23.3270   36.5380   42.8450 C.3   114  GLN114      0.0905
     60  CD        24.3470   36.8440   41.7740 C.2   114  GLN114      0.2608
     61  OE1       24.2390   37.8530   41.0760 O.2   114  GLN114     -0.2717
     62  NE2       25.3410   35.9790   41.6330 N.am  114  GLN114     -0.0878
     63  N         23.1140   33.3600   41.1470 N.am  115  CYS115     -0.1956
     64  CA        23.5540   32.0400   41.6000 C.3   115  CYS115      0.1843
     65  C         24.6980   32.1520   42.5920 C.2   115  CYS115      0.2626
     66  O         25.5900   32.9900   42.4400 O.2   115  CYS115     -0.2714
     67  CB        23.9680   31.1700   40.4210 C.3   115  CYS115      0.0997
     68  SG        22.5920   30.7830   39.3450 S.3   115  CYS115     -0.0797
     69  N         24.6570   31.3030   43.6150 N.am  116  CYS116     -0.1954
     70  CA        25.6820   31.3050   44.6540 C.3   116  CYS116      0.1843
     71  C         26.1000   29.8780   44.9310 C.2   116  CYS116      0.2625
     72  O         25.2540   29.0460   45.2490 O.2   116  CYS116     -0.2714
     73  CB        25.1160   31.9090   45.9350 C.3   116  CYS116      0.0997
     74  SG        24.5000   33.6110   45.7240 S.3   116  CYS116     -0.0797
     75  N         27.4040   29.6060   44.8300 N.am  117  LEU117     -0.1977
     76  CA        27.9300   28.2610   45.0370 C.3   117  LEU117      0.1596
     77  C         27.9690   27.8770   46.5190 C.2   117  LEU117      0.2287
     78  O         28.2330   28.7070   47.3820 O.2   117  LEU117     -0.2864
     79  CB        29.3300   28.1190   44.4140 C.3   117  LEU117      0.0297
     80  CG        29.3680   28.2130   42.8870 C.3   117  LEU117      0.0022
     81  CD1       30.8070   28.1030   42.3940 C.3   117  LEU117      0.0001
     82  CD2       28.4900   27.1440   42.2530 C.3   117  LEU117      0.0001
     83  N         30.5910   29.0930   49.0350 N.3   120  HIS120     -0.1241
     84  CA        30.4840   30.4500   49.5530 C.3   120  HIS120      0.1621
     85  C         29.3990   30.5780   50.6110 C.2   120  HIS120      0.2264
     86  O         29.4510   31.4530   51.4700 O.2   120  HIS120     -0.2867
     87  CB        30.2270   31.4450   48.4110 C.3   120  HIS120      0.0745
     88  CG        31.3000   31.4450   47.3680 C.ar  120  HIS120      0.0817
     89  ND1       31.0620   31.1170   46.0500 N.ar  120  HIS120     -0.2268
     90  CD2       32.6250   31.7080   47.4540 C.ar  120  HIS120      0.1154
     91  CE1       32.1920   31.1870   45.3690 C.ar  120  HIS120      0.1986
     92  NE2       33.1570   31.5400   46.1990 N.ar  120  HIS120     -0.2212
     93  N         32.8580   38.3780   49.9270 N.3   128  TYR128     -0.1241
     94  CA        31.9940   37.6920   48.9760 C.3   128  TYR128      0.1605
     95  C         30.6340   38.3700   48.8980 C.2   128  TYR128      0.2264
     96  O         30.1250   38.6410   47.8090 O.2   128  TYR128     -0.2867
     97  CB        31.8140   36.2260   49.3580 C.3   128  TYR128      0.0534
     98  CG        30.8070   35.5010   48.4810 C.ar  128  TYR128     -0.0201
     99  CD1       31.1520   35.0740   47.2040 C.ar  128  TYR128     -0.0009
    100  CD2       29.5180   35.2460   48.9310 C.ar  128  TYR128     -0.0009
    101  CE1       30.2360   34.4130   46.3940 C.ar  128  TYR128      0.0417
    102  CE2       28.5970   34.5840   48.1320 C.ar  128  TYR128      0.0417
    103  CZ        28.9660   34.1710   46.8690 C.ar  128  TYR128      0.1957
    104  OH        28.0490   33.5160   46.0760 O.3   128  TYR128     -0.2866
    105  N         26.8470   42.6520   42.0440 N.3   135  LYS135     -0.1245
    106  CA        26.2810   42.0000   40.8630 C.3   135  LYS135      0.1561
    107  C         24.7600   42.1250   40.8310 C.2   135  LYS135      0.2260
    108  O         24.1750   42.4060   39.7800 O.2   135  LYS135     -0.2867
    109  CB        26.6630   40.5180   40.8090 C.3   135  LYS135      0.0271
    110  CG        28.1340   40.2410   40.6010 C.3   135  LYS135      0.0035
    111  CD        28.3660   38.7690   40.2160 C.3   135  LYS135      0.0206
    112  CE        27.7920   38.4760   38.8300 C.3   135  LYS135      0.1093
    113  NZ        28.2250   37.1480   38.2810 N.3   135  LYS135     -0.1314
    114  N         22.0950   44.0130   38.0440 N.3   139  LYS139     -0.1245
    115  CA        21.0210   43.2340   37.4340 C.3   139  LYS139      0.1561
    116  C         19.6450   43.8570   37.6240 C.2   139  LYS139      0.2260
    117  O         18.7720   43.6920   36.7700 O.2   139  LYS139     -0.2867
    118  CB        21.0160   41.8100   37.9820 C.3   139  LYS139      0.0271
    119  CG        22.1620   40.9470   37.4570 C.3   139  LYS139      0.0035
    120  CD        22.2440   39.6500   38.2460 C.3   139  LYS139      0.0206
    121  CE        23.2710   38.7240   37.6260 C.3   139  LYS139      0.1093
    122  NZ        23.4580   37.4890   38.4440 N.3   139  LYS139     -0.1314
@<TRIPOS>BOND
     1    44    43    2
     2    48    47    2
     3    43    42    1
     4    42    41    1
     5    47    46    1
     6    49    46    1
     7    49    50    1
     8    46    45    1
     9    41    31   am
    10    50    51    1
    11    37    35   ar
    12    37    39   ar
    13    28    27    2
    14    27    26    1
    15    35    34   ar
    16    31    32    2
    17    31    30    1
    18    51    52    1
    19    40    39    1
    20    26    25    1
    21    39    38   ar
    22    34    33    1
    23    34    36   ar
    24    30    33    1
    25    30    29    1
    26    52    53    1
    27    25    19   am
    28    38    36   ar
    29   117   116    2
    30    20    19    2
    31    19    18    1
    32    23    22    2
    33   115   116    1
    34   115   118    1
    35   115   114    1
    36   119   118    1
    37   119   120    1
    38   121   120    1
    39   121   122    1
    40   113   112    1
    41    22    24   am
    42    22    21    1
    43    18    17    1
    44    18    21    1
    45   112   111    1
    46    68    67    1
    47   108   107    2
    48     7     6    1
    49   111   110    1
    50    67    64    1
    51   110   109    1
    52    54    55    1
    53   109   106    1
    54   107   106    1
    55   106   105    1
    56     8     6    1
    57    61    60    2
    58    12    11    2
    59    63    64    1
    60    63    56   am
    61    55    56    1
    62    55    58    1
    63     6     5    1
    64    64    65    1
    65    62    60   am
    66    56    57    2
    67    60    59    1
    68    11    10    1
    69     5     2    1
    70    82    80    1
    71    58    59    1
    72    81    80    1
    73    66    65    2
    74    65    69   am
    75    80    79    1
    76    10     9    1
    77    10    13    1
    78     2     3    1
    79     2     1    1
    80    69    70    1
    81     3     4    2
    82    13    14    1
    83    79    76    1
    84    70    71    1
    85    70    73    1
    86    75    71   am
    87    75    76    1
    88    71    72    2
    89    76    77    1
    90    91    89   ar
    91    91    92   ar
    92    14    15   ar
    93    14    16   ar
    94    74    73    1
    95    89    88   ar
    96   104   103    1
    97    92    90   ar
    98   101   103   ar
    99   101    99   ar
   100    77    78    2
   101   103   102   ar
   102    99    98   ar
   103    88    90   ar
   104    88    87    1
   105    96    95    2
   106   102   100   ar
   107    87    84    1
   108    98   100   ar
   109    98    97    1
   110    95    94    1
   111    94    97    1
   112    94    93    1
   113    83    84    1
   114    84    85    1
   115    85    86    2
