@<TRIPOS>MOLECULE
tmp/4g0zA00.pdb
 118 111 0 0 0
SMALL
GASTEIGER

@<TRIPOS>ATOM
      1  N         23.5520   26.6970   44.5650 N.3    90  LEU90      -0.1245
      2  CA        23.7870   25.4850   43.7860 C.3    90  LEU90       0.1561
      3  C         25.0860   24.7830   44.1530 C.2    90  LEU90       0.2260
      4  O         26.0250   25.4120   44.6550 O.2    90  LEU90      -0.2867
      5  CB        23.6910   25.7570   42.2730 C.3    90  LEU90       0.0270
      6  CG        24.5860   26.7760   41.5830 C.3    90  LEU90       0.0019
      7  CD1       25.9810   26.2350   41.4970 C.3    90  LEU90       0.0001
      8  CD2       24.0630   27.0520   40.1800 C.3    90  LEU90       0.0001
      9  N         28.6980   23.0620   44.0860 N.3    92  ASP92      -0.1239
     10  CA        29.9450   23.5440   43.5170 C.3    92  ASP92       0.1674
     11  C         30.1400   23.0700   42.0780 C.2    92  ASP92       0.2266
     12  O         30.5180   23.8580   41.2190 O.2    92  ASP92      -0.2867
     13  CB        31.1280   23.1420   44.4040 C.3    92  ASP92       0.1410
     14  CG        31.0460   23.7530   45.8040 C.2    92  ASP92       0.3668
     15  OD1       30.5910   24.9200   45.9370 O.co2  92  ASP92      -0.2456
     16  OD2       31.4450   23.0660   46.7730 O.co2  92  ASP92      -0.2456
     17  N         27.9290   21.4870   39.0620 N.3    94  ASN94      -0.1225
     18  CA        26.5060   21.3180   38.7930 C.3    94  ASN94       0.1785
     19  C         26.1280   20.9180   37.3680 C.2    94  ASN94       0.2597
     20  O         24.9450   20.8220   37.0430 O.2    94  ASN94      -0.2718
     21  CB        25.7480   22.5800   39.1970 C.3    94  ASN94       0.1169
     22  CG        26.1180   23.7690   38.3430 C.2    94  ASN94       0.2627
     23  OD1       25.6490   23.9050   37.2120 O.2    94  ASN94      -0.2716
     24  ND2       26.9770   24.6310   38.8700 N.am   94  ASN94      -0.0877
     25  N         27.1200   20.6830   36.5150 N.am   95  GLY95      -0.1957
     26  CA        26.8290   20.2530   35.1590 C.3    95  GLY95       0.1869
     27  C         25.9570   21.2430   34.4060 C.2    95  GLY95       0.2309
     28  O         26.3540   22.3920   34.2170 O.2    95  GLY95      -0.2863
     29  N         23.3800   25.2340   35.9640 N.3    98  TYR98      -0.1241
     30  CA        23.5380   26.6800   35.7920 C.3    98  TYR98       0.1605
     31  C         22.8760   27.1540   34.4860 C.2    98  TYR98       0.2264
     32  O         22.0880   28.1050   34.4820 O.2    98  TYR98      -0.2867
     33  CB        25.0140   27.0880   35.8360 C.3    98  TYR98       0.0534
     34  CG        25.2410   28.5780   35.6460 C.ar   98  TYR98      -0.0201
     35  CD1       25.4200   29.1100   34.3780 C.ar   98  TYR98      -0.0009
     36  CD2       25.2750   29.4440   36.7310 C.ar   98  TYR98      -0.0009
     37  CE1       25.6220   30.4600   34.1870 C.ar   98  TYR98       0.0417
     38  CE2       25.4760   30.8100   36.5520 C.ar   98  TYR98       0.0417
     39  CZ        25.6510   31.3060   35.2720 C.ar   98  TYR98       0.1957
     40  OH        25.8560   32.6470   35.0580 O.3    98  TYR98      -0.2866
     41  N         19.5310   29.6020   33.9850 N.3   102  LYS102     -0.1245
     42  CA        19.5690   30.8820   33.2870 C.3   102  LYS102      0.1561
     43  C         18.6170   30.9180   32.0960 C.2   102  LYS102      0.2260
     44  O         17.9900   31.9400   31.8310 O.2   102  LYS102     -0.2867
     45  CB        21.0000   31.2100   32.8520 C.3   102  LYS102      0.0271
     46  CG        21.9280   31.4880   34.0240 C.3   102  LYS102      0.0035
     47  CD        21.4550   32.7030   34.8290 C.3   102  LYS102      0.0206
     48  CE        22.3190   32.9050   36.0680 C.3   102  LYS102      0.1093
     49  NZ        22.0070   34.1670   36.7970 N.3   102  LYS102     -0.1314
     50  N         20.4340   35.2950   40.7670 N.3   114  GLN114     -0.1231
     51  CA        21.8110   35.3630   41.2530 C.3   114  GLN114      0.1698
     52  C         22.1880   34.0100   41.7970 C.2   114  GLN114      0.2592
     53  O         21.5860   33.5440   42.7670 O.2   114  GLN114     -0.2718
     54  CB        21.9420   36.3850   42.3800 C.3   114  GLN114      0.0381
     55  CG        23.3710   36.5270   42.9280 C.3   114  GLN114      0.0905
     56  CD        24.3760   36.8560   41.8400 C.2   114  GLN114      0.2608
     57  OE1       24.2570   37.8690   41.1630 O.2   114  GLN114     -0.2717
     58  NE2       25.3760   36.0030   41.6730 N.am  114  GLN114     -0.0878
     59  N         23.1840   33.3770   41.1860 N.am  115  CYS115     -0.1956
     60  CA        23.6100   32.0580   41.6400 C.3   115  CYS115      0.1843
     61  C         24.7390   32.1580   42.6510 C.2   115  CYS115      0.2626
     62  O         25.6310   32.9850   42.5120 O.2   115  CYS115     -0.2714
     63  CB        24.0610   31.2060   40.4590 C.3   115  CYS115      0.0997
     64  SG        22.7090   30.7030   39.4070 S.3   115  CYS115     -0.0797
     65  N         24.7100   31.2800   43.6510 N.am  116  CYS116     -0.1954
     66  CA        25.7030   31.2880   44.7210 C.3   116  CYS116      0.1843
     67  C         26.1360   29.8600   45.0180 C.2   116  CYS116      0.2625
     68  O         25.2930   29.0160   45.3250 O.2   116  CYS116     -0.2714
     69  CB        25.0990   31.9100   45.9810 C.3   116  CYS116      0.0997
     70  SG        24.4300   33.5950   45.7660 S.3   116  CYS116     -0.0797
     71  N         27.4410   29.5900   44.9270 N.am  117  LEU117     -0.1977
     72  CA        27.9660   28.2460   45.1610 C.3   117  LEU117      0.1596
     73  C         27.9470   27.8680   46.6410 C.2   117  LEU117      0.2287
     74  O         28.1700   28.6980   47.5110 O.2   117  LEU117     -0.2864
     75  CB        29.4000   28.1170   44.6330 C.3   117  LEU117      0.0297
     76  CG        29.5870   28.1710   43.1190 C.3   117  LEU117      0.0022
     77  CD1       31.0700   28.1780   42.7820 C.3   117  LEU117      0.0001
     78  CD2       28.9010   26.9950   42.4750 C.3   117  LEU117      0.0001
     79  N         30.5310   29.1050   49.1550 N.3   120  HIS120     -0.1241
     80  CA        30.4050   30.4760   49.6350 C.3   120  HIS120      0.1621
     81  C         29.2990   30.6190   50.6680 C.2   120  HIS120      0.2264
     82  O         29.3480   31.4950   51.5270 O.2   120  HIS120     -0.2867
     83  CB        30.1560   31.4370   48.4650 C.3   120  HIS120      0.0745
     84  CG        31.2490   31.4370   47.4390 C.ar  120  HIS120      0.0817
     85  ND1       31.0180   31.1690   46.1100 N.ar  120  HIS120     -0.2268
     86  CD2       32.5780   31.6640   47.5580 C.ar  120  HIS120      0.1154
     87  CE1       32.1620   31.2350   45.4460 C.ar  120  HIS120      0.1986
     88  NE2       33.1210   31.5300   46.3000 N.ar  120  HIS120     -0.2212
     89  N         32.8820   38.3980   49.9500 N.3   128  TYR128     -0.1241
     90  CA        32.0360   37.6980   48.9920 C.3   128  TYR128      0.1605
     91  C         30.6870   38.3910   48.8900 C.2   128  TYR128      0.2264
     92  O         30.2060   38.6870   47.7980 O.2   128  TYR128     -0.2867
     93  CB        31.8310   36.2420   49.4050 C.3   128  TYR128      0.0534
     94  CG        30.8040   35.5230   48.5490 C.ar  128  TYR128     -0.0201
     95  CD1       31.1210   35.0920   47.2630 C.ar  128  TYR128     -0.0009
     96  CD2       29.5100   35.3060   49.0160 C.ar  128  TYR128     -0.0009
     97  CE1       30.1810   34.4480   46.4750 C.ar  128  TYR128      0.0417
     98  CE2       28.5670   34.6620   48.2330 C.ar  128  TYR128      0.0417
     99  CZ        28.9130   34.2370   46.9660 C.ar  128  TYR128      0.1957
    100  OH        27.9790   33.5950   46.1870 O.3   128  TYR128     -0.2866
    101  N         26.8500   42.6810   42.0440 N.3   135  LYS135     -0.1245
    102  CA        26.2950   42.0280   40.8590 C.3   135  LYS135      0.1561
    103  C         24.7870   42.1540   40.8430 C.2   135  LYS135      0.2260
    104  O         24.1910   42.4680   39.8120 O.2   135  LYS135     -0.2867
    105  CB        26.6630   40.5410   40.8160 C.3   135  LYS135      0.0271
    106  CG        28.1460   40.2570   40.6490 C.3   135  LYS135      0.0035
    107  CD        28.3780   38.7980   40.2360 C.3   135  LYS135      0.0206
    108  CE        27.7080   38.5170   38.8920 C.3   135  LYS135      0.1093
    109  NZ        28.2000   37.2700   38.2290 N.3   135  LYS135     -0.1314
    110  N         22.1660   44.0220   38.0560 N.3   139  LYS139     -0.1245
    111  CA        21.0900   43.2370   37.4470 C.3   139  LYS139      0.1561
    112  C         19.7150   43.8690   37.6190 C.2   139  LYS139      0.2260
    113  O         18.8580   43.7190   36.7480 O.2   139  LYS139     -0.2867
    114  CB        21.0700   41.8150   38.0030 C.3   139  LYS139      0.0271
    115  CG        22.2230   40.9520   37.4970 C.3   139  LYS139      0.0035
    116  CD        22.2940   39.6390   38.2630 C.3   139  LYS139      0.0206
    117  CE        23.3740   38.7410   37.7070 C.3   139  LYS139      0.1093
    118  NZ        23.5550   37.5330   38.5620 N.3   139  LYS139     -0.1314
@<TRIPOS>BOND
     1    44    43    2
     2    43    42    1
     3    45    42    1
     4    45    46    1
     5    42    41    1
     6    46    47    1
     7    37    35   ar
     8    37    39   ar
     9    28    27    2
    10    35    34   ar
    11    27    26    1
    12    32    31    2
    13    31    30    1
    14    47    48    1
    15    40    39    1
    16    26    25    1
    17    39    38   ar
    18    34    33    1
    19    34    36   ar
    20    30    33    1
    21    30    29    1
    22    48    49    1
    23    25    19   am
    24    38    36   ar
    25   113   112    2
    26    20    19    2
    27    23    22    2
    28    19    18    1
    29   111   112    1
    30   111   114    1
    31   111   110    1
    32   115   114    1
    33   115   116    1
    34   117   116    1
    35   117   118    1
    36   109   108    1
    37    22    24   am
    38    22    21    1
    39    18    17    1
    40    18    21    1
    41   108   107    1
    42    64    63    1
    43   104   103    2
    44     8     6    1
    45   107   106    1
    46    63    60    1
    47   106   105    1
    48    50    51    1
    49   105   102    1
    50   103   102    1
    51   102   101    1
    52    57    56    2
    53    59    60    1
    54    59    52   am
    55    12    11    2
    56    51    52    1
    57    51    54    1
    58     7     6    1
    59     6     5    1
    60    60    61    1
    61    58    56   am
    62    52    53    2
    63    56    55    1
    64    11    10    1
    65     5     2    1
    66    54    55    1
    67    78    76    1
    68    62    61    2
    69    61    65   am
    70    77    76    1
    71    76    75    1
    72    10     9    1
    73    10    13    1
    74    65    66    1
    75     2     3    1
    76     2     1    1
    77     3     4    2
    78    13    14    1
    79    75    72    1
    80    66    67    1
    81    66    69    1
    82    71    67   am
    83    71    72    1
    84    67    68    2
    85    72    73    1
    86    87    85   ar
    87    87    88   ar
    88    70    69    1
    89    14    15   ar
    90    14    16   ar
    91    85    84   ar
    92   100    99    1
    93    88    86   ar
    94    97    99   ar
    95    97    95   ar
    96    73    74    2
    97    99    98   ar
    98    95    94   ar
    99    84    86   ar
   100    84    83    1
   101    92    91    2
   102    98    96   ar
   103    83    80    1
   104    94    96   ar
   105    94    93    1
   106    91    90    1
   107    90    93    1
   108    90    89    1
   109    79    80    1
   110    80    81    1
   111    81    82    2
