@<TRIPOS>MOLECULE
tmp/4g11A00.pdb
 168 157 0 0 0
SMALL
GASTEIGER

@<TRIPOS>ATOM
      1  N        -52.0550   14.6630  -41.5780 N.3   564  LYS564     -0.1245
      2  CA       -51.4130   15.9210  -41.9810 C.3   564  LYS564      0.1561
      3  C        -49.8870   15.8760  -41.8260 C.2   564  LYS564      0.2260
      4  O        -49.3290   14.8680  -41.3890 O.2   564  LYS564     -0.2867
      5  CB       -52.0110   17.1130  -41.2110 C.3   564  LYS564      0.0271
      6  CG       -52.1680   16.9140  -39.6980 C.3   564  LYS564      0.0035
      7  CD       -50.9500   17.4060  -38.9250 C.3   564  LYS564      0.0206
      8  CE       -51.1690   17.3290  -37.4190 C.3   564  LYS564      0.1093
      9  NZ       -52.1170   18.3620  -36.9110 N.3   564  LYS564     -0.1314
     10  N        -46.5340   18.1320  -40.1870 N.3   566  MET566     -0.1245
     11  CA       -46.1660   19.1750  -39.2300 C.3   566  MET566      0.1570
     12  C        -45.4550   20.3530  -39.8930 C.2   566  MET566      0.2261
     13  O        -44.6870   20.1740  -40.8430 O.2   566  MET566     -0.2867
     14  CB       -45.2260   18.6470  -38.1580 C.3   566  MET566      0.0387
     15  CG       -44.8630   19.6290  -37.0250 C.3   566  MET566      0.0595
     16  SD       -46.2450   20.2190  -35.9800 S.3   566  MET566     -0.1393
     17  CE       -45.4080   21.4720  -34.9860 C.3   566  MET566      0.0692
     18  N        -42.8030   22.0150  -39.4390 N.3   568  SER568     -0.1217
     19  CA       -41.4540   22.0300  -38.8710 C.3   568  SER568      0.1889
     20  C        -40.3760   21.9470  -39.9550 C.2   568  SER568      0.2288
     21  O        -40.6830   21.9460  -41.1500 O.2   568  SER568     -0.2866
     22  CB       -41.2850   20.8840  -37.8680 C.3   568  SER568      0.2089
     23  OG       -42.1440   21.0470  -36.7540 O.3   568  SER568     -0.2183
     24  N        -42.5560   15.2550  -41.0830 N.3   572  PRO572     -0.2116
     25  CA       -43.0320   13.9330  -40.7000 C.3   572  PRO572      0.1372
     26  C        -44.4340   13.6470  -41.2430 C.2   572  PRO572      0.2244
     27  O        -44.9210   14.3760  -42.1080 O.2   572  PRO572     -0.2868
     28  CB       -43.0610   14.0130  -39.1640 C.3   572  PRO572      0.0268
     29  CG       -42.7710   15.4890  -38.8150 C.3   572  PRO572      0.0207
     30  CD       -42.9560   16.2510  -40.0780 C.3   572  PRO572      0.0892
     31  N        -48.2850   12.7550  -39.6570 N.3   574  TRP574     -0.1241
     32  CA       -49.2930   12.4730  -38.6460 C.3   574  TRP574      0.1605
     33  C        -50.2730   11.4710  -39.2410 C.2   574  TRP574      0.2264
     34  O        -50.9710   11.7760  -40.2100 O.2   574  TRP574     -0.2867
     35  CB       -50.0100   13.7620  -38.2350 C.3   574  TRP574      0.0550
     36  CG       -51.0740   13.5900  -37.1840 C.ar  574  TRP574      0.0003
     37  CD1      -52.3290   13.0850  -37.3610 C.ar  574  TRP574      0.0946
     38  CD2      -50.9820   13.9530  -35.8010 C.ar  574  TRP574      0.0152
     39  NE1      -53.0200   13.0980  -36.1750 N.ar  574  TRP574     -0.2442
     40  CE2      -52.2170   13.6260  -35.2000 C.ar  574  TRP574      0.0810
     41  CE3      -49.9730   14.5130  -35.0100 C.ar  574  TRP574      0.0012
     42  CZ2      -52.4710   13.8430  -33.8430 C.ar  574  TRP574      0.0191
     43  CZ3      -50.2260   14.7340  -33.6610 C.ar  574  TRP574      0.0001
     44  CH2      -51.4670   14.3990  -33.0930 C.ar  574  TRP574      0.0015
     45  N        -46.5100    8.4880  -35.8870 N.3   593  ILE593     -0.1245
     46  CA       -45.6890    9.4560  -36.6190 C.3   593  ILE593      0.1561
     47  C        -44.5520    8.7550  -37.3610 C.2   593  ILE593      0.2260
     48  O        -43.7930    7.9900  -36.7660 O.2   593  ILE593     -0.2867
     49  CB       -45.0960   10.5440  -35.6840 C.3   593  ILE593      0.0252
     50  CG1      -46.2100   11.3520  -35.0160 C.3   593  ILE593      0.0019
     51  CG2      -44.1600   11.4780  -36.4550 C.3   593  ILE593      0.0019
     52  CD1      -45.7540   12.1830  -33.8290 C.3   593  ILE593      0.0001
     53  N        -41.2200    9.7690  -39.1710 N.3   595  LYS595     -0.1245
     54  CA       -40.3130   10.9170  -39.2610 C.3   595  LYS595      0.1561
     55  C        -38.9280   10.5430  -39.7920 C.2   595  LYS595      0.2260
     56  O        -38.3450    9.5390  -39.3810 O.2   595  LYS595     -0.2867
     57  CB       -40.1920   11.6050  -37.8940 C.3   595  LYS595      0.0271
     58  CG       -39.4950   12.9660  -37.9160 C.3   595  LYS595      0.0035
     59  CD       -39.5160   13.6410  -36.5480 C.3   595  LYS595      0.0206
     60  CE       -38.4860   13.0430  -35.5990 C.3   595  LYS595      0.1093
     61  NZ       -38.5780   13.6320  -34.2340 N.3   595  LYS595     -0.1314
     62  N        -33.2880    8.2210  -29.6810 N.3   603  ASP603     -0.1239
     63  CA       -34.5670    8.4610  -29.0120 C.3   603  ASP603      0.1674
     64  C        -35.1090    7.1700  -28.4000 C.2   603  ASP603      0.2266
     65  O        -35.7780    7.1940  -27.3670 O.2   603  ASP603     -0.2867
     66  CB       -35.5940    9.0330  -29.9950 C.3   603  ASP603      0.1410
     67  CG       -35.1840   10.3820  -30.5640 C.2   603  ASP603      0.3668
     68  OD1      -34.0450   10.5180  -31.0610 O.co2 603  ASP603     -0.2456
     69  OD2      -36.0230   11.3060  -30.5350 O.co2 603  ASP603     -0.2456
     70  N        -43.3600    7.2860  -24.5820 N.3   629  TYR629     -0.1241
     71  CA       -44.1300    6.8720  -25.7520 C.3   629  TYR629      0.1605
     72  C        -43.3850    5.8210  -26.5720 C.2   629  TYR629      0.2264
     73  O        -42.1680    5.6730  -26.4540 O.2   629  TYR629     -0.2867
     74  CB       -44.4900    8.0870  -26.6200 C.3   629  TYR629      0.0534
     75  CG       -43.3230    9.0020  -26.9380 C.ar  629  TYR629     -0.0201
     76  CD1      -42.5360    8.7940  -28.0670 C.ar  629  TYR629     -0.0009
     77  CD2      -43.0130   10.0790  -26.1120 C.ar  629  TYR629     -0.0009
     78  CE1      -41.4660    9.6310  -28.3620 C.ar  629  TYR629      0.0417
     79  CE2      -41.9440   10.9210  -26.3980 C.ar  629  TYR629      0.0417
     80  CZ       -41.1780   10.6910  -27.5240 C.ar  629  TYR629      0.1957
     81  OH       -40.1220   11.5230  -27.8100 O.3   629  TYR629     -0.2866
     82  N        -42.9100    6.6900  -34.4830 N.3   641  ILE641     -0.1231
     83  CA       -43.1610    7.3280  -33.1870 C.3   641  ILE641      0.1692
     84  C        -44.6460    7.2310  -32.8100 C.2   641  ILE641      0.2592
     85  O        -45.5200    7.3130  -33.6740 O.2   641  ILE641     -0.2718
     86  CB       -42.7040    8.8160  -33.1870 C.3   641  ILE641      0.0266
     87  CG1      -41.2340    8.9310  -33.6040 C.3   641  ILE641      0.0019
     88  CG2      -42.9070    9.4570  -31.8120 C.3   641  ILE641      0.0020
     89  CD1      -40.8590   10.2660  -34.2180 C.3   641  ILE641      0.0001
     90  N        -44.9140    7.0480  -31.5190 N.am  642  GLU642     -0.1966
     91  CA       -46.2760    7.0030  -30.9920 C.3   642  GLU642      0.1733
     92  C        -46.8420    8.4100  -30.8440 C.2   642  GLU642      0.2616
     93  O        -46.0930    9.3690  -30.6540 O.2   642  GLU642     -0.2715
     94  CB       -46.2930    6.3010  -29.6290 C.3   642  GLU642      0.0429
     95  CG       -47.6840    6.0870  -29.0270 C.3   642  GLU642      0.1163
     96  CD       -47.6560    5.3970  -27.6730 C.2   642  GLU642      0.3649
     97  OE1      -48.5290    5.7030  -26.8370 O.co2 642  GLU642     -0.2457
     98  OE2      -46.7710    4.5480  -27.4390 O.co2 642  GLU642     -0.2457
     99  N        -48.1640    8.5240  -30.9320 N.am  643  ILE643     -0.1963
    100  CA       -48.8530    9.7710  -30.6280 C.3   643  ILE643      0.1727
    101  C        -49.6070    9.6470  -29.3090 C.2   643  ILE643      0.2616
    102  O        -50.4720    8.7800  -29.1550 O.2   643  ILE643     -0.2715
    103  CB       -49.8170   10.1950  -31.7590 C.3   643  ILE643      0.0290
    104  CG1      -49.0310   10.4940  -33.0390 C.3   643  ILE643      0.0022
    105  CG2      -50.6460   11.4060  -31.3300 C.3   643  ILE643      0.0023
    106  CD1      -49.8800   10.8320  -34.2580 C.3   643  ILE643      0.0001
    107  N        -49.2580   10.5080  -28.3580 N.am  644  VAL644     -0.1977
    108  CA       -49.9930   10.6140  -27.1020 C.3   644  VAL644      0.1596
    109  C        -51.2060   11.5250  -27.3140 C.2   644  VAL644      0.2287
    110  O        -51.0620   12.6940  -27.6850 O.2   644  VAL644     -0.2864
    111  CB       -49.0990   11.1370  -25.9480 C.3   644  VAL644      0.0276
    112  CG1      -49.9190   11.3500  -24.6830 C.3   644  VAL644      0.0022
    113  CG2      -47.9570   10.1700  -25.6750 C.3   644  VAL644      0.0022
    114  N        -52.3320   15.7230  -26.2600 N.3   647  ALA647     -0.1245
    115  CA       -51.0790   16.3090  -25.8000 C.3   647  ALA647      0.1562
    116  C        -50.6960   17.5250  -26.6340 C.2   647  ALA647      0.2260
    117  O        -50.7540   17.4900  -27.8660 O.2   647  ALA647     -0.2867
    118  CB       -49.9700   15.2740  -25.8260 C.3   647  ALA647      0.0290
    119  N        -47.8140   20.9910  -26.9550 N.3   649  THR649     -0.1218
    120  CA       -46.5020   21.5370  -26.6160 C.3   649  THR649      0.1862
    121  C        -46.6410   22.7960  -25.7720 C.2   649  THR649      0.2287
    122  O        -47.4660   23.6580  -26.0780 O.2   649  THR649     -0.2866
    123  CB       -45.7130   21.8990  -27.8860 C.3   649  THR649      0.1770
    124  OG1      -45.7690   20.8150  -28.8210 O.3   649  THR649     -0.2211
    125  CG2      -44.2740   22.1940  -27.5480 C.3   649  THR649      0.0375
    126  N        -40.2490   23.9450  -27.0500 N.3   711  ASP711     -0.1239
    127  CA       -41.0100   23.0860  -27.9600 C.3   711  ASP711      0.1674
    128  C        -40.6790   21.6010  -27.7780 C.2   711  ASP711      0.2266
    129  O        -41.4360   20.7310  -28.2150 O.2   711  ASP711     -0.2867
    130  CB       -40.7830   23.5100  -29.4160 C.3   711  ASP711      0.1410
    131  CG       -41.8480   22.9760  -30.3570 C.2   711  ASP711      0.3668
    132  OD1      -43.0230   23.3820  -30.2240 O.co2 711  ASP711     -0.2456
    133  OD2      -41.5090   22.1590  -31.2380 O.co2 711  ASP711     -0.2456
    134  N        -43.7490   18.5060  -24.0180 N.3   714  MET714     -0.1245
    135  CA       -45.1950   18.5090  -24.2430 C.3   714  MET714      0.1570
    136  C        -45.9690   18.1220  -22.9860 C.2   714  MET714      0.2261
    137  O        -45.4340   17.4670  -22.0900 O.2   714  MET714     -0.2867
    138  CB       -45.5740   17.5700  -25.3900 C.3   714  MET714      0.0387
    139  CG       -44.7990   17.7920  -26.6800 C.3   714  MET714      0.0595
    140  SD       -45.7270   17.3710  -28.1660 S.3   714  MET714     -0.1393
    141  CE       -46.6180   15.9060  -27.6470 C.3   714  MET714      0.0692
    142  N        -44.2510   15.5460  -20.5270 N.3   722  PHE722     -0.1241
    143  CA       -43.2010   14.6780  -21.0680 C.3   722  PHE722      0.1605
    144  C        -42.3550   15.3650  -22.1390 C.2   722  PHE722      0.2264
    145  O        -42.8610   16.1770  -22.9120 O.2   722  PHE722     -0.2867
    146  CB       -43.7890   13.3630  -21.6060 C.3   722  PHE722      0.0534
    147  CG       -44.8390   13.5420  -22.6690 C.ar  722  PHE722     -0.0203
    148  CD1      -44.4990   13.4800  -24.0160 C.ar  722  PHE722     -0.0042
    149  CD2      -46.1710   13.7420  -22.3250 C.ar  722  PHE722     -0.0042
    150  CE1      -45.4640   13.6330  -25.0010 C.ar  722  PHE722     -0.0003
    151  CE2      -47.1420   13.8970  -23.3040 C.ar  722  PHE722     -0.0003
    152  CZ       -46.7880   13.8410  -24.6440 C.ar  722  PHE722     -0.0000
    153  N        -40.0290   15.4710  -25.6130 N.3   724  ILE724     -0.1231
    154  CA       -40.1180   14.8710  -26.9500 C.3   724  ILE724      0.1692
    155  C        -38.8610   15.1100  -27.7840 C.2   724  ILE724      0.2592
    156  O        -38.0510   15.9810  -27.4620 O.2   724  ILE724     -0.2718
    157  CB       -41.3730   15.3540  -27.7390 C.3   724  ILE724      0.0266
    158  CG1      -41.3940   16.8820  -27.8960 C.3   724  ILE724      0.0019
    159  CG2      -42.6480   14.8610  -27.0770 C.3   724  ILE724      0.0020
    160  CD1      -40.8210   17.3930  -29.2120 C.3   724  ILE724      0.0001
    161  N        -38.7190   14.3280  -28.8550 N.am  725  ASP725     -0.1974
    162  CA       -37.6270   14.4530  -29.8290 C.3   725  ASP725      0.1709
    163  C        -36.2350   14.5280  -29.2020 C.2   725  ASP725      0.2293
    164  O        -35.6640   15.6090  -29.0540 O.2   725  ASP725     -0.2864
    165  CB       -37.8700   15.6330  -30.7820 C.3   725  ASP725      0.1436
    166  CG       -36.9650   15.6000  -32.0020 C.2   725  ASP725      0.3671
    167  OD1      -36.7470   16.6750  -32.6000 O.co2 725  ASP725     -0.2456
    168  OD2      -36.4710   14.5100  -32.3670 O.co2 725  ASP725     -0.2456
@<TRIPOS>BOND
     1    27    26    2
     2     2     3    1
     3     2     1    1
     4     2     5    1
     5     3     4    2
     6    26    25    1
     7     5     6    1
     8    21    20    2
     9    24    25    1
    10    24    30    1
    11    13    12    2
    12    25    28    1
    13    34    33    2
    14    10    11    1
    15    30    29    1
    16    20    19    1
    17    12    11    1
    18    55    56    2
    19    55    54    1
    20     6     7    1
    21    31    32    1
    22    18    19    1
    23    54    53    1
    24    54    57    1
    25    33    32    1
    26    11    14    1
    27    28    29    1
    28     7     8    1
    29    19    22    1
    30    32    35    1
    31    35    36    1
    32    14    15    1
    33    58    57    1
    34    58    59    1
    35    22    23    1
    36     8     9    1
    37    37    36   ar
    38    37    39   ar
    39    47    48    2
    40    47    46    1
    41    36    38   ar
    42    15    16    1
    43    46    45    1
    44    46    49    1
    45    59    60    1
    46    51    49    1
    47    39    40   ar
    48    16    17    1
    49    38    40   ar
    50    38    41   ar
    51    49    50    1
    52    60    61    1
    53    40    42   ar
    54    50    52    1
    55    41    43   ar
    56    82    83    1
    57   106   104    1
    58    89    87    1
    59    42    44   ar
    60    85    84    2
    61    43    44   ar
    62    87    86    1
    63    86    83    1
    64    86    88    1
    65    83    84    1
    66   104   103    1
    67    84    90   am
    68   167   166   ar
    69   168   166   ar
    70   166   165    1
    71   103   105    1
    72   103   100    1
    73    90    91    1
    74   133   131   ar
    75    68    67   ar
    76    91    92    1
    77    91    94    1
    78    99    92   am
    79    99   100    1
    80    92    93    2
    81   165   162    1
    82   100   101    1
    83    67    69   ar
    84    67    66    1
    85   131   132   ar
    86   131   130    1
    87    66    63    1
    88   162   163    1
    89   162   161    1
    90    62    63    1
    91    94    95    1
    92   130   127    1
    93   101   102    2
    94   101   107   am
    95   160   158    1
    96   163   164    2
    97    95    96    1
    98    63    64    1
    99   161   155   am
   100   124   123    1
   101    64    65    2
   102    78    76   ar
   103    78    80   ar
   104   107   108    1
   105   129   128    2
   106   140   141    1
   107   140   139    1
   108    76    75   ar
   109   127   128    1
   110   127   126    1
   111   158   157    1
   112   123   125    1
   113   123   120    1
   114   117   116    2
   115    81    80    1
   116   155   156    2
   117   155   154    1
   118   157   159    1
   119   157   154    1
   120   110   109    2
   121    96    98   ar
   122    96    97   ar
   123    80    79   ar
   124   109   108    1
   125   108   111    1
   126   119   120    1
   127   154   153    1
   128    75    74    1
   129    75    77   ar
   130   139   138    1
   131   116   115    1
   132    74    71    1
   133   120   121    1
   134    72    73    2
   135    72    71    1
   136    79    77   ar
   137   114   115    1
   138   122   121    2
   139   111   113    1
   140   111   112    1
   141   118   115    1
   142    71    70    1
   143   138   135    1
   144   150   152   ar
   145   150   148   ar
   146   152   151   ar
   147   135   134    1
   148   135   136    1
   149   148   147   ar
   150   151   149   ar
   151   136   137    2
   152   145   144    2
   153   147   149   ar
   154   147   146    1
   155   144   143    1
   156   146   143    1
   157   143   142    1
