@<TRIPOS>MOLECULE
tmp/4g16A00.pdb
 167 159 0 0 0
SMALL
GASTEIGER

@<TRIPOS>ATOM
      1  N         45.9420  -23.1920   31.2510 N.3    15  LYS15      -0.1245
      2  CA        45.5470  -23.9290   30.0570 C.3    15  LYS15       0.1561
      3  C         44.9120  -22.9760   29.0660 C.2    15  LYS15       0.2260
      4  O         44.4340  -21.9060   29.4300 O.2    15  LYS15      -0.2867
      5  CB        44.5250  -25.0210   30.4030 C.3    15  LYS15       0.0271
      6  CG        43.0950  -24.5090   30.5950 C.3    15  LYS15       0.0035
      7  CD        42.2230  -25.5690   31.2640 C.3    15  LYS15       0.0206
      8  CE        40.8420  -25.0290   31.6030 C.3    15  LYS15       0.1093
      9  NZ        40.0370  -25.9860   32.4270 N.3    15  LYS15      -0.1314
     10  N         41.9410  -21.8990   26.7760 N.3    17  ILE17      -0.1231
     11  CA        40.5170  -22.0990   26.7990 C.3    17  ILE17       0.1692
     12  C         39.7930  -21.5680   25.5650 C.2    17  ILE17       0.2593
     13  O         40.3590  -20.8610   24.7300 O.2    17  ILE17      -0.2718
     14  CB        39.9630  -21.4160   28.0550 C.3    17  ILE17       0.0266
     15  CG1       40.2570  -19.9060   28.0050 C.3    17  ILE17       0.0019
     16  CG2       40.6740  -21.9820   29.2900 C.3    17  ILE17       0.0020
     17  CD1       39.7970  -19.1350   29.2130 C.3    17  ILE17       0.0001
     18  N         38.5150  -21.9040   25.4790 N.am   18  GLY18      -0.1942
     19  CA        37.7120  -21.4700   24.3560 C.3    18  GLY18       0.2014
     20  C         38.0090  -22.2390   23.0770 C.2    18  GLY18       0.2639
     21  O         38.8810  -23.1200   23.0230 O.2    18  GLY18      -0.2714
     22  N         37.2650  -21.9020   22.0300 N.am   19  CYS19      -0.1967
     23  CA        37.4300  -22.5450   20.7390 C.3    19  CYS19       0.1712
     24  C         38.0560  -21.5560   19.7620 C.2    19  CYS19       0.2296
     25  O         37.9240  -20.3340   19.9170 O.2    19  CYS19      -0.2864
     26  CB        36.0810  -23.0580   20.2270 C.3    19  CYS19       0.0983
     27  SG        35.5970  -24.6380   21.0430 S.3    19  CYS19      -0.0798
     28  N         44.0400  -17.6260   23.7040 N.3    25  LEU25      -0.1245
     29  CA        43.3650  -17.2580   24.9390 C.3    25  LEU25       0.1561
     30  C         43.5900  -18.3650   25.9530 C.2    25  LEU25       0.2260
     31  O         43.3470  -19.5370   25.6750 O.2    25  LEU25      -0.2867
     32  CB        41.8690  -17.0110   24.7260 C.3    25  LEU25       0.0270
     33  CG        41.3080  -16.1000   25.8200 C.3    25  LEU25       0.0019
     34  CD1       41.5200  -14.6200   25.4820 C.3    25  LEU25       0.0001
     35  CD2       39.8360  -16.3990   25.9420 C.3    25  LEU25       0.0001
     36  N         41.3410  -13.9470   32.4620 N.3    38  ALA38      -0.1245
     37  CA        41.4940  -14.3860   31.0840 C.3    38  ALA38       0.1562
     38  C         42.7840  -13.7230   30.6030 C.2    38  ALA38       0.2260
     39  O         43.0560  -12.5650   30.9310 O.2    38  ALA38      -0.2867
     40  CB        40.3220  -13.9190   30.2460 C.3    38  ALA38       0.0290
     41  N         44.8830  -12.8900   27.1610 N.3    40  LYS40      -0.1245
     42  CA        44.9460  -12.8710   25.7090 C.3    40  LYS40       0.1561
     43  C         46.4300  -12.7790   25.3540 C.2    40  LYS40       0.2260
     44  O         47.1360  -11.9030   25.8680 O.2    40  LYS40      -0.2867
     45  CB        44.1930  -11.6460   25.1670 C.3    40  LYS40       0.0271
     46  CG        43.6450  -11.8320   23.7880 C.3    40  LYS40       0.0035
     47  CD        42.9600  -10.6230   23.2130 C.3    40  LYS40       0.0206
     48  CE        42.3910  -10.9310   21.8250 C.3    40  LYS40       0.1093
     49  NZ        41.6720   -9.7450   21.2620 N.3    40  LYS40      -0.1314
     50  N         44.6720   -2.6360   21.3030 N.3    54  GLU54      -0.1245
     51  CA        43.3480   -3.0790   21.7370 C.3    54  GLU54       0.1567
     52  C         43.3880   -2.6280   23.2060 C.2    54  GLU54       0.2260
     53  O         42.4300   -2.0740   23.7390 O.2    54  GLU54      -0.2867
     54  CB        43.1850   -4.6070   21.7000 C.3    54  GLU54       0.0388
     55  CG        41.8560   -5.0420   22.3270 C.3    54  GLU54       0.1160
     56  CD        41.5820   -6.5320   22.2760 C.2    54  GLU54       0.3649
     57  OE1       42.4970   -7.3220   21.9810 O.co2  54  GLU54      -0.2457
     58  OE2       40.4280   -6.9120   22.5510 O.co2  54  GLU54      -0.2457
     59  N         41.0110   -0.1040   25.3160 N.3    58  TYR58      -0.1241
     60  CA        40.3940   -0.3840   26.6070 C.3    58  TYR58       0.1605
     61  C         40.6860    0.7410   27.5830 C.2    58  TYR58       0.2264
     62  O         39.8420    1.0920   28.4030 O.2    58  TYR58      -0.2867
     63  CB        40.9130   -1.6900   27.1860 C.3    58  TYR58       0.0534
     64  CG        40.0820   -2.8940   26.8110 C.ar   58  TYR58      -0.0201
     65  CD1       40.6440   -3.9570   26.1050 C.ar   58  TYR58      -0.0009
     66  CD2       38.7420   -2.9880   27.1960 C.ar   58  TYR58      -0.0009
     67  CE1       39.9050   -5.0770   25.7940 C.ar   58  TYR58       0.0417
     68  CE2       37.9920   -4.1060   26.8940 C.ar   58  TYR58       0.0417
     69  CZ        38.5820   -5.1500   26.1920 C.ar   58  TYR58       0.1957
     70  OH        37.8600   -6.2720   25.8850 O.3    58  TYR58      -0.2866
     71  N         42.9040   -9.8380   31.4680 N.3    84  LEU84      -0.1231
     72  CA        41.5020   -9.4180   31.5190 C.3    84  LEU84       0.1693
     73  C         40.5840  -10.0840   32.5180 C.2    84  LEU84       0.2592
     74  O         40.8690  -11.2070   32.9380 O.2    84  LEU84      -0.2718
     75  CB        40.8900   -9.6060   30.1770 C.3    84  LEU84       0.0284
     76  CG        41.0980   -8.7120   28.9770 C.3    84  LEU84       0.0019
     77  CD1       41.6460   -9.4360   27.7900 C.3    84  LEU84       0.0001
     78  CD2       39.7540   -8.1370   28.6800 C.3    84  LEU84       0.0001
     79  N         39.4930   -9.4090   32.9120 N.am   85  GLU85      -0.1966
     80  CA        38.5600  -10.0380   33.8310 C.3    85  GLU85       0.1733
     81  C         38.0160  -11.2920   33.0900 C.2    85  GLU85       0.2616
     82  O         37.7130  -11.2220   31.8930 O.2    85  GLU85      -0.2715
     83  CB        37.4190   -9.0740   34.1310 C.3    85  GLU85       0.0429
     84  CG        36.1460   -9.7000   34.5760 C.3    85  GLU85       0.1163
     85  CD        35.0720   -8.6490   34.7630 C.2    85  GLU85       0.3649
     86  OE1       35.1570   -7.5720   34.1240 O.co2  85  GLU85      -0.2457
     87  OE2       34.1400   -8.9110   35.5420 O.co2  85  GLU85      -0.2457
     88  N         37.8930  -12.4310   33.7790 N.am   86  LEU86      -0.1963
     89  CA        37.3500  -13.6600   33.1790 C.3    86  LEU86       0.1728
     90  C         35.8230  -13.5400   33.1240 C.2    86  LEU86       0.2616
     91  O         35.1830  -13.2070   34.1250 O.2    86  LEU86      -0.2715
     92  CB        37.7140  -14.8860   34.0280 C.3    86  LEU86       0.0311
     93  CG        37.2080  -16.2200   33.4480 C.3    86  LEU86       0.0022
     94  CD1       37.9100  -16.4930   32.1230 C.3    86  LEU86       0.0001
     95  CD2       37.4450  -17.3700   34.4320 C.3    86  LEU86       0.0001
     96  N         35.2490  -13.7990   31.9580 N.am   87  LEU87      -0.1963
     97  CA        33.8060  -13.7150   31.7960 C.3    87  LEU87       0.1728
     98  C         33.2350  -15.1040   31.5560 C.2    87  LEU87       0.2617
     99  O         33.9500  -16.1030   31.6820 O.2    87  LEU87      -0.2715
    100  CB        33.4690  -12.7710   30.6370 C.3    87  LEU87       0.0311
    101  CG        33.9210  -11.3260   30.8690 C.3    87  LEU87       0.0022
    102  CD1       33.6870  -10.4790   29.6270 C.3    87  LEU87       0.0001
    103  CD2       33.1680  -10.7700   32.0460 C.3    87  LEU87       0.0001
    104  N         31.9500  -15.1610   31.2240 N.am   88  GLY88      -0.1941
    105  CA        31.3060  -16.4310   30.9700 C.3    88  GLY88       0.1998
    106  C         31.2700  -16.7150   29.4790 C.2    88  GLY88       0.2480
    107  O         32.0170  -16.1120   28.6980 O.2    88  GLY88      -0.2729
    108  N         30.4100  -17.6530   29.0530 N.am   89  PRO89      -0.2726
    109  CA        30.2440  -18.0480   27.6550 C.3    89  PRO89       0.1402
    110  C         29.7050  -16.8910   26.8020 C.2    89  PRO89       0.2269
    111  O         29.1550  -15.9120   27.3210 O.2    89  PRO89      -0.2865
    112  CB        29.2760  -19.2270   27.7450 C.3    89  PRO89       0.0296
    113  CG        28.5360  -18.9810   29.0100 C.3    89  PRO89       0.0237
    114  CD        29.5560  -18.4630   29.9350 C.3    89  PRO89       0.0939
    115  N         27.7250  -19.3500   22.1930 N.3    93  ASP93      -0.1239
    116  CA        27.7750  -20.5950   22.9670 C.3    93  ASP93       0.1674
    117  C         26.3900  -20.8360   23.5270 C.2    93  ASP93       0.2266
    118  O         25.8780  -21.9540   23.5070 O.2    93  ASP93      -0.2867
    119  CB        28.7150  -20.5150   24.1780 C.3    93  ASP93       0.1410
    120  CG        30.1560  -20.3410   23.8050 C.2    93  ASP93       0.3668
    121  OD1       30.5600  -20.8440   22.7440 O.co2  93  ASP93      -0.2456
    122  OD2       30.8930  -19.7170   24.5990 O.co2  93  ASP93      -0.2456
    123  N         29.7390  -11.6280   25.7370 N.3   137  LEU137     -0.1245
    124  CA        29.7990  -12.6220   26.8040 C.3   137  LEU137      0.1561
    125  C         29.0650  -12.2430   28.0770 C.2   137  LEU137      0.2260
    126  O         29.0980  -11.0830   28.4850 O.2   137  LEU137     -0.2867
    127  CB        31.2640  -12.8820   27.1690 C.3   137  LEU137      0.0270
    128  CG        32.1760  -13.7210   26.2710 C.3   137  LEU137      0.0019
    129  CD1       31.9650  -13.3630   24.8160 C.3   137  LEU137      0.0001
    130  CD2       33.6290  -13.4950   26.6610 C.3   137  LEU137      0.0001
    131  N         33.4500   -7.8260   24.1440 N.3   152  ILE152     -0.1231
    132  CA        34.8960   -8.0690   24.1280 C.3   152  ILE152      0.1692
    133  C         35.5240   -7.9350   22.7430 C.2   152  ILE152      0.2592
    134  O         34.8350   -7.7680   21.7450 O.2   152  ILE152     -0.2718
    135  CB        35.2470   -9.4750   24.6070 C.3   152  ILE152      0.0266
    136  CG1       34.6600  -10.4900   23.6330 C.3   152  ILE152      0.0019
    137  CG2       34.7560   -9.6950   26.0190 C.3   152  ILE152      0.0020
    138  CD1       35.0830  -11.8990   23.9140 C.3   152  ILE152      0.0001
    139  N         36.8450   -8.0680   22.7180 N.am  153  ASP153     -0.1974
    140  CA        37.6700   -7.9830   21.5160 C.3   153  ASP153      0.1709
    141  C         37.4700   -6.7220   20.7050 C.2   153  ASP153      0.2293
    142  O         36.6580   -6.6760   19.7820 O.2   153  ASP153     -0.2864
    143  CB        37.4740   -9.1840   20.5890 C.3   153  ASP153      0.1436
    144  CG        38.5010   -9.2010   19.4560 C.2   153  ASP153      0.3671
    145  OD1       39.2140   -8.1770   19.2640 O.co2 153  ASP153     -0.2456
    146  OD2       38.6030  -10.2300   18.7520 O.co2 153  ASP153     -0.2456
    147  N         29.5430  -23.5560   30.0860 N.3   299  PRO299     -0.2102
    148  CA        30.8770  -24.0790   30.2930 C.3   299  PRO299      0.1504
    149  C         31.7040  -23.1110   31.1020 C.2   299  PRO299      0.2576
    150  O         31.4960  -21.8980   31.1180 O.2   299  PRO299     -0.2718
    151  CB        31.4660  -24.2060   28.9160 C.3   299  PRO299      0.0282
    152  CG        30.3370  -23.8360   27.9960 C.3   299  PRO299      0.0208
    153  CD        29.3550  -23.0350   28.7310 C.3   299  PRO299      0.0893
    154  N         32.6790  -23.6780   31.7760 N.am  300  THR300     -0.1940
    155  CA        33.5740  -22.8650   32.5550 C.3   300  THR300      0.2013
    156  C         34.9280  -23.4880   32.3120 C.2   300  THR300      0.2484
    157  O         35.0360  -24.6670   31.9560 O.2   300  THR300     -0.2729
    158  CB        33.2760  -22.8770   34.0410 C.3   300  THR300      0.1807
    159  OG1       31.9970  -23.4560   34.2980 O.3   300  THR300     -0.2208
    160  CG2       33.2640  -21.4580   34.5220 C.3   300  THR300      0.0379
    161  N         35.9700  -22.6620   32.3550 N.am  301  PRO301     -0.2726
    162  CA        37.3460  -23.1400   32.1560 C.3   301  PRO301      0.1402
    163  C         37.8790  -23.5030   33.5420 C.2   301  PRO301      0.2269
    164  O         38.8370  -24.2310   33.6970 O.2   301  PRO301     -0.2865
    165  CB        38.0630  -21.9530   31.5350 C.3   301  PRO301      0.0296
    166  CG        37.1910  -20.7980   31.9050 C.3   301  PRO301      0.0237
    167  CD        35.8100  -21.2610   31.9540 C.3   301  PRO301      0.0939
@<TRIPOS>BOND
     1   146   144   ar
     2   145   144   ar
     3   144   143    1
     4    24    25    2
     5    24    23    1
     6   142   141    2
     7    26    23    1
     8    26    27    1
     9   143   140    1
    10   141   140    1
    11    23    22    1
    12    49    48    1
    13    50    51    1
    14   140   139    1
    15    54    51    1
    16    54    55    1
    17    51    52    1
    18   134   133    2
    19    48    47    1
    20    57    56   ar
    21    22    20   am
    22   115   116    1
    23    56    55    1
    24    56    58   ar
    25   139   133   am
    26   133   132    1
    27   121   120   ar
    28   116   117    1
    29   116   119    1
    30    21    20    2
    31    20    19    1
    32    52    53    2
    33    47    46    1
    34   118   117    2
    35   136   138    1
    36   136   135    1
    37    28    29    1
    38    46    45    1
    39   120   119    1
    40   120   122   ar
    41   132   131    1
    42   132   135    1
    43    19    18    1
    44   135   137    1
    45    32    29    1
    46    32    33    1
    47    13    12    2
    48   129   128    1
    49    29    30    1
    50    45    42    1
    51    59    60    1
    52    43    42    1
    53    43    44    2
    54    18    12   am
    55    34    33    1
    56    12    11    1
    57    31    30    2
    58    42    41    1
    59   123   124    1
    60    67    65   ar
    61    67    69   ar
    62    33    35    1
    63    70    69    1
    64    65    64   ar
    65    69    68   ar
    66   128   130    1
    67   128   127    1
    68    60    63    1
    69    60    61    1
    70    10    11    1
    71    11    14    1
    72   110   111    2
    73   110   109    1
    74   124   127    1
    75   124   125    1
    76    64    63    1
    77    64    66   ar
    78    68    66   ar
    79    61    62    2
    80   109   112    1
    81   109   108    1
    82   112   113    1
    83    77    76    1
    84   152   153    1
    85   152   151    1
    86    15    14    1
    87    15    17    1
    88    14    16    1
    89   125   126    2
    90    78    76    1
    91   107   106    2
    92   153   147    1
    93   151   148    1
    94    76    75    1
    95   113   114    1
    96   108   106   am
    97   108   114    1
    98     3     4    2
    99     3     2    1
   100   106   105    1
   101   102   101    1
   102     2     5    1
   103     2     1    1
   104   147   148    1
   105    75    72    1
   106    40    37    1
   107   148   149    1
   108     5     6    1
   109     6     7    1
   110    38    39    2
   111    38    37    1
   112   100   101    1
   113   100    97    1
   114   101   103    1
   115   105   104    1
   116    37    36    1
   117   149   150    2
   118   149   154   am
   119   104    98   am
   120     7     8    1
   121    71    72    1
   122    72    73    1
   123   165   166    1
   124   165   162    1
   125    98    99    2
   126    98    97    1
   127     8     9    1
   128   154   155    1
   129    97    96    1
   130    82    81    2
   131   166   167    1
   132   167   161    1
   133   157   156    2
   134    96    90   am
   135    94    93    1
   136   162   161    1
   137   162   163    1
   138   156   161   am
   139   156   155    1
   140    73    79   am
   141    73    74    2
   142   155   158    1
   143    79    80    1
   144    81    88   am
   145    81    80    1
   146    90    89    1
   147    90    91    2
   148    89    88    1
   149    89    92    1
   150    93    92    1
   151    93    95    1
   152   163   164    2
   153    80    83    1
   154   158   159    1
   155   158   160    1
   156    86    85   ar
   157    83    84    1
   158    84    85    1
   159    85    87   ar
