@<TRIPOS>MOLECULE
tmp/4g17A00.pdb
 165 158 0 0 0
SMALL
GASTEIGER

@<TRIPOS>ATOM
      1  N         42.0830  -21.5070   26.5870 N.3    17  ILE17      -0.1231
      2  CA        40.6640  -21.7530   26.6640 C.3    17  ILE17       0.1692
      3  C         39.9440  -21.2440   25.4390 C.2    17  ILE17       0.2593
      4  O         40.4910  -20.4760   24.6390 O.2    17  ILE17      -0.2718
      5  CB        40.0810  -21.0850   27.9180 C.3    17  ILE17       0.0266
      6  CG1       40.3220  -19.5710   27.8580 C.3    17  ILE17       0.0019
      7  CG2       40.7090  -21.7040   29.1700 C.3    17  ILE17       0.0020
      8  CD1       40.1620  -18.8790   29.1810 C.3    17  ILE17       0.0001
      9  N         38.7060  -21.6910   25.2980 N.am   18  GLY18      -0.1942
     10  CA        37.9190  -21.2780   24.1680 C.3    18  GLY18       0.2014
     11  C         38.2130  -22.0860   22.9300 C.2    18  GLY18       0.2639
     12  O         39.0630  -23.0060   22.9070 O.2    18  GLY18      -0.2714
     13  N         37.4760  -21.7280   21.8820 N.am   19  CYS19      -0.1967
     14  CA        37.6360  -22.4060   20.5910 C.3    19  CYS19       0.1712
     15  C         38.3050  -21.4910   19.5640 C.2    19  CYS19       0.2296
     16  O         38.1310  -20.2670   19.6550 O.2    19  CYS19      -0.2864
     17  CB        36.3090  -22.8430   19.9870 C.3    19  CYS19       0.0983
     18  SG        35.6930  -24.4600   20.4850 S.3    19  CYS19      -0.0798
     19  N         44.2960  -17.1950   23.7040 N.3    25  LEU25      -0.1245
     20  CA        43.4610  -16.8700   24.8650 C.3    25  LEU25       0.1561
     21  C         43.6930  -17.9700   25.8960 C.2    25  LEU25       0.2260
     22  O         43.4660  -19.1560   25.6220 O.2    25  LEU25      -0.2867
     23  CB        41.9640  -16.7860   24.5040 C.3    25  LEU25       0.0270
     24  CG        41.2840  -16.0210   25.6650 C.3    25  LEU25       0.0019
     25  CD1       41.4570  -14.4960   25.4610 C.3    25  LEU25       0.0001
     26  CD2       39.8050  -16.3640   25.7890 C.3    25  LEU25       0.0001
     27  N         41.5460  -13.8240   32.6190 N.3    38  ALA38      -0.1245
     28  CA        41.6900  -14.2600   31.2370 C.3    38  ALA38       0.1562
     29  C         42.9650  -13.5910   30.7310 C.2    38  ALA38       0.2260
     30  O         43.2320  -12.4400   31.0500 O.2    38  ALA38      -0.2867
     31  CB        40.4930  -13.8190   30.4060 C.3    38  ALA38       0.0290
     32  N         45.0930  -12.6580   27.2810 N.3    40  LYS40      -0.1245
     33  CA        45.1990  -12.6000   25.8320 C.3    40  LYS40       0.1561
     34  C         46.6810  -12.4970   25.4610 C.2    40  LYS40       0.2260
     35  O         47.3850  -11.6130   25.9490 O.2    40  LYS40      -0.2867
     36  CB        44.4200  -11.3900   25.2950 C.3    40  LYS40       0.0271
     37  CG        44.2720  -11.3910   23.7850 C.3    40  LYS40       0.0035
     38  CD        43.2670  -10.3650   23.2890 C.3    40  LYS40       0.0206
     39  CE        42.9430  -10.6190   21.8180 C.3    40  LYS40       0.1093
     40  NZ        42.0250   -9.6000   21.2210 N.3    40  LYS40      -0.1314
     41  N         44.8890   -2.3290   21.4170 N.3    54  GLU54      -0.1245
     42  CA        43.5710   -2.7320   21.8800 C.3    54  GLU54       0.1567
     43  C         43.5970   -2.3260   23.3590 C.2    54  GLU54       0.2260
     44  O         42.6090   -1.8380   23.9120 O.2    54  GLU54      -0.2867
     45  CB        43.3690   -4.2440   21.7450 C.3    54  GLU54       0.0388
     46  CG        42.1900   -4.7670   22.5650 C.3    54  GLU54       0.1160
     47  CD        41.8800   -6.2320   22.3110 C.2    54  GLU54       0.3649
     48  OE1       42.8030   -6.9880   21.9540 O.co2  54  GLU54      -0.2457
     49  OE2       40.7070   -6.6310   22.4880 O.co2  54  GLU54      -0.2457
     50  N         41.1810    0.1450   25.5420 N.3    58  TYR58      -0.1241
     51  CA        40.5800   -0.1010   26.8460 C.3    58  TYR58       0.1605
     52  C         40.8730    1.0690   27.7860 C.2    58  TYR58       0.2264
     53  O         40.0010    1.4800   28.5490 O.2    58  TYR58      -0.2867
     54  CB        41.0910   -1.4060   27.4560 C.3    58  TYR58       0.0534
     55  CG        40.3120   -2.6310   27.0190 C.ar   58  TYR58      -0.0201
     56  CD1       40.9240   -3.6480   26.2880 C.ar   58  TYR58      -0.0009
     57  CD2       38.9690   -2.7820   27.3620 C.ar   58  TYR58      -0.0009
     58  CE1       40.2220   -4.7880   25.9110 C.ar   58  TYR58       0.0417
     59  CE2       38.2530   -3.9180   26.9920 C.ar   58  TYR58       0.0417
     60  CZ        38.8820   -4.9170   26.2700 C.ar   58  TYR58       0.1957
     61  OH        38.1700   -6.0350   25.9140 O.3    58  TYR58      -0.2866
     62  N         34.8750   -5.3130   30.1890 N.3    68  PRO68      -0.2116
     63  CA        35.7680   -6.0910   31.0510 C.3    68  PRO68       0.1372
     64  C         36.9060   -5.2630   31.6290 C.2    68  PRO68       0.2244
     65  O         37.4790   -4.4120   30.9540 O.2    68  PRO68      -0.2868
     66  CB        36.2580   -7.2000   30.1290 C.3    68  PRO68       0.0268
     67  CG        36.2440   -6.5680   28.8070 C.3    68  PRO68       0.0207
     68  CD        34.9440   -5.7970   28.8020 C.3    68  PRO68       0.0892
     69  N         42.9680   -9.5970   31.6950 N.3    84  LEU84      -0.1231
     70  CA        41.6640   -9.0350   32.0150 C.3    84  LEU84       0.1693
     71  C         40.7970   -9.9390   32.8680 C.2    84  LEU84       0.2592
     72  O         41.1100  -11.1100   33.0880 O.2    84  LEU84      -0.2718
     73  CB        40.8790   -8.6670   30.7470 C.3    84  LEU84       0.0284
     74  CG        41.3560   -9.0070   29.3410 C.3    84  LEU84       0.0019
     75  CD1       41.2860  -10.4980   29.1320 C.3    84  LEU84       0.0001
     76  CD2       40.4760   -8.3010   28.3310 C.3    84  LEU84       0.0001
     77  N         39.7050   -9.3550   33.3440 N.am   85  GLU85      -0.1966
     78  CA        38.7120  -10.0300   34.1660 C.3    85  GLU85       0.1733
     79  C         38.1730  -11.2490   33.4090 C.2    85  GLU85       0.2616
     80  O         37.9190  -11.1670   32.2110 O.2    85  GLU85      -0.2715
     81  CB        37.5900   -9.0220   34.4730 C.3    85  GLU85       0.0429
     82  CG        36.2480   -9.6030   34.8390 C.3    85  GLU85       0.1163
     83  CD        35.1870   -8.5260   34.9640 C.2    85  GLU85       0.3649
     84  OE1       35.2340   -7.5530   34.1760 O.co2  85  GLU85      -0.2457
     85  OE2       34.3050   -8.6550   35.8360 O.co2  85  GLU85      -0.2457
     86  N         38.0490  -12.3850   34.0920 N.am   86  LEU86      -0.1963
     87  CA        37.5100  -13.5800   33.4510 C.3    86  LEU86       0.1728
     88  C         35.9870  -13.4390   33.4040 C.2    86  LEU86       0.2616
     89  O         35.3580  -13.0160   34.3780 O.2    86  LEU86      -0.2715
     90  CB        37.8690  -14.8540   34.2300 C.3    86  LEU86       0.0311
     91  CG        37.3970  -16.1560   33.5590 C.3    86  LEU86       0.0022
     92  CD1       38.2320  -16.4090   32.3020 C.3    86  LEU86       0.0001
     93  CD2       37.5090  -17.3480   34.5210 C.3    86  LEU86       0.0001
     94  N         35.3980  -13.7850   32.2670 N.am   87  LEU87      -0.1963
     95  CA        33.9440  -13.6970   32.1030 C.3    87  LEU87       0.1728
     96  C         33.3370  -15.0700   31.8330 C.2    87  LEU87       0.2617
     97  O         34.0340  -16.0880   31.8620 O.2    87  LEU87      -0.2715
     98  CB        33.5930  -12.7630   30.9460 C.3    87  LEU87       0.0311
     99  CG        34.1450  -11.3360   31.0190 C.3    87  LEU87       0.0022
    100  CD1       34.0020  -10.6630   29.6530 C.3    87  LEU87       0.0001
    101  CD2       33.4200  -10.5450   32.0910 C.3    87  LEU87       0.0001
    102  N         32.0320  -15.0730   31.5670 N.am   88  GLY88      -0.1941
    103  CA        31.3050  -16.2970   31.2870 C.3    88  GLY88       0.1998
    104  C         31.2940  -16.6180   29.8050 C.2    88  GLY88       0.2480
    105  O         32.0950  -16.0610   29.0660 O.2    88  GLY88      -0.2729
    106  N         30.4130  -17.5170   29.3350 N.am   89  PRO89      -0.2726
    107  CA        30.3510  -17.8720   27.9120 C.3    89  PRO89       0.1402
    108  C         29.7830  -16.7690   27.0170 C.2    89  PRO89       0.2269
    109  O         29.0680  -15.8810   27.4830 O.2    89  PRO89      -0.2865
    110  CB        29.4700  -19.1200   27.9050 C.3    89  PRO89       0.0296
    111  CG        28.5740  -18.8980   29.0810 C.3    89  PRO89       0.0237
    112  CD        29.5230  -18.3820   30.1300 C.3    89  PRO89       0.0939
    113  N         27.8140  -19.2550   22.2450 N.3    93  ASP93      -0.1239
    114  CA        27.8530  -20.4770   23.0550 C.3    93  ASP93       0.1674
    115  C         26.4920  -20.7290   23.6870 C.2    93  ASP93       0.2266
    116  O         26.0300  -21.8650   23.7560 O.2    93  ASP93      -0.2867
    117  CB        28.8680  -20.3700   24.1980 C.3    93  ASP93       0.1410
    118  CG        30.2920  -20.2360   23.7170 C.2    93  ASP93       0.3668
    119  OD1       30.6900  -21.0010   22.8140 O.co2  93  ASP93      -0.2456
    120  OD2       31.0230  -19.3720   24.2580 O.co2  93  ASP93      -0.2456
    121  N         29.8340  -11.5470   25.9660 N.3   137  LEU137     -0.1245
    122  CA        29.8300  -12.5700   27.0080 C.3   137  LEU137      0.1561
    123  C         29.1100  -12.1520   28.2870 C.2   137  LEU137      0.2260
    124  O         29.2310  -11.0110   28.7290 O.2   137  LEU137     -0.2867
    125  CB        31.2760  -12.9530   27.3770 C.3   137  LEU137      0.0270
    126  CG        32.2510  -13.6460   26.4080 C.3   137  LEU137      0.0019
    127  CD1       32.3950  -12.8720   25.1120 C.3   137  LEU137      0.0001
    128  CD2       33.6010  -13.7490   27.0960 C.3   137  LEU137      0.0001
    129  N         33.7190   -7.6650   24.2430 N.3   152  ILE152     -0.1231
    130  CA        35.1720   -7.9190   24.2230 C.3   152  ILE152      0.1692
    131  C         35.7760   -7.7540   22.8290 C.2   152  ILE152      0.2592
    132  O         35.0570   -7.6000   21.8550 O.2   152  ILE152     -0.2718
    133  CB        35.5130   -9.3660   24.6630 C.3   152  ILE152      0.0266
    134  CG1       34.9980  -10.3600   23.6140 C.3   152  ILE152      0.0019
    135  CG2       34.9140   -9.6640   26.0190 C.3   152  ILE152      0.0020
    136  CD1       35.4300  -11.8030   23.8560 C.3   152  ILE152      0.0001
    137  N         37.1040   -7.8270   22.7540 N.am  153  ASP153     -0.1974
    138  CA        37.8510   -7.7160   21.5040 C.3   153  ASP153      0.1709
    139  C         37.6920   -6.3810   20.7920 C.2   153  ASP153      0.2293
    140  O         36.8490   -6.2350   19.9020 O.2   153  ASP153     -0.2864
    141  CB        37.4570   -8.8340   20.5400 C.3   153  ASP153      0.1436
    142  CG        38.5640   -9.1690   19.5490 C.2   153  ASP153      0.3671
    143  OD1       39.4570   -8.3160   19.3210 O.co2 153  ASP153     -0.2456
    144  OD2       38.5400  -10.2960   18.9920 O.co2 153  ASP153     -0.2456
    145  N         29.1710  -23.9420   30.0710 N.3   299  PRO299     -0.2102
    146  CA        30.5890  -24.2710   29.8070 C.3   299  PRO299      0.1504
    147  C         31.5200  -23.3210   30.6050 C.2   299  PRO299      0.2576
    148  O         31.2520  -22.1300   30.7020 O.2   299  PRO299     -0.2718
    149  CB        30.6880  -24.1150   28.2970 C.3   299  PRO299      0.0282
    150  CG        29.4040  -23.3660   27.9110 C.3   299  PRO299      0.0208
    151  CD        28.3880  -23.8820   28.8380 C.3   299  PRO299      0.0893
    152  N         32.5710  -23.8590   31.2120 N.am  300  THR300     -0.1940
    153  CA        33.4590  -23.0390   32.0210 C.3   300  THR300      0.2013
    154  C         34.8880  -23.5460   31.9510 C.2   300  THR300      0.2484
    155  O         35.1430  -24.7270   32.0010 O.2   300  THR300     -0.2729
    156  CB        32.9850  -23.0400   33.4940 C.3   300  THR300      0.1807
    157  OG1       33.8380  -22.1970   34.2880 O.3   300  THR300     -0.2208
    158  CG2       33.0050  -24.4740   34.0890 C.3   300  THR300      0.0379
    159  N         35.8390  -22.6410   31.8290 N.am  301  PRO301     -0.2726
    160  CA        37.2590  -22.9770   31.7420 C.3   301  PRO301      0.1402
    161  C         37.8320  -23.4540   33.0650 C.2   301  PRO301      0.2269
    162  O         38.6570  -24.3650   33.0980 O.2   301  PRO301     -0.2865
    163  CB        37.8970  -21.6700   31.3120 C.3   301  PRO301      0.0296
    164  CG        36.7470  -20.7590   31.0000 C.3   301  PRO301      0.0237
    165  CD        35.6380  -21.1910   31.8480 C.3   301  PRO301      0.0939
@<TRIPOS>BOND
     1   144   142   ar
     2   143   142   ar
     3   142   141    1
     4    15    16    2
     5    15    14    1
     6   140   139    2
     7    17    18    1
     8    17    14    1
     9   141   138    1
    10    14    13    1
    11   139   138    1
    12    40    39    1
    13    41    42    1
    14   138   137    1
    15    45    42    1
    16    45    46    1
    17    39    38    1
    18   132   131    2
    19    42    43    1
    20    13    11   am
    21    48    47   ar
    22   113   114    1
    23    47    49   ar
    24    47    46    1
    25   137   131   am
    26   119   118   ar
    27   131   130    1
    28    12    11    2
    29    11    10    1
    30   114   115    1
    31   114   117    1
    32    38    37    1
    33    43    44    2
    34   134   136    1
    35   134   133    1
    36   115   116    2
    37    19    20    1
    38   118   117    1
    39   118   120   ar
    40    37    36    1
    41    10     9    1
    42   130   129    1
    43   130   133    1
    44    23    20    1
    45    23    24    1
    46     4     3    2
    47   133   135    1
    48    20    21    1
    49   127   126    1
    50    36    33    1
    51     9     3   am
    52     3     2    1
    53    25    24    1
    54    34    33    1
    55    34    35    2
    56    50    51    1
    57    22    21    2
    58    24    26    1
    59    33    32    1
    60    58    60   ar
    61    58    56   ar
    62    61    60    1
    63   121   122    1
    64    60    59   ar
    65    56    55   ar
    66   126   128    1
    67   126   125    1
    68     1     2    1
    69     2     5    1
    70    51    54    1
    71    51    52    1
    72    59    57   ar
    73   122   125    1
    74   122   123    1
    75   108   109    2
    76   108   107    1
    77    55    57   ar
    78    55    54    1
    79    52    53    2
    80     6     5    1
    81     6     8    1
    82   110   107    1
    83   110   111    1
    84   150   149    1
    85   150   151    1
    86   107   106    1
    87     5     7    1
    88   123   124    2
    89   149   146    1
    90    76    74    1
    91    68    67    1
    92    68    62    1
    93    67    66    1
    94   151   145    1
    95   105   104    2
    96   111   112    1
    97    75    74    1
    98   106   104   am
    99   106   112    1
   100    74    73    1
   101   100    99    1
   102   104   103    1
   103   146   145    1
   104   146   147    1
   105    66    63    1
   106    62    63    1
   107    31    28    1
   108   147   148    2
   109   147   152   am
   110    29    30    2
   111    29    28    1
   112    73    70    1
   113    98    99    1
   114    98    95    1
   115    65    64    2
   116   164   163    1
   117   164   165    1
   118    99   101    1
   119    63    64    1
   120   152   153    1
   121    28    27    1
   122   103   102    1
   123   163   160    1
   124   102    96   am
   125    69    70    1
   126   160   159    1
   127   160   161    1
   128   159   165    1
   129   159   154   am
   130    96    97    2
   131    96    95    1
   132   154   155    2
   133   154   153    1
   134    70    71    1
   135   153   156    1
   136    95    94    1
   137    80    79    2
   138    94    88   am
   139    92    91    1
   140    71    72    2
   141    71    77   am
   142   161   162    2
   143    77    78    1
   144    88    87    1
   145    88    89    2
   146    79    86   am
   147    79    78    1
   148    87    86    1
   149    87    90    1
   150   156   158    1
   151   156   157    1
   152    91    90    1
   153    91    93    1
   154    78    81    1
   155    84    83   ar
   156    81    82    1
   157    82    83    1
   158    83    85   ar
