@<TRIPOS>MOLECULE
tmp/4g19A00.pdb
 181 179 0 0 0
SMALL
GASTEIGER

@<TRIPOS>ATOM
      1  N        -26.9700   61.3260  136.1260 N.3     9  ILE9       -0.1245
      2  CA       -26.7080   62.7610  136.2730 C.3     9  ILE9        0.1561
      3  C        -27.9830   63.5360  136.6060 C.2     9  ILE9        0.2260
      4  O        -28.9790   63.4460  135.8860 O.2     9  ILE9       -0.2867
      5  CB       -26.0620   63.3440  135.0030 C.3     9  ILE9        0.0252
      6  CG1      -24.7760   62.5780  134.6810 C.3     9  ILE9        0.0019
      7  CG2      -25.7670   64.8430  135.1830 C.3     9  ILE9        0.0019
      8  CD1      -24.1640   62.9200  133.3490 C.3     9  ILE9        0.0001
      9  N        -32.4680   62.6020  132.4970 N.3    20  TRP20      -0.1227
     10  CA       -32.6000   63.1990  131.1690 C.3    20  TRP20       0.1737
     11  C        -31.5890   62.6390  130.1630 C.2    20  TRP20       0.2596
     12  O        -31.8410   62.6600  128.9510 O.2    20  TRP20      -0.2718
     13  CB       -32.4250   64.7350  131.2830 C.3    20  TRP20       0.0564
     14  CG       -31.1260   65.0230  131.9300 C.ar   20  TRP20       0.0003
     15  CD1      -30.8860   65.1420  133.2650 C.ar   20  TRP20       0.0946
     16  CD2      -29.8510   65.1150  131.2810 C.ar   20  TRP20       0.0152
     17  NE1      -29.5420   65.3360  133.4860 N.ar   20  TRP20      -0.2442
     18  CE2      -28.8860   65.3220  132.2840 C.ar   20  TRP20       0.0810
     19  CE3      -29.4340   65.0640  129.9450 C.ar   20  TRP20       0.0012
     20  CZ2      -27.5310   65.4630  131.9970 C.ar   20  TRP20       0.0191
     21  CZ3      -28.0830   65.1890  129.6650 C.ar   20  TRP20       0.0001
     22  CH2      -27.1530   65.3990  130.6840 C.ar   20  TRP20       0.0015
     23  N        -30.4350   62.1660  130.6360 N.am   21  SER21      -0.1938
     24  CA       -29.3670   61.7650  129.7070 C.3    21  SER21       0.2040
     25  C        -29.7870   60.5970  128.8230 C.2    21  SER21       0.2485
     26  O        -30.3360   59.6390  129.3130 O.2    21  SER21      -0.2729
     27  CB       -28.0850   61.3740  130.4510 C.3    21  SER21       0.2129
     28  OG       -27.2720   60.5630  129.6090 O.3    21  SER21      -0.2179
     29  N        -29.5280   60.6930  127.5110 N.am   22  PRO22      -0.2715
     30  CA       -29.8720   59.6070  126.5890 C.3    22  PRO22       0.1536
     31  C        -29.0040   58.3900  126.8620 C.2    22  PRO22       0.2599
     32  O        -29.4200   57.2610  126.5900 O.2    22  PRO22      -0.2715
     33  CB       -29.5250   60.1890  125.2230 C.3    22  PRO22       0.0310
     34  CG       -28.4510   61.2090  125.5120 C.3    22  PRO22       0.0237
     35  CD       -28.8390   61.8040  126.8360 C.3    22  PRO22       0.0939
     36  N        -27.8020   58.6200  127.3870 N.am   23  ASN23      -0.1959
     37  CA       -26.9030   57.5190  127.7020 C.3    23  ASN23       0.1819
     38  C        -27.3240   56.7370  128.9420 C.2    23  ASN23       0.2621
     39  O        -27.3790   55.4950  128.9290 O.2    23  ASN23      -0.2715
     40  CB       -25.4530   58.0200  127.7910 C.3    23  ASN23       0.1195
     41  CG       -24.8790   58.3610  126.4180 C.2    23  ASN23       0.2630
     42  OD1      -25.1650   57.6850  125.4370 O.2    23  ASN23      -0.2716
     43  ND2      -24.0700   59.3930  126.3500 N.am   23  ASN23      -0.0877
     44  N        -27.6390   57.4470  130.0180 N.am   24  THR24      -0.1951
     45  CA       -28.0930   56.7510  131.2210 C.3    24  THR24       0.1897
     46  C        -29.4900   56.1950  131.0230 C.2    24  THR24       0.2313
     47  O        -29.8410   55.1510  131.6050 O.2    24  THR24      -0.2863
     48  CB       -28.0780   57.6570  132.4740 C.3    24  THR24       0.1794
     49  OG1      -29.0300   58.7070  132.3000 O.3    24  THR24      -0.2208
     50  CG2      -26.6900   58.2460  132.7100 C.3    24  THR24       0.0378
     51  N        -30.5850   54.6590  128.5090 N.3    26  LYS26      -0.1245
     52  CA       -30.5030   53.3230  127.8980 C.3    26  LYS26       0.1561
     53  C        -30.5290   52.2490  128.9910 C.2    26  LYS26       0.2260
     54  O        -31.1580   51.1980  128.8400 O.2    26  LYS26      -0.2867
     55  CB       -29.2510   53.1950  127.0300 C.3    26  LYS26       0.0271
     56  CG       -29.4080   53.8770  125.6540 C.3    26  LYS26       0.0035
     57  CD       -28.2160   53.6230  124.7530 C.3    26  LYS26       0.0206
     58  CE       -26.9660   54.4030  125.2010 C.3    26  LYS26       0.1093
     59  NZ       -25.8330   54.2290  124.2230 N.3    26  LYS26      -0.1314
     60  N        -21.6130   66.0650  136.6500 N.3    45  TYR45      -0.1241
     61  CA       -20.5730   65.8550  135.6380 C.3    45  TYR45       0.1605
     62  C        -19.1320   65.9170  136.1690 C.2    45  TYR45       0.2264
     63  O        -18.3600   64.9780  135.9520 O.2    45  TYR45      -0.2867
     64  CB       -20.7160   66.8450  134.4670 C.3    45  TYR45       0.0534
     65  CG       -21.5490   66.4090  133.2730 C.ar   45  TYR45      -0.0201
     66  CD1      -21.0220   65.5640  132.2950 C.ar   45  TYR45      -0.0009
     67  CD2      -22.8420   66.8940  133.0910 C.ar   45  TYR45      -0.0009
     68  CE1      -21.7810   65.1890  131.1800 C.ar   45  TYR45       0.0417
     69  CE2      -23.5980   66.5300  131.9920 C.ar   45  TYR45       0.0417
     70  CZ       -23.0660   65.6770  131.0400 C.ar   45  TYR45       0.1957
     71  OH       -23.8270   65.3450  129.9500 O.3    45  TYR45      -0.2866
     72  N        -17.9300   62.7690  138.2470 N.3    48  ILE48      -0.1245
     73  CA       -18.0500   61.4020  137.7350 C.3    48  ILE48       0.1561
     74  C        -16.7350   60.6210  137.8430 C.2    48  ILE48       0.2260
     75  O        -16.7190   59.4970  138.3360 O.2    48  ILE48      -0.2867
     76  CB       -18.5530   61.3720  136.2690 C.3    48  ILE48       0.0252
     77  CG1      -20.0160   61.8370  136.1860 C.3    48  ILE48       0.0019
     78  CG2      -18.4190   59.9590  135.6860 C.3    48  ILE48       0.0019
     79  CD1      -20.5110   62.0620  134.7320 C.3    48  ILE48       0.0001
     80  N        -14.2640   54.6090  130.3300 N.3    60  THR60      -0.1203
     81  CA       -14.8260   53.9210  129.1730 C.3    60  THR60       0.1994
     82  C        -14.1920   54.3350  127.8570 C.2    60  THR60       0.2617
     83  O        -14.4320   53.7120  126.8270 O.2    60  THR60      -0.2717
     84  CB       -16.3410   54.1270  129.0640 C.3    60  THR60       0.1784
     85  OG1      -16.6280   55.5330  129.0520 O.3    60  THR60      -0.2211
     86  CG2      -17.0480   53.4510  130.2360 C.3    60  THR60       0.0376
     87  N        -13.4040   55.3980  127.8740 N.am   61  GLU61      -0.1979
     88  CA       -12.7070   55.7930  126.6600 C.3    61  GLU61       0.1602
     89  C        -11.4590   56.6050  126.9490 C.2    61  GLU61       0.2287
     90  O        -11.0870   56.8240  128.1100 O.2    61  GLU61      -0.2864
     91  CB       -13.6360   56.5470  125.7030 C.3    61  GLU61       0.0415
     92  CG       -14.3390   57.7400  126.3130 C.3    61  GLU61       0.1163
     93  CD       -15.2160   58.4840  125.3120 C.2    61  GLU61       0.3649
     94  OE1      -16.2760   57.9390  124.9210 O.co2  61  GLU61      -0.2457
     95  OE2      -14.8440   59.6140  124.9170 O.co2  61  GLU61      -0.2457
     96  N        -11.0750   58.6960  130.3000 N.3    69  HIS69      -0.1226
     97  CA       -12.3550   59.3920  130.3060 C.3    69  HIS69       0.1752
     98  C        -13.4360   58.5400  130.9870 C.2    69  HIS69       0.2596
     99  O        -13.8170   57.4780  130.4830 O.2    69  HIS69      -0.2718
    100  CB       -12.7630   59.7560  128.8700 C.3    69  HIS69       0.0759
    101  CG       -13.9860   60.6220  128.7800 C.ar   69  HIS69       0.0818
    102  ND1      -14.0690   61.8610  129.3810 N.ar   69  HIS69      -0.2268
    103  CD2      -15.1700   60.4310  128.1500 C.ar   69  HIS69       0.1154
    104  CE1      -15.2530   62.3930  129.1280 C.ar   69  HIS69       0.1986
    105  NE2      -15.9400   61.5470  128.3810 N.ar   69  HIS69      -0.2212
    106  N        -13.9160   59.0070  132.1370 N.am   70  TYR70      -0.1962
    107  CA       -14.9550   58.3100  132.8890 C.3    70  TYR70       0.1771
    108  C        -16.3490   58.8020  132.4970 C.2    70  TYR70       0.2620
    109  O        -16.5610   59.9980  132.2950 O.2    70  TYR70      -0.2715
    110  CB       -14.7330   58.4820  134.3950 C.3    70  TYR70       0.0574
    111  CG       -13.4490   57.8500  134.8880 C.ar   70  TYR70      -0.0198
    112  CD1      -13.4550   56.5830  135.4660 C.ar   70  TYR70      -0.0009
    113  CD2      -12.2330   58.5110  134.7690 C.ar   70  TYR70      -0.0009
    114  CE1      -12.2920   55.9960  135.9100 C.ar   70  TYR70       0.0417
    115  CE2      -11.0580   57.9280  135.2110 C.ar   70  TYR70       0.0417
    116  CZ       -11.0960   56.6690  135.7790 C.ar   70  TYR70       0.1957
    117  OH        -9.9350   56.0820  136.2210 O.3    70  TYR70      -0.2866
    118  N        -17.2880   57.8640  132.3810 N.am   71  THR71      -0.1937
    119  CA       -18.6420   58.1650  131.9490 C.3    71  THR71       0.2028
    120  C        -19.7030   57.4630  132.7840 C.2    71  THR71       0.2642
    121  O        -19.4540   56.4180  133.4060 O.2    71  THR71      -0.2714
    122  CB       -18.8900   57.7440  130.4720 C.3    71  THR71       0.1808
    123  OG1      -18.5870   56.3500  130.3060 O.3    71  THR71      -0.2208
    124  CG2      -18.0420   58.5590  129.5150 C.3    71  THR71       0.0379
    125  N        -20.8980   58.0420  132.7640 N.am   72  LEU72      -0.1963
    126  CA       -22.0930   57.3680  133.2260 C.3    72  LEU72       0.1713
    127  C        -22.9210   56.9770  131.9960 C.2    72  LEU72       0.2458
    128  O        -22.8120   57.6070  130.9490 O.2    72  LEU72      -0.2730
    129  CB       -22.8930   58.2720  134.1730 C.3    72  LEU72       0.0310
    130  CG       -22.2100   58.6980  135.4810 C.3    72  LEU72       0.0022
    131  CD1      -23.1970   59.4990  136.3050 C.3    72  LEU72       0.0001
    132  CD2      -21.6870   57.4690  136.2800 C.3    72  LEU72       0.0001
    133  N        -23.7600   55.9370  132.1110 N.am   73  PRO73      -0.2727
    134  CA       -24.0870   55.1680  133.3070 C.3    73  PRO73       0.1402
    135  C        -22.9970   54.2130  133.7700 C.2    73  PRO73       0.2269
    136  O        -22.1700   53.7310  132.9930 O.2    73  PRO73      -0.2865
    137  CB       -25.3110   54.3580  132.8660 C.3    73  PRO73       0.0296
    138  CG       -25.0780   54.1220  131.4250 C.3    73  PRO73       0.0237
    139  CD       -24.4190   55.3850  130.9130 C.3    73  PRO73       0.0939
    140  N        -20.0610   51.5210  130.9700 N.3    86  ASP86      -0.1225
    141  CA       -20.3400   51.4920  129.5350 C.3    86  ASP86       0.1805
    142  C        -21.7070   50.8550  129.2820 C.2    86  ASP86       0.2598
    143  O        -21.8970   49.6660  129.5280 O.2    86  ASP86      -0.2718
    144  CB       -19.2320   50.7610  128.7610 C.3    86  ASP86       0.1424
    145  CG       -18.9750   51.3630  127.3980 C.2    86  ASP86       0.3668
    146  OD1      -19.8140   52.1590  126.9310 O.co2  86  ASP86      -0.2456
    147  OD2      -17.9290   51.0490  126.7970 O.co2  86  ASP86      -0.2456
    148  N        -22.6490   51.6550  128.7860 N.am   87  SER87      -0.1938
    149  CA       -24.0510   51.2470  128.6990 C.3    87  SER87       0.2055
    150  C        -24.2760   49.9220  127.9410 C.2    87  SER87       0.2642
    151  O        -25.0450   49.0830  128.3910 O.2    87  SER87      -0.2714
    152  CB       -24.9150   52.3630  128.1020 C.3    87  SER87       0.2130
    153  OG       -24.5280   52.6930  126.7700 O.3    87  SER87      -0.2179
    154  N        -23.6060   49.7280  126.8130 N.am   88  ALA88      -0.1977
    155  CA       -23.8210   48.5040  126.0340 C.3    88  ALA88       0.1597
    156  C        -23.3590   47.2890  126.8420 C.2    88  ALA88       0.2287
    157  O        -24.0170   46.2470  126.8520 O.2    88  ALA88      -0.2864
    158  CB       -23.0890   48.5680  124.6870 C.3    88  ALA88       0.0319
    159  N        -19.1710   72.7420  133.6930 N.3   147  TYR147     -0.1241
    160  CA       -18.3590   71.6980  133.0510 C.3   147  TYR147      0.1605
    161  C        -18.8880   71.3320  131.6630 C.2   147  TYR147      0.2264
    162  O        -18.1340   71.2300  130.7040 O.2   147  TYR147     -0.2867
    163  CB       -18.3390   70.4540  133.9470 C.3   147  TYR147      0.0534
    164  CG       -17.6460   69.2280  133.3580 C.ar  147  TYR147     -0.0201
    165  CD1      -16.3200   68.9450  133.6720 C.ar  147  TYR147     -0.0009
    166  CD2      -18.3210   68.3510  132.5000 C.ar  147  TYR147     -0.0009
    167  CE1      -15.6760   67.8300  133.1550 C.ar  147  TYR147      0.0417
    168  CE2      -17.6740   67.2210  131.9720 C.ar  147  TYR147      0.0417
    169  CZ       -16.3530   66.9730  132.3090 C.ar  147  TYR147      0.1957
    170  OH       -15.6870   65.8660  131.8050 O.3   147  TYR147     -0.2866
    171  N        -18.3150   70.9540  125.9730 N.3   152  ARG152     -0.1245
    172  CA       -19.0570   70.8070  124.7330 C.3   152  ARG152      0.1563
    173  C        -18.8170   71.9680  123.7620 C.2   152  ARG152      0.2260
    174  O        -18.7230   71.7670  122.5500 O.2   152  ARG152     -0.2867
    175  CB       -20.5450   70.5940  125.0090 C.3   152  ARG152      0.0307
    176  CG       -20.9290   69.1330  125.2620 C.3   152  ARG152      0.0489
    177  CD       -20.2650   68.5510  126.5110 C.3   152  ARG152      0.2205
    178  NE       -20.6430   67.1550  126.7370 N.pl3 152  ARG152     -0.0865
    179  CZ       -20.0980   66.3720  127.6640 C.cat 152  ARG152      0.5346
    180  NH1      -19.1300   66.8370  128.4520 N.pl3 152  ARG152      0.1354
    181  NH2      -20.5060   65.1180  127.7900 N.pl3 152  ARG152      0.1354
@<TRIPOS>BOND
     1   174   173    2
     2   173   172    1
     3    59    58    1
     4   158   155    1
     5   172   175    1
     6   172   171    1
     7    57    58    1
     8    57    56    1
     9    95    93   ar
    10    94    93   ar
    11   175   176    1
    12    33    34    1
    13    33    30    1
    14   176   177    1
    15    93    92    1
    16    42    41    2
    17    34    35    1
    18    56    55    1
    19    91    92    1
    20    91    88    1
    21   155   154    1
    22   155   156    1
    23    43    41   am
    24    41    40    1
    25   177   178    1
    26    30    31    1
    27    30    29    1
    28    32    31    2
    29    88    89    1
    30    88    87    1
    31   178   179    2
    32   153   152    1
    33   147   145   ar
    34   154   150   am
    35    83    82    2
    36    35    29    1
    37   156   157    2
    38    31    36   am
    39   146   145   ar
    40    89    90    2
    41    55    52    1
    42    36    37    1
    43   145   144    1
    44    29    25   am
    45   179   181    1
    46   179   180    1
    47    37    40    1
    48    37    38    1
    49    82    87   am
    50    82    81    1
    51    52    51    1
    52    52    53    1
    53   150   151    2
    54   150   149    1
    55   152   149    1
    56   103   105   ar
    57   103   101   ar
    58   105   104   ar
    59   149   148    1
    60   144   141    1
    61   101   100    1
    62   101   102   ar
    63   148   142   am
    64    25    26    2
    65    25    24    1
    66    54    53    2
    67   100    97    1
    68    39    38    2
    69    38    44   am
    70    12    11    2
    71    85    84    1
    72    84    81    1
    73    84    86    1
    74   104   102   ar
    75    81    80    1
    76   142   143    2
    77   142   141    1
    78   124   122    1
    79   141   140    1
    80    28    27    1
    81    21    19   ar
    82    21    22   ar
    83    24    27    1
    84    24    23    1
    85    19    16   ar
    86    71    70    1
    87    44    45    1
    88    11    23   am
    89    11    10    1
    90    96    97    1
    91    97    98    1
    92   123   122    1
    93   122   119    1
    94    99    98    2
    95    22    20   ar
    96   162   161    2
    97   139   138    1
    98   139   133    1
    99   128   127    2
   100    98   106   am
   101    46    45    1
   102    46    47    2
   103    70    68   ar
   104    70    69   ar
   105    10    13    1
   106    10     9    1
   107    68    66   ar
   108    45    48    1
   109    16    14   ar
   110    16    18   ar
   111    13    14    1
   112   138   137    1
   113   161   160    1
   114   170   169    1
   115    14    15   ar
   116   119   118    1
   117   119   120    1
   118   168   169   ar
   119   168   166   ar
   120    69    67   ar
   121   127   133   am
   122   127   126    1
   123    20    18   ar
   124   133   134    1
   125   106   107    1
   126    18    17   ar
   127   109   108    2
   128    66    65   ar
   129    49    48    1
   130   169   167   ar
   131   118   108   am
   132    48    50    1
   133   108   107    1
   134   166   164   ar
   135   125   120   am
   136   125   126    1
   137   120   121    2
   138   137   134    1
   139   107   110    1
   140   136   135    2
   141   160   159    1
   142   160   163    1
   143    67    65   ar
   144   167   165   ar
   145   126   129    1
   146    15    17   ar
   147    65    64    1
   148   134   135    1
   149     8     6    1
   150   164   165   ar
   151   164   163    1
   152   129   130    1
   153   110   111    1
   154    64    61    1
   155     6     5    1
   156    79    77    1
   157   113   111   ar
   158   113   115   ar
   159   111   112   ar
   160     5     7    1
   161     5     2    1
   162   115   116   ar
   163   112   114   ar
   164   130   132    1
   165   130   131    1
   166    61    62    1
   167    61    60    1
   168    78    76    1
   169   116   114   ar
   170   116   117    1
   171     4     3    2
   172    63    62    2
   173     1     2    1
   174    77    76    1
   175    76    73    1
   176     2     3    1
   177    73    74    1
   178    73    72    1
   179    74    75    2
