@<TRIPOS>MOLECULE
tmp/4g1bD01.pdb
 219 214 0 0 0
SMALL
GASTEIGER

@<TRIPOS>ATOM
      1  N         25.8770   44.0970   93.0770 N.3    44  ASN44      -0.1240
      2  CA        25.4450   43.1310   92.0730 C.3    44  ASN44       0.1653
      3  C         24.2580   42.3460   92.6190 C.2    44  ASN44       0.2266
      4  O         24.4040   41.5390   93.5430 O.2    44  ASN44      -0.2867
      5  CB        26.5950   42.1710   91.7700 C.3    44  ASN44       0.1155
      6  CG        26.3220   41.2650   90.5800 C.2    44  ASN44       0.2627
      7  OD1       25.2140   41.2110   90.0440 O.2    44  ASN44      -0.2716
      8  ND2       27.3500   40.5410   90.1630 N.am   44  ASN44      -0.0877
      9  N         22.5770   39.9360   91.8070 N.3    46  THR46      -0.1218
     10  CA        22.5760   38.4780   91.6340 C.3    46  THR46       0.1862
     11  C         23.3310   37.7650   92.7660 C.2    46  THR46       0.2287
     12  O         23.0320   36.6120   93.0850 O.2    46  THR46      -0.2866
     13  CB        23.1310   38.0610   90.2420 C.3    46  THR46       0.1770
     14  OG1       22.7250   39.0140   89.2610 O.3    46  THR46      -0.2211
     15  CG2       22.5780   36.7340   89.8130 C.3    46  THR46       0.0375
     16  N         21.1260   36.2100   95.4280 N.3    49  LYS49      -0.1231
     17  CA        20.2320   35.1350   95.0180 C.3    49  LYS49       0.1693
     18  C         20.9630   33.8830   94.5190 C.2    49  LYS49       0.2591
     19  O         20.3180   32.9110   94.1310 O.2    49  LYS49      -0.2718
     20  CB        19.2520   35.6450   93.9580 C.3    49  LYS49       0.0285
     21  CG        18.6720   37.0190   94.2640 C.3    49  LYS49       0.0035
     22  CD        17.1810   36.9450   94.5400 C.3    49  LYS49       0.0206
     23  CE        16.5480   38.3280   94.5070 C.3    49  LYS49       0.1093
     24  NZ        15.4200   38.3910   93.5380 N.3    49  LYS49      -0.1314
     25  N         22.2980   33.9010   94.5440 N.am   50  VAL50      -0.1980
     26  CA        23.1040   32.7950   94.0010 C.3    50  VAL50       0.1595
     27  C         24.1700   32.2910   94.9740 C.2    50  VAL50       0.2287
     28  O         23.9780   31.2730   95.6440 O.2    50  VAL50      -0.2864
     29  CB        23.7960   33.1770   92.6540 C.3    50  VAL50       0.0276
     30  CG1       24.4890   31.9620   92.0200 C.3    50  VAL50       0.0022
     31  CG2       22.8040   33.7760   91.6890 C.3    50  VAL50       0.0022
     32  N         39.3210   44.4850   97.1500 N.3    84  LYS84      -0.1245
     33  CA        38.0270   44.4760   96.4000 C.3    84  LYS84       0.1561
     34  C         37.2550   45.7630   96.5690 C.2    84  LYS84       0.2260
     35  O         36.7190   46.2830   95.5830 O.2    84  LYS84      -0.2867
     36  CB        37.0960   43.3390   96.8150 C.3    84  LYS84       0.0271
     37  CG        37.6940   42.0010   96.6990 C.3    84  LYS84       0.0035
     38  CD        36.8300   41.1300   95.8990 C.3    84  LYS84       0.0206
     39  CE        37.6730   39.9920   95.3790 C.3    84  LYS84       0.1093
     40  NZ        37.3680   38.7010   96.0750 N.3    84  LYS84      -0.1314
     41  N         44.1690   40.9520   90.0200 N.3   189  TYR189     -0.1241
     42  CA        43.0530   41.1390   89.1020 C.3   189  TYR189      0.1605
     43  C         42.8360   42.6250   88.8570 C.2   189  TYR189      0.2264
     44  O         43.2040   43.4700   89.6960 O.2   189  TYR189     -0.2867
     45  CB        41.7840   40.5060   89.6610 C.3   189  TYR189      0.0534
     46  CG        41.4550   40.9610   91.0480 C.ar  189  TYR189     -0.0201
     47  CD1       40.6000   42.0560   91.2660 C.ar  189  TYR189     -0.0009
     48  CD2       42.0080   40.3170   92.1680 C.ar  189  TYR189     -0.0009
     49  CE1       40.2950   42.4960   92.5860 C.ar  189  TYR189      0.0417
     50  CE2       41.7190   40.7410   93.4820 C.ar  189  TYR189      0.0417
     51  CZ        40.8690   41.8280   93.6720 C.ar  189  TYR189      0.1957
     52  OH        40.5740   42.2430   94.9370 O.3   189  TYR189     -0.2866
     53  N         32.8630   44.0280   87.5470 N.3   207  ARG207     -0.1231
     54  CA        33.4000   42.6760   87.8070 C.3   207  ARG207      0.1694
     55  C         34.9330   42.6320   87.7970 C.2   207  ARG207      0.2592
     56  O         35.5770   43.2740   86.9380 O.2   207  ARG207     -0.2718
     57  CB        32.8640   41.6620   86.7870 C.3   207  ARG207      0.0321
     58  CG        31.4120   41.7760   86.4860 C.3   207  ARG207      0.0489
     59  CD        30.5880   40.8760   87.3780 C.3   207  ARG207      0.2205
     60  NE        29.1610   41.0460   87.0750 N.pl3 207  ARG207     -0.0865
     61  CZ        28.3600   41.9260   87.6750 C.cat 207  ARG207      0.5346
     62  NH1       28.8110   42.7280   88.6220 N.pl3 207  ARG207      0.1354
     63  NH2       27.0910   41.9960   87.3350 N.pl3 207  ARG207      0.1354
     64  N         35.5070   41.8650   88.7220 N.am  208  HIS208     -0.1962
     65  CA        36.9480   41.5750   88.6920 C.3   208  HIS208      0.1787
     66  C         37.3430   40.5380   87.6540 C.2   208  HIS208      0.2620
     67  O         36.7250   39.4820   87.5740 O.2   208  HIS208     -0.2715
     68  CB        37.4090   41.0790   90.0540 C.3   208  HIS208      0.0785
     69  CG        36.8120   41.8370   91.1920 C.ar  208  HIS208      0.0821
     70  ND1       36.8520   43.2160   91.2650 N.ar  208  HIS208     -0.2267
     71  CD2       36.1440   41.4160   92.2920 C.ar  208  HIS208      0.1154
     72  CE1       36.2330   43.6110   92.3610 C.ar  208  HIS208      0.1986
     73  NE2       35.7950   42.5390   93.0030 N.ar  208  HIS208     -0.2212
     74  N         38.3760   40.8160   86.8740 N.am  209  TYR209     -0.1960
     75  CA        39.0030   39.7590   86.0890 C.3   209  TYR209      0.1771
     76  C         40.5180   39.6700   86.2870 C.2   209  TYR209      0.2620
     77  O         41.2210   40.6700   86.1400 O.2   209  TYR209     -0.2715
     78  CB        38.6480   39.8990   84.6070 C.3   209  TYR209      0.0574
     79  CG        37.1660   39.7920   84.3670 C.ar  209  TYR209     -0.0198
     80  CD1       36.5150   38.5560   84.4650 C.ar  209  TYR209     -0.0009
     81  CD2       36.4080   40.9240   84.0700 C.ar  209  TYR209     -0.0009
     82  CE1       35.1460   38.4580   84.2700 C.ar  209  TYR209      0.0417
     83  CE2       35.0410   40.8410   83.8670 C.ar  209  TYR209      0.0417
     84  CZ        34.4070   39.6160   83.9730 C.ar  209  TYR209      0.1957
     85  OH        33.0390   39.5660   83.7960 O.3   209  TYR209     -0.2866
     86  N         40.9980   38.4740   86.6300 N.am  210  SER210     -0.1950
     87  CA        42.4310   38.1670   86.8040 C.3   210  SER210      0.1924
     88  C         43.2400   38.4440   85.5370 C.2   210  SER210      0.2314
     89  O         42.8280   38.0070   84.4390 O.2   210  SER210     -0.2863
     90  CB        42.6230   36.6810   87.1780 C.3   210  SER210      0.2116
     91  OG        42.4040   36.4190   88.5600 O.3   210  SER210     -0.2180
     92  N         41.0160   37.3550   80.9090 N.3   223  ALA223     -0.1231
     93  CA        40.2530   36.3240   80.1840 C.3   223  ALA223      0.1694
     94  C         38.9260   36.0700   80.8570 C.2   223  ALA223      0.2592
     95  O         38.8920   35.8590   82.0680 O.2   223  ALA223     -0.2718
     96  CB        41.0660   35.0210   80.0630 C.3   223  ALA223      0.0304
     97  N         37.8550   36.0970   80.0490 N.am  224  VAL224     -0.1966
     98  CA        36.4680   36.0280   80.5290 C.3   224  VAL224      0.1727
     99  C         35.7500   34.7870   80.0550 C.2   224  VAL224      0.2616
    100  O         35.6380   34.5430   78.8540 O.2   224  VAL224     -0.2715
    101  CB        35.6520   37.2640   80.0570 C.3   224  VAL224      0.0290
    102  CG1       34.1580   37.0540   80.3150 C.3   224  VAL224      0.0023
    103  CG2       36.1130   38.5090   80.7680 C.3   224  VAL224      0.0023
    104  N         35.2590   34.0060   81.0130 N.am  225  LYS225     -0.1977
    105  CA        34.5010   32.7780   80.7110 C.3   225  LYS225      0.1596
    106  C         33.0470   33.1470   80.5070 C.2   225  LYS225      0.2287
    107  O         32.5130   33.9310   81.2970 O.2   225  LYS225     -0.2864
    108  CB        34.6160   31.7660   81.8470 C.3   225  LYS225      0.0298
    109  CG        33.9490   30.4780   81.5070 C.3   225  LYS225      0.0038
    110  CD        33.1460   29.8910   82.6510 C.3   225  LYS225      0.0206
    111  CE        33.0200   28.3610   82.5000 C.3   225  LYS225      0.1093
    112  NZ        33.5080   27.8250   81.1660 N.3   225  LYS225     -0.1314
    113  N         29.5030   32.7320   81.0720 N.3   227  GLU227     -0.1231
    114  CA        28.5560   32.2150   82.0410 C.3   227  GLU227      0.1699
    115  C         27.1950   32.1450   81.3330 C.2   227  GLU227      0.2592
    116  O         26.4240   33.0970   81.3860 O.2   227  GLU227     -0.2718
    117  CB        28.5220   33.2120   83.2130 C.3   227  GLU227      0.0402
    118  CG        28.7310   32.6870   84.6350 C.3   227  GLU227      0.1161
    119  CD        29.9800   31.8620   84.8510 C.2   227  GLU227      0.3649
    120  OE1       31.0830   32.4530   84.9270 O.co2 227  GLU227     -0.2457
    121  OE2       29.8490   30.6170   84.9910 O.co2 227  GLU227     -0.2457
    122  N         26.9180   31.0250   80.6540 N.am  228  ALA228     -0.1980
    123  CA        25.6970   30.8530   79.8300 C.3   228  ALA228      0.1597
    124  C         24.4180   30.5370   80.6260 C.2   228  ALA228      0.2287
    125  O         24.4600   30.3360   81.8420 O.2   228  ALA228     -0.2864
    126  CB        25.9320   29.8140   78.7650 C.3   228  ALA228      0.0319
    127  N         18.2270   29.7060   84.4590 N.3   233  PHE233     -0.1228
    128  CA        18.1490   31.1090   84.8080 C.3   233  PHE233      0.1721
    129  C         18.7880   31.8830   83.6730 C.2   233  PHE233      0.2437
    130  O         19.0540   31.2990   82.6300 O.2   233  PHE233     -0.2733
    131  CB        18.8770   31.3560   86.1320 C.3   233  PHE233      0.0547
    132  CG        19.9540   30.3540   86.4400 C.ar  233  PHE233     -0.0202
    133  CD1       21.2360   30.5020   85.8990 C.ar  233  PHE233     -0.0042
    134  CD2       19.6970   29.2710   87.2870 C.ar  233  PHE233     -0.0042
    135  CE1       22.2480   29.5800   86.1860 C.ar  233  PHE233     -0.0003
    136  CE2       20.6930   28.3380   87.5790 C.ar  233  PHE233     -0.0003
    137  CZ        21.9760   28.4920   87.0290 C.ar  233  PHE233     -0.0000
    138  N         19.0360   33.1810   83.8460 N.am  234  PRO234     -0.2718
    139  CA        19.6300   33.9600   82.7560 C.3   234  PRO234      0.1535
    140  C         21.1660   33.8720   82.7200 C.2   234  PRO234      0.2598
    141  O         21.7960   33.4420   83.6990 O.2   234  PRO234     -0.2715
    142  CB        19.1680   35.3890   83.0640 C.3   234  PRO234      0.0310
    143  CG        19.0750   35.4250   84.5500 C.3   234  PRO234      0.0237
    144  CD        18.6820   34.0410   84.9940 C.3   234  PRO234      0.0939
    145  N         21.7510   34.2790   81.5940 N.am  235  ALA235     -0.1964
    146  CA        23.1990   34.3460   81.4440 C.3   235  ALA235      0.1728
    147  C         23.7690   35.3880   82.3880 C.2   235  ALA235      0.2617
    148  O         23.0820   36.3330   82.7620 O.2   235  ALA235     -0.2715
    149  CB        23.5540   34.6970   80.0430 C.3   235  ALA235      0.0334
    150  N         25.0270   35.2160   82.7800 N.am  236  GLY236     -0.1940
    151  CA        25.7160   36.2140   83.5940 C.3   236  GLY236      0.2014
    152  C         25.7830   37.5360   82.8620 C.2   236  GLY236      0.2639
    153  O         26.1210   37.5720   81.6770 O.2   236  GLY236     -0.2714
    154  N         25.4690   38.6240   83.5630 N.am  237  LEU237     -0.1963
    155  CA        25.2600   39.9290   82.9040 C.3   237  LEU237      0.1728
    156  C         26.4380   40.5050   82.0560 C.2   237  LEU237      0.2616
    157  O         26.2670   40.8680   80.8920 O.2   237  LEU237     -0.2715
    158  CB        24.7570   40.9600   83.9140 C.3   237  LEU237      0.0311
    159  CG        24.2570   42.1740   83.1490 C.3   237  LEU237      0.0022
    160  CD1       22.9550   41.8980   82.4470 C.3   237  LEU237      0.0001
    161  CD2       24.1320   43.3400   84.0630 C.3   237  LEU237      0.0001
    162  N         27.6110   40.6020   82.6750 N.am  238  VAL238     -0.1963
    163  CA        28.8110   41.1950   82.0660 C.3   238  VAL238      0.1727
    164  C         29.5660   40.1790   81.2040 C.2   238  VAL238      0.2616
    165  O         30.1070   40.5150   80.1440 O.2   238  VAL238     -0.2715
    166  CB        29.7820   41.7490   83.1450 C.3   238  VAL238      0.0290
    167  CG1       31.0270   42.3170   82.4780 C.3   238  VAL238      0.0023
    168  CG2       29.0860   42.7630   84.0510 C.3   238  VAL238      0.0023
    169  N         29.6400   38.9360   81.6580 N.am  239  SER239     -0.1950
    170  CA        30.2790   37.9240   80.8230 C.3   239  SER239      0.1924
    171  C         29.5800   37.8770   79.4370 C.2   239  SER239      0.2314
    172  O         30.2450   37.8490   78.4130 O.2   239  SER239     -0.2863
    173  CB        30.3410   36.5540   81.5230 C.3   239  SER239      0.2116
    174  OG        29.3290   35.6760   81.0430 O.3   239  SER239     -0.2180
    175  N         38.0860   28.4850   84.5430 N.3   282  VAL282     -0.1245
    176  CA        38.7120   29.7590   84.1700 C.3   282  VAL282      0.1561
    177  C         39.6980   30.2200   85.2070 C.2   282  VAL282      0.2260
    178  O         40.4320   31.1710   85.0030 O.2   282  VAL282     -0.2867
    179  CB        37.6690   30.8630   83.9310 C.3   282  VAL282      0.0252
    180  CG1       36.9430   31.2530   85.2280 C.3   282  VAL282      0.0019
    181  CG2       38.3080   32.0800   83.2590 C.3   282  VAL282      0.0019
    182  N         43.6370   31.2880   85.1520 N.3   285  THR285     -0.1218
    183  CA        44.1420   32.5370   84.6160 C.3   285  THR285      0.1862
    184  C         45.2730   33.1570   85.4310 C.2   285  THR285      0.2287
    185  O         46.3530   33.4300   84.8750 O.2   285  THR285     -0.2866
    186  CB        43.0310   33.5300   84.3630 C.3   285  THR285      0.1770
    187  OG1       41.9080   32.8480   83.8020 O.3   285  THR285     -0.2211
    188  CG2       43.4880   34.6150   83.3820 C.3   285  THR285      0.0375
    189  N         42.8010   31.9410   95.8570 N.3   388  GLU388     -0.1231
    190  CA        42.0420   33.1000   95.3890 C.3   388  GLU388      0.1684
    191  C         40.7090   32.6460   94.7680 C.2   388  GLU388      0.2434
    192  O         40.6840   32.1870   93.6200 O.2   388  GLU388     -0.2733
    193  CB        42.8520   33.8630   94.3460 C.3   388  GLU388      0.0402
    194  CG        42.0540   34.9190   93.6180 C.3   388  GLU388      0.1161
    195  CD        42.4850   36.3340   93.9720 C.2   388  GLU388      0.3649
    196  OE1       42.2720   36.7820   95.1250 O.co2 388  GLU388     -0.2457
    197  OE2       43.0450   37.0030   93.0760 O.co2 388  GLU388     -0.2457
    198  N         39.6090   32.7660   95.5130 N.am  389  PRO389     -0.2718
    199  CA        38.3150   32.2980   95.0150 C.3   389  PRO389      0.1535
    200  C         37.6850   33.2610   94.0340 C.2   389  PRO389      0.2599
    201  O         37.8750   34.4640   94.1570 O.2   389  PRO389     -0.2715
    202  CB        37.4530   32.2050   96.2800 C.3   389  PRO389      0.0310
    203  CG        38.3150   32.6680   97.4350 C.3   389  PRO389      0.0237
    204  CD        39.7260   32.5910   96.9740 C.3   389  PRO389      0.0939
    205  N         36.9360   32.7320   93.0730 N.am  390  PHE390     -0.1960
    206  CA        36.2450   33.5570   92.0800 C.3   390  PHE390      0.1771
    207  C         34.8430   33.9110   92.5620 C.2   390  PHE390      0.2620
    208  O         33.9050   34.0390   91.7720 O.2   390  PHE390     -0.2715
    209  CB        36.2310   32.8930   90.6860 C.3   390  PHE390      0.0574
    210  CG        37.5160   33.0860   89.8890 C.ar  390  PHE390     -0.0200
    211  CD1       38.6160   33.7460   90.4400 C.ar  390  PHE390     -0.0042
    212  CD2       37.6300   32.5990   88.5870 C.ar  390  PHE390     -0.0042
    213  CE1       39.8110   33.9230   89.7080 C.ar  390  PHE390     -0.0003
    214  CE2       38.8230   32.7720   87.8490 C.ar  390  PHE390     -0.0003
    215  CZ        39.9080   33.4390   88.4140 C.ar  390  PHE390     -0.0000
    216  N         34.7300   34.0700   93.8780 N.am  391  GLY391     -0.1954
    217  CA        33.5440   34.6030   94.5500 C.3   391  GLY391      0.1869
    218  C         33.9790   35.1510   95.9020 C.2   391  GLY391      0.2309
    219  O         35.1700   35.4050   96.1010 O.2   391  GLY391     -0.2863
@<TRIPOS>BOND
     1   172   171    2
     2   126   123    1
     3   100    99    2
     4   171   170    1
     5   123   124    1
     6   123   122    1
     7   149   146    1
     8    97    98    1
     9    97    94   am
    10    99    98    1
    11    99   104   am
    12   101   102    1
    13   101    98    1
    14   101   103    1
    15    96    93    1
    16   165   164    2
    17    93    94    1
    18    93    92    1
    19   106   105    1
    20   106   107    2
    21   124   125    2
    22   122   115   am
    23   105   104    1
    24   105   108    1
    25   170   173    1
    26   170   169    1
    27    94    95    2
    28   157   156    2
    29   174   173    1
    30   113   114    1
    31   112   111    1
    32   164   169   am
    33   164   163    1
    34   115   116    2
    35   115   114    1
    36   146   145    1
    37   146   147    1
    38   109   108    1
    39   109   110    1
    40   145   140   am
    41   153   152    2
    42   114   117    1
    43   156   162   am
    44   156   155    1
    45   163   162    1
    46   163   166    1
    47   147   148    2
    48   147   150   am
    49   160   159    1
    50   167   166    1
    51   111   110    1
    52   130   129    2
    53   140   139    1
    54   140   141    2
    55   139   142    1
    56   139   138    1
    57   150   151    1
    58   152   154   am
    59   152   151    1
    60   155   154    1
    61   155   158    1
    62   142   143    1
    63   166   168    1
    64   159   158    1
    65   159   161    1
    66   117   118    1
    67   181   179    1
    68   188   186    1
    69   129   138   am
    70   129   128    1
    71    85    84    1
    72   187   186    1
    73   138   144    1
    74    83    84   ar
    75    83    81   ar
    76   179   176    1
    77   179   180    1
    78    84    82   ar
    79    81    79   ar
    80   176   175    1
    81   176   177    1
    82    82    80   ar
    83   186   183    1
    84    79    80   ar
    85    79    78    1
    86    89    88    2
    87   127   128    1
    88   143   144    1
    89    78    75    1
    90   183   182    1
    91   183   184    1
    92   118   119    1
    93   128   131    1
    94   119   120   ar
    95   119   121   ar
    96   185   184    2
    97   178   177    2
    98    88    87    1
    99   133   135   ar
   100   133   132   ar
   101    75    76    1
   102    75    74    1
   103   131   132    1
   104    77    76    2
   105   135   137   ar
   106    76    86   am
   107   132   134   ar
   108    58    57    1
   109    58    59    1
   110    86    87    1
   111    57    54    1
   112    87    90    1
   113    74    66   am
   114    56    55    2
   115   137   136   ar
   116    60    59    1
   117    60    61    2
   118    90    91    1
   119   134   136   ar
   120    63    61    1
   121    53    54    1
   122    67    66    2
   123    66    65    1
   124    61    62    1
   125    55    54    1
   126    55    64   am
   127   214   215   ar
   128   214   212   ar
   129   215   213   ar
   130   212   210   ar
   131    65    64    1
   132    65    68    1
   133    43    42    1
   134    43    44    2
   135    42    45    1
   136    42    41    1
   137    14    13    1
   138    45    46    1
   139   213   211   ar
   140    15    13    1
   141   210   211   ar
   142   210   209    1
   143     7     6    2
   144    68    69    1
   145     8     6   am
   146    13    10    1
   147     6     5    1
   148   209   206    1
   149    46    47   ar
   150    46    48   ar
   151    69    70   ar
   152    69    71   ar
   153    70    72   ar
   154    47    49   ar
   155    10     9    1
   156    10    11    1
   157    31    29    1
   158     5     2    1
   159   208   207    2
   160    30    29    1
   161     2     3    1
   162     2     1    1
   163   206   207    1
   164   206   205    1
   165    48    50   ar
   166    71    73   ar
   167    72    73   ar
   168   207   216   am
   169    49    51   ar
   170     3     4    2
   171    29    26    1
   172    11    12    2
   173   205   200   am
   174   197   195   ar
   175    50    51   ar
   176    24    23    1
   177   194   195    1
   178   194   193    1
   179   192   191    2
   180    51    52    1
   181   216   217    1
   182    20    21    1
   183    20    17    1
   184   195   196   ar
   185    26    25    1
   186    26    27    1
   187   200   201    2
   188   200   199    1
   189    19    18    2
   190    21    22    1
   191   193   190    1
   192    23    22    1
   193    18    25   am
   194    18    17    1
   195   217   218    1
   196   191   190    1
   197   191   198   am
   198    27    28    2
   199   199   198    1
   200   199   202    1
   201    17    16    1
   202    39    38    1
   203    39    40    1
   204   190   189    1
   205   198   204    1
   206    35    34    2
   207    38    37    1
   208   218   219    2
   209   202   203    1
   210    33    34    1
   211    33    36    1
   212    33    32    1
   213    37    36    1
   214   204   203    1
