@<TRIPOS>MOLECULE
tmp/4g1bD00.pdb
 238 229 0 0 0
SMALL
GASTEIGER

@<TRIPOS>ATOM
      1  N         18.7620   44.7160  102.3130 N.3    29  TYR29      -0.1241
      2  CA        18.9570   45.0350  100.9040 C.3    29  TYR29       0.1605
      3  C         17.6860   45.6460  100.3150 C.2    29  TYR29       0.2264
      4  O         17.7520   46.6310   99.5690 O.2    29  TYR29      -0.2867
      5  CB        19.4240   43.8190  100.0840 C.3    29  TYR29       0.0534
      6  CG        20.8950   43.4640  100.2190 C.ar   29  TYR29      -0.0201
      7  CD1       21.8980   44.3270   99.7620 C.ar   29  TYR29      -0.0009
      8  CD2       21.2810   42.2490  100.7920 C.ar   29  TYR29      -0.0009
      9  CE1       23.2500   43.9890   99.8850 C.ar   29  TYR29       0.0417
     10  CE2       22.6240   41.9030  100.9210 C.ar   29  TYR29       0.0417
     11  CZ        23.6090   42.7780  100.4680 C.ar   29  TYR29       0.1957
     12  OH        24.9450   42.4300  100.5990 O.3    29  TYR29      -0.2866
     13  N         22.9070   53.0140   94.2480 N.3    39  LEU39      -0.1245
     14  CA        23.7940   51.9990   94.7960 C.3    39  LEU39       0.1561
     15  C         23.8080   50.7270   93.9530 C.2    39  LEU39       0.2260
     16  O         24.7210   49.9170   94.0570 O.2    39  LEU39      -0.2867
     17  CB        23.4140   51.7040   96.2490 C.3    39  LEU39       0.0270
     18  CG        24.3470   52.1610   97.4000 C.3    39  LEU39       0.0019
     19  CD1       25.2850   53.3230   97.0450 C.3    39  LEU39       0.0001
     20  CD2       23.5710   52.4860   98.6930 C.3    39  LEU39       0.0001
     21  N         26.8370   49.7900   92.1590 N.3    42  ILE42      -0.1231
     22  CA        27.9160   49.2010   92.9320 C.3    42  ILE42       0.1692
     23  C         27.5750   47.7550   93.2760 C.2    42  ILE42       0.2592
     24  O         28.3300   46.8550   92.9300 O.2    42  ILE42      -0.2718
     25  CB        28.2250   50.0260   94.1780 C.3    42  ILE42       0.0266
     26  CG1       28.9030   51.3440   93.7740 C.3    42  ILE42       0.0019
     27  CG2       29.1190   49.2370   95.1020 C.3    42  ILE42       0.0020
     28  CD1       28.9950   52.4040   94.8660 C.3    42  ILE42       0.0001
     29  N         26.4380   47.5200   93.9220 N.am   43  PHE43      -0.1962
     30  CA        26.0500   46.1570   94.2830 C.3    43  PHE43       0.1771
     31  C         25.5610   45.3910   93.0800 C.2    43  PHE43       0.2619
     32  O         24.9670   45.9660   92.1750 O.2    43  PHE43      -0.2715
     33  CB        25.0010   46.1600   95.3780 C.3    43  PHE43       0.0574
     34  CG        25.5440   46.5580   96.7090 C.ar   43  PHE43      -0.0200
     35  CD1       26.2470   45.6420   97.4840 C.ar   43  PHE43      -0.0042
     36  CD2       25.3840   47.8650   97.1850 C.ar   43  PHE43      -0.0042
     37  CE1       26.7630   46.0130   98.7310 C.ar   43  PHE43      -0.0003
     38  CE2       25.8990   48.2460   98.4250 C.ar   43  PHE43      -0.0003
     39  CZ        26.5910   47.3220   99.2000 C.ar   43  PHE43      -0.0000
     40  N         25.8770   44.0970   93.0770 N.am   44  ASN44      -0.1972
     41  CA        25.4450   43.1310   92.0730 C.3    44  ASN44       0.1688
     42  C         24.2580   42.3460   92.6190 C.2    44  ASN44       0.2292
     43  O         24.4040   41.5390   93.5430 O.2    44  ASN44      -0.2864
     44  CB        26.5950   42.1710   91.7700 C.3    44  ASN44       0.1181
     45  CG        26.3220   41.2650   90.5800 C.2    44  ASN44       0.2629
     46  OD1       25.2140   41.2110   90.0440 O.2    44  ASN44      -0.2716
     47  ND2       27.3500   40.5410   90.1630 N.am   44  ASN44      -0.0877
     48  N         24.2880   38.4600   93.3820 N.3    47  ASN47      -0.1240
     49  CA        25.0510   37.8930   94.4910 C.3    47  ASN47       0.1653
     50  C         24.1630   37.3890   95.6250 C.2    47  ASN47       0.2266
     51  O         24.4550   36.3460   96.2190 O.2    47  ASN47      -0.2867
     52  CB        26.0830   38.8890   95.0230 C.3    47  ASN47       0.1155
     53  CG        27.4420   38.7310   94.3700 C.2    47  ASN47       0.2627
     54  OD1       27.8080   37.6610   93.8780 O.2    47  ASN47      -0.2716
     55  ND2       28.2010   39.8050   94.3660 N.am   47  ASN47      -0.0877
     56  N         26.0900   35.2760  100.0740 N.3    53  GLN53      -0.1245
     57  CA        25.7530   36.5260  100.7620 C.3    53  GLN53       0.1566
     58  C         24.3570   36.5260  101.4390 C.2    53  GLN53       0.2260
     59  O         23.9330   37.5740  101.9340 O.2    53  GLN53      -0.2867
     60  CB        25.9150   37.7360   99.8250 C.3    53  GLN53       0.0367
     61  CG        26.5680   38.9680  100.4780 C.3    53  GLN53       0.0905
     62  CD        28.0970   38.9570  100.4170 C.2    53  GLN53       0.2608
     63  OE1       28.6940   38.5070   99.4340 O.2    53  GLN53      -0.2717
     64  NE2       28.7340   39.4650  101.4720 N.am   53  GLN53      -0.0878
     65  N         30.1390   37.5890  108.9430 N.3    60  THR60      -0.1218
     66  CA        30.8260   38.8470  109.2490 C.3    60  THR60       0.1862
     67  C         30.4100   39.4880  110.5700 C.2    60  THR60       0.2287
     68  O         31.1210   40.3380  111.0810 O.2    60  THR60      -0.2866
     69  CB        30.6650   39.8690  108.1190 C.3    60  THR60       0.1770
     70  OG1       29.5320   39.5210  107.3130 O.3    60  THR60      -0.2211
     71  CG2       31.9200   39.8940  107.2470 C.3    60  THR60       0.0375
     72  N         42.1720   41.6450  102.5510 N.3    80  GLN80      -0.1231
     73  CA        41.6880   40.9110  101.3540 C.3    80  GLN80       0.1698
     74  C         40.3370   41.4440  100.8170 C.2    80  GLN80       0.2592
     75  O         40.0990   41.4470   99.6110 O.2    80  GLN80      -0.2718
     76  CB        41.7010   39.3870  101.5940 C.3    80  GLN80       0.0381
     77  CG        40.3530   38.6560  101.4130 C.3    80  GLN80       0.0905
     78  CD        40.0320   38.2860   99.9420 C.2    80  GLN80       0.2608
     79  OE1       40.8180   37.6180   99.2670 O.2    80  GLN80      -0.2717
     80  NE2       38.8680   38.7160   99.4570 N.am   80  GLN80      -0.0878
     81  N         39.4750   41.9150  101.7160 N.am   81  ILE81      -0.1980
     82  CA        38.2340   42.5900  101.3290 C.3    81  ILE81       0.1595
     83  C         38.5940   43.9660  100.7990 C.2    81  ILE81       0.2287
     84  O         38.0310   44.4380   99.8000 O.2    81  ILE81      -0.2864
     85  CB        37.2390   42.7160  102.5180 C.3    81  ILE81       0.0276
     86  CG1       36.7940   41.3190  102.9830 C.3    81  ILE81       0.0022
     87  CG2       36.0330   43.5950  102.1300 C.3    81  ILE81       0.0022
     88  CD1       36.3570   41.2290  104.3980 C.3    81  ILE81       0.0001
     89  N         39.3210   44.4850   97.1500 N.3    84  LYS84      -0.1231
     90  CA        38.0270   44.4760   96.4000 C.3    84  LYS84       0.1693
     91  C         37.2550   45.7630   96.5690 C.2    84  LYS84       0.2592
     92  O         36.7190   46.2830   95.5830 O.2    84  LYS84      -0.2718
     93  CB        37.0960   43.3390   96.8150 C.3    84  LYS84       0.0285
     94  CG        37.6940   42.0010   96.6990 C.3    84  LYS84       0.0035
     95  CD        36.8300   41.1300   95.8990 C.3    84  LYS84       0.0206
     96  CE        37.6730   39.9920   95.3790 C.3    84  LYS84       0.1093
     97  NZ        37.3680   38.7010   96.0750 N.3    84  LYS84      -0.1314
     98  N         37.1930   46.2620   97.8130 N.am   85  HIS85      -0.1976
     99  CA        36.5090   47.5180   98.0900 C.3    85  HIS85       0.1656
    100  C         37.1200   48.6930   97.3230 C.2    85  HIS85       0.2291
    101  O         36.4320   49.3300   96.5070 O.2    85  HIS85      -0.2864
    102  CB        36.4720   47.7820   99.5760 C.3    85  HIS85       0.0771
    103  CG        35.2850   47.1810  100.2530 C.ar   85  HIS85       0.0820
    104  ND1       35.1160   47.2160  101.6210 N.ar   85  HIS85      -0.2267
    105  CD2       34.2070   46.5340   99.7500 C.ar   85  HIS85       0.1154
    106  CE1       33.9830   46.6130  101.9290 C.ar   85  HIS85       0.1986
    107  NE2       33.4090   46.1950  100.8130 N.ar   85  HIS85      -0.2212
    108  N         36.6030   48.5370   93.8000 N.3    88  LEU88      -0.1245
    109  CA        35.2110   48.8070   93.4800 C.3    88  LEU88       0.1561
    110  C         34.8060   50.2510   93.7770 C.2    88  LEU88       0.2260
    111  O         33.6270   50.6100   93.6240 O.2    88  LEU88      -0.2867
    112  CB        34.2990   47.8100   94.2060 C.3    88  LEU88       0.0270
    113  CG        34.1780   46.3680   93.6700 C.3    88  LEU88       0.0019
    114  CD1       33.2730   45.5650   94.6020 C.3    88  LEU88       0.0001
    115  CD2       33.6660   46.2760   92.2430 C.3    88  LEU88       0.0001
    116  N         34.6640   51.9310   96.6560 N.3    90  ILE90      -0.1245
    117  CA        33.9830   52.1000   97.9410 C.3    90  ILE90       0.1561
    118  C         34.7010   53.1550   98.8110 C.2    90  ILE90       0.2260
    119  O         35.8530   52.9930   99.2150 O.2    90  ILE90      -0.2867
    120  CB        33.8690   50.7390   98.6980 C.3    90  ILE90       0.0252
    121  CG1       33.1320   49.6780   97.8720 C.3    90  ILE90       0.0019
    122  CG2       33.1540   50.9070  100.0240 C.3    90  ILE90       0.0019
    123  CD1       31.8950   50.1750   97.1560 C.3    90  ILE90       0.0001
    124  N         30.4230   56.0150  101.7570 N.3    94  HIS94      -0.1226
    125  CA        29.4820   54.8970  101.5850 C.3    94  HIS94       0.1752
    126  C         29.1430   54.2310  102.9350 C.2    94  HIS94       0.2596
    127  O         27.9870   53.8280  103.1860 O.2    94  HIS94      -0.2718
    128  CB        29.9860   53.8580  100.5510 C.3    94  HIS94       0.0759
    129  CG        30.0300   54.3730   99.1370 C.ar   94  HIS94       0.0818
    130  ND1       28.9040   54.7770   98.4480 N.ar   94  HIS94      -0.2268
    131  CD2       31.0680   54.5520   98.2850 C.ar   94  HIS94       0.1154
    132  CE1       29.2390   55.1850   97.2380 C.ar   94  HIS94       0.1986
    133  NE2       30.5490   55.0620   97.1160 N.ar   94  HIS94      -0.2212
    134  N         30.1400   54.1590  103.8150 N.am   95  TYR95      -0.1976
    135  CA        30.0220   53.3740  105.0350 C.3    95  TYR95       0.1639
    136  C         28.8250   53.7050  105.9190 C.2    95  TYR95       0.2290
    137  O         28.1470   52.7870  106.3840 O.2    95  TYR95      -0.2864
    138  CB        31.3420   53.3790  105.8180 C.3    95  TYR95       0.0560
    139  CG        32.3460   52.4250  105.2210 C.ar   95  TYR95      -0.0198
    140  CD1       32.3980   51.0860  105.6310 C.ar   95  TYR95      -0.0009
    141  CD2       33.2150   52.8440  104.2210 C.ar   95  TYR95      -0.0009
    142  CE1       33.3050   50.1940  105.0650 C.ar   95  TYR95       0.0417
    143  CE2       34.1140   51.9590  103.6440 C.ar   95  TYR95       0.0417
    144  CZ        34.1580   50.6390  104.0720 C.ar   95  TYR95       0.1957
    145  OH        35.0470   49.7550  103.5100 O.3    95  TYR95      -0.2866
    146  N         25.9480   54.9670  105.1160 N.3    97  ILE97      -0.1231
    147  CA        24.7440   54.4560  104.4960 C.3    97  ILE97       0.1692
    148  C         24.5060   53.0080  104.9410 C.2    97  ILE97       0.2591
    149  O         23.4540   52.7010  105.5070 O.2    97  ILE97      -0.2718
    150  CB        24.7840   54.5730  102.9560 C.3    97  ILE97       0.0266
    151  CG1       24.9600   56.0360  102.5370 C.3    97  ILE97       0.0019
    152  CG2       23.5120   53.9940  102.3300 C.3    97  ILE97       0.0020
    153  CD1       25.9790   56.2540  101.3940 C.3    97  ILE97       0.0001
    154  N         25.4890   52.1370  104.7150 N.am   98  VAL98      -0.1980
    155  CA        25.3840   50.7460  105.1510 C.3    98  VAL98       0.1595
    156  C         24.9850   50.6470  106.6320 C.2    98  VAL98       0.2287
    157  O         23.9730   50.0170  106.9590 O.2    98  VAL98      -0.2864
    158  CB        26.6680   49.9270  104.8260 C.3    98  VAL98       0.0276
    159  CG1       26.6370   48.5540  105.4830 C.3    98  VAL98       0.0022
    160  CG2       26.8240   49.7550  103.3420 C.3    98  VAL98       0.0022
    161  N         29.6170   48.9860  114.8050 N.3   126  TYR126     -0.1241
    162  CA        29.7420   49.2040  113.3760 C.3   126  TYR126      0.1605
    163  C         30.8590   50.2010  113.0140 C.2   126  TYR126      0.2264
    164  O         31.7700   49.8660  112.2440 O.2   126  TYR126     -0.2867
    165  CB        28.3950   49.5970  112.7400 C.3   126  TYR126      0.0534
    166  CG        28.5260   49.7880  111.2540 C.ar  126  TYR126     -0.0201
    167  CD1       28.4600   48.6920  110.3720 C.ar  126  TYR126     -0.0009
    168  CD2       28.7760   51.0520  110.7220 C.ar  126  TYR126     -0.0009
    169  CE1       28.6210   48.8640  108.9880 C.ar  126  TYR126      0.0417
    170  CE2       28.9400   51.2310  109.3400 C.ar  126  TYR126      0.0417
    171  CZ        28.8640   50.1460  108.4950 C.ar  126  TYR126      0.1957
    172  OH        29.0310   50.3860  107.1770 O.3   126  TYR126     -0.2866
    173  N         34.2310   48.8360  113.3520 N.3   129  ILE129     -0.1231
    174  CA        34.5600   47.9160  112.2810 C.3   129  ILE129      0.1692
    175  C         34.8230   48.6940  110.9800 C.2   129  ILE129      0.2591
    176  O         35.8260   48.4510  110.2950 O.2   129  ILE129     -0.2718
    177  CB        33.4540   46.8400  112.0900 C.3   129  ILE129      0.0266
    178  CG1       33.4650   45.8550  113.2580 C.3   129  ILE129      0.0019
    179  CG2       33.6350   46.0870  110.7610 C.3   129  ILE129      0.0020
    180  CD1       32.1570   45.1420  113.4840 C.3   129  ILE129      0.0001
    181  N         33.9370   49.6320  110.6420 N.am  130  ALA130     -0.1980
    182  CA        34.1060   50.4130  109.4110 C.3   130  ALA130      0.1597
    183  C         35.3990   51.2220  109.4430 C.2   130  ALA130      0.2287
    184  O         36.0230   51.4360  108.4140 O.2   130  ALA130     -0.2864
    185  CB        32.9120   51.3150  109.1780 C.3   130  ALA130      0.0319
    186  N         38.2380   49.2640  108.2060 N.3   133  PHE133     -0.1241
    187  CA        38.1650   49.1950  106.7490 C.3   133  PHE133      0.1605
    188  C         38.6050   50.4720  106.0460 C.2   133  PHE133      0.2264
    189  O         39.4680   50.4240  105.1630 O.2   133  PHE133     -0.2867
    190  CB        36.7810   48.7630  106.2950 C.3   133  PHE133      0.0534
    191  CG        36.5740   47.2920  106.3690 C.ar  133  PHE133     -0.0203
    192  CD1       36.7290   46.5010  105.2370 C.ar  133  PHE133     -0.0042
    193  CD2       36.2360   46.6800  107.5790 C.ar  133  PHE133     -0.0042
    194  CE1       36.5320   45.1130  105.3080 C.ar  133  PHE133     -0.0003
    195  CE2       36.0410   45.3000  107.6540 C.ar  133  PHE133     -0.0003
    196  CZ        36.1880   44.5140  106.5170 C.ar  133  PHE133     -0.0000
    197  N         30.0270   45.9590   87.7220 N.3   206  LEU206     -0.1245
    198  CA        31.4340   45.9360   88.0130 C.3   206  LEU206      0.1561
    199  C         31.8700   44.5080   88.2850 C.2   206  LEU206      0.2260
    200  O         31.3120   43.8360   89.1610 O.2   206  LEU206     -0.2867
    201  CB        31.6770   46.7570   89.2680 C.3   206  LEU206      0.0270
    202  CG        31.5720   48.2800   89.3780 C.3   206  LEU206      0.0019
    203  CD1       30.7110   48.9350   88.3030 C.3   206  LEU206      0.0001
    204  CD2       31.0590   48.5590   90.7510 C.3   206  LEU206      0.0001
    205  N         35.5070   41.8650   88.7220 N.3   208  HIS208     -0.1241
    206  CA        36.9480   41.5750   88.6920 C.3   208  HIS208      0.1621
    207  C         37.3430   40.5380   87.6540 C.2   208  HIS208      0.2264
    208  O         36.7250   39.4820   87.5740 O.2   208  HIS208     -0.2867
    209  CB        37.4090   41.0790   90.0540 C.3   208  HIS208      0.0745
    210  CG        36.8120   41.8370   91.1920 C.ar  208  HIS208      0.0817
    211  ND1       36.8520   43.2160   91.2650 N.ar  208  HIS208     -0.2268
    212  CD2       36.1440   41.4160   92.2920 C.ar  208  HIS208      0.1154
    213  CE1       36.2330   43.6110   92.3610 C.ar  208  HIS208      0.1986
    214  NE2       35.7950   42.5390   93.0030 N.ar  208  HIS208     -0.2212
    215  N         33.0360   35.3190   96.8370 N.3   392  PRO392     -0.2102
    216  CA        33.3610   35.8520   98.1740 C.3   392  PRO392      0.1504
    217  C         34.2510   34.9510   99.0630 C.2   392  PRO392      0.2576
    218  O         33.8610   33.8300   99.4090 O.2   392  PRO392     -0.2718
    219  CB        31.9820   36.0770   98.8140 C.3   392  PRO392      0.0282
    220  CG        31.0260   35.2770   97.9810 C.3   392  PRO392      0.0208
    221  CD        31.5800   35.2950   96.6030 C.3   392  PRO392      0.0893
    222  N         35.4290   35.4600   99.4360 N.am  393  LYS393     -0.1966
    223  CA        36.3980   34.7100  100.2440 C.3   393  LYS393      0.1728
    224  C         36.0210   34.5890  101.7280 C.2   393  LYS393      0.2616
    225  O         36.5540   33.7230  102.4320 O.2   393  LYS393     -0.2715
    226  CB        37.8200   35.2820  100.0890 C.3   393  LYS393      0.0311
    227  CG        38.9420   34.2920  100.4180 C.3   393  LYS393      0.0038
    228  CD        40.2870   34.7480   99.9060 C.3   393  LYS393      0.0206
    229  CE        41.2410   35.0620  101.0570 C.3   393  LYS393      0.1093
    230  NZ        42.5090   34.2790  100.9730 N.3   393  LYS393     -0.1314
    231  N         35.1070   35.4380  102.2030 N.am  394  MET394     -0.1977
    232  CA        34.6180   35.3450  103.5940 C.3   394  MET394      0.1605
    233  C         33.7980   34.0630  103.8590 C.2   394  MET394      0.2287
    234  O         33.4880   33.7440  105.0030 O.2   394  MET394     -0.2864
    235  CB        33.8470   36.6110  103.9970 C.3   394  MET394      0.0413
    236  CG        33.8110   36.8890  105.4970 C.3   394  MET394      0.0598
    237  SD        35.3840   37.3650  106.2450 S.3   394  MET394     -0.1393
    238  CE        34.7920   38.3300  107.6570 C.3   394  MET394      0.0692
@<TRIPOS>BOND
     1   208   207    2
     2   207   206    1
     3   197   198    1
     4   198   199    1
     5   198   201    1
     6   199   200    2
     7   203   202    1
     8   206   205    1
     9   206   209    1
    10   201   202    1
    11   202   204    1
    12    46    45    2
    13   209   210    1
    14    47    45   am
    15    45    44    1
    16   210   211   ar
    17   210   212   ar
    18   211   213   ar
    19    44    41    1
    20    41    42    1
    21    41    40    1
    22    21    22    1
    23    32    31    2
    24   115   113    1
    25   212   214   ar
    26   213   214   ar
    27    42    43    2
    28    24    23    2
    29    22    23    1
    30    22    25    1
    31    40    31   am
    32    31    30    1
    33    23    29   am
    34    48    49    1
    35   109   110    1
    36   109   108    1
    37   109   112    1
    38   111   110    2
    39   113   112    1
    40   113   114    1
    41    26    25    1
    42    26    28    1
    43    54    53    2
    44    29    30    1
    45    15    16    2
    46    15    14    1
    47    25    27    1
    48    13    14    1
    49    30    33    1
    50    55    53   am
    51    53    52    1
    52    49    52    1
    53    49    50    1
    54    14    17    1
    55    33    34    1
    56    96    95    1
    57    96    97    1
    58    92    91    2
    59    50    51    2
    60    95    94    1
    61    17    18    1
    62    90    91    1
    63    90    93    1
    64    90    89    1
    65   101   100    2
    66    91    98   am
    67   221   215    1
    68   221   220    1
    69   116   117    1
    70    94    93    1
    71    34    36   ar
    72    34    35   ar
    73   215   216    1
    74    19    18    1
    75   133   132   ar
    76   133   131   ar
    77   123   121    1
    78    36    38   ar
    79   132   130   ar
    80   100    99    1
    81    18    20    1
    82    35    37   ar
    83    98    99    1
    84   121   120    1
    85   117   120    1
    86   117   118    1
    87   220   219    1
    88    99   102    1
    89   216   219    1
    90   216   217    1
    91   131   129   ar
    92    38    39   ar
    93   130   129   ar
    94   120   122    1
    95    37    39   ar
    96   118   119    2
    97   217   218    2
    98   217   222   am
    99   129   128    1
   100    79    78    2
   101    63    62    2
   102   222   223    1
   103    80    78   am
   104     4     3    2
   105   102   103    1
   106    75    74    2
   107   105   103   ar
   108   105   107   ar
   109     7     9   ar
   110     7     6   ar
   111    84    83    2
   112    60    61    1
   113    60    57    1
   114     9    11   ar
   115   228   227    1
   116   228   229    1
   117    78    77    1
   118    56    57    1
   119     5     6    1
   120     5     2    1
   121   226   223    1
   122   226   227    1
   123     6     8   ar
   124   223   224    1
   125   103   104   ar
   126     3     2    1
   127    62    61    1
   128    62    64   am
   129    11    12    1
   130    11    10   ar
   131   128   125    1
   132    57    58    1
   133     8    10   ar
   134    83    82    1
   135   107   106   ar
   136    74    73    1
   137    74    81   am
   138     2     1    1
   139   230   229    1
   140    82    81    1
   141    82    85    1
   142    73    76    1
   143    73    72    1
   144   153   151    1
   145    77    76    1
   146    58    59    2
   147   125   124    1
   148   125   126    1
   149   104   106   ar
   150   224   231   am
   151   224   225    2
   152    87    85    1
   153   231   232    1
   154   152   150    1
   155    85    86    1
   156   151   150    1
   157   126   127    2
   158   126   134   am
   159   150   147    1
   160    86    88    1
   161   160   158    1
   162   145   144    1
   163   232   233    1
   164   232   235    1
   165   143   144   ar
   166   143   141   ar
   167   134   135    1
   168   233   234    2
   169   235   236    1
   170   144   142   ar
   171   141   139   ar
   172   147   148    1
   173   147   146    1
   174   154   148   am
   175   154   155    1
   176   158   155    1
   177   158   159    1
   178   148   149    2
   179   135   138    1
   180   135   136    1
   181   142   140   ar
   182   155   156    1
   183   189   188    2
   184   139   140   ar
   185   139   138    1
   186   192   194   ar
   187   192   191   ar
   188   194   196   ar
   189   236   237    1
   190   136   137    2
   191   188   187    1
   192   237   238    1
   193   190   191    1
   194   190   187    1
   195   191   193   ar
   196   196   195   ar
   197   156   157    2
   198   187   186    1
   199   172   171    1
   200    71    69    1
   201    70    69    1
   202   193   195   ar
   203    69    66    1
   204   184   183    2
   205   171   169   ar
   206   171   170   ar
   207    65    66    1
   208   169   167   ar
   209   185   182    1
   210    66    67    1
   211   170   168   ar
   212   182   183    1
   213   182   181    1
   214   176   175    2
   215   167   166   ar
   216    67    68    2
   217   181   175   am
   218   168   166   ar
   219   179   177    1
   220   175   174    1
   221   166   165    1
   222   177   174    1
   223   177   178    1
   224   164   163    2
   225   174   173    1
   226   165   162    1
   227   163   162    1
   228   178   180    1
   229   162   161    1
