@<TRIPOS>MOLECULE
tmp/4g1bD02.pdb
 154 147 0 0 0
SMALL
GASTEIGER

@<TRIPOS>ATOM
      1  N         17.0580   39.4380  108.2740 N.3    24  ILE24      -0.1231
      2  CA        17.6330   40.7640  108.4170 C.3    24  ILE24       0.1692
      3  C         18.2930   41.1950  107.1200 C.2    24  ILE24       0.2592
      4  O         18.0340   42.2940  106.6100 O.2    24  ILE24      -0.2718
      5  CB        18.6470   40.8250  109.5330 C.3    24  ILE24       0.0266
      6  CG1       17.9370   40.6350  110.8610 C.3    24  ILE24       0.0019
      7  CG2       19.3090   42.1660  109.5510 C.3    24  ILE24       0.0020
      8  CD1       18.8520   40.2650  112.0170 C.3    24  ILE24       0.0001
      9  N         19.1350   40.3300  106.5670 N.am   25  THR25      -0.1953
     10  CA        19.9270   40.7520  105.4280 C.3    25  THR25       0.1897
     11  C         19.0330   41.0290  104.2230 C.2    25  THR25       0.2313
     12  O         19.2810   41.9540  103.4540 O.2    25  THR25      -0.2863
     13  CB        21.1750   39.8430  105.1490 C.3    25  THR25       0.1794
     14  OG1       21.5060   39.8560  103.7550 O.3    25  THR25      -0.2208
     15  CG2       20.9610   38.4350  105.5910 C.3    25  THR25       0.0378
     16  N         17.6000   44.4070  105.0060 N.3    28  PHE28      -0.1227
     17  CA        18.6700   45.3310  104.7070 C.3    28  PHE28       0.1736
     18  C         18.7260   45.7060  103.2080 C.2    28  PHE28       0.2595
     19  O         18.7450   46.8930  102.8680 O.2    28  PHE28      -0.2718
     20  CB        19.9970   44.7360  105.1830 C.3    28  PHE28       0.0547
     21  CG        21.2160   45.4160  104.6180 C.ar   28  PHE28      -0.0202
     22  CD1       21.7610   46.5250  105.2520 C.ar   28  PHE28      -0.0042
     23  CD2       21.8290   44.9430  103.4570 C.ar   28  PHE28      -0.0042
     24  CE1       22.9110   47.1620  104.7290 C.ar   28  PHE28      -0.0003
     25  CE2       22.9620   45.5800  102.9360 C.ar   28  PHE28      -0.0003
     26  CZ        23.5080   46.6860  103.5770 C.ar   28  PHE28      -0.0000
     27  N         18.7620   44.7160  102.3130 N.am   29  TYR29      -0.1976
     28  CA        18.9570   45.0350  100.9040 C.3    29  TYR29       0.1639
     29  C         17.6860   45.6460  100.3150 C.2    29  TYR29       0.2290
     30  O         17.7520   46.6310   99.5690 O.2    29  TYR29      -0.2864
     31  CB        19.4240   43.8190  100.0840 C.3    29  TYR29       0.0560
     32  CG        20.8950   43.4640  100.2190 C.ar   29  TYR29      -0.0198
     33  CD1       21.8980   44.3270   99.7620 C.ar   29  TYR29      -0.0009
     34  CD2       21.2810   42.2490  100.7920 C.ar   29  TYR29      -0.0009
     35  CE1       23.2500   43.9890   99.8850 C.ar   29  TYR29       0.0417
     36  CE2       22.6240   41.9030  100.9210 C.ar   29  TYR29       0.0417
     37  CZ        23.6090   42.7780  100.4680 C.ar   29  TYR29       0.1957
     38  OH        24.9450   42.4300  100.5990 O.3    29  TYR29      -0.2866
     39  N         26.4380   47.5200   93.9220 N.3    43  PHE43      -0.1241
     40  CA        26.0500   46.1570   94.2830 C.3    43  PHE43       0.1605
     41  C         25.5610   45.3910   93.0800 C.2    43  PHE43       0.2264
     42  O         24.9670   45.9660   92.1750 O.2    43  PHE43      -0.2867
     43  CB        25.0010   46.1600   95.3780 C.3    43  PHE43       0.0534
     44  CG        25.5440   46.5580   96.7090 C.ar   43  PHE43      -0.0203
     45  CD1       26.2470   45.6420   97.4840 C.ar   43  PHE43      -0.0042
     46  CD2       25.3840   47.8650   97.1850 C.ar   43  PHE43      -0.0042
     47  CE1       26.7630   46.0130   98.7310 C.ar   43  PHE43      -0.0003
     48  CE2       25.8990   48.2460   98.4250 C.ar   43  PHE43      -0.0003
     49  CZ        26.5910   47.3220   99.2000 C.ar   43  PHE43      -0.0000
     50  N         26.0900   35.2760  100.0740 N.3    53  GLN53      -0.1245
     51  CA        25.7530   36.5260  100.7620 C.3    53  GLN53       0.1566
     52  C         24.3570   36.5260  101.4390 C.2    53  GLN53       0.2260
     53  O         23.9330   37.5740  101.9340 O.2    53  GLN53      -0.2867
     54  CB        25.9150   37.7360   99.8250 C.3    53  GLN53       0.0367
     55  CG        26.5680   38.9680  100.4780 C.3    53  GLN53       0.0905
     56  CD        28.0970   38.9570  100.4170 C.2    53  GLN53       0.2608
     57  OE1       28.6940   38.5070   99.4340 O.2    53  GLN53      -0.2717
     58  NE2       28.7340   39.4650  101.4720 N.am   53  GLN53      -0.0878
     59  N         25.8750   35.7650  104.9160 N.3    56  ALA56      -0.1231
     60  CA        27.0900   36.5750  105.0730 C.3    56  ALA56       0.1694
     61  C         27.0810   37.2860  106.4140 C.2    56  ALA56       0.2591
     62  O         28.0570   37.2330  107.1470 O.2    56  ALA56      -0.2718
     63  CB        27.2420   37.5770  103.9140 C.3    56  ALA56       0.0304
     64  N         25.9280   37.8640  106.7630 N.am   57  LEU57      -0.1980
     65  CA        25.7850   38.6250  107.9920 C.3    57  LEU57       0.1596
     66  C         26.3680   37.8570  109.1630 C.2    57  LEU57       0.2287
     67  O         27.3070   38.3390  109.7800 O.2    57  LEU57      -0.2864
     68  CB        24.3280   39.0090  108.2570 C.3    57  LEU57       0.0297
     69  CG        24.0370   39.4280  109.7060 C.3    57  LEU57       0.0022
     70  CD1       24.3040   40.9090  109.9380 C.3    57  LEU57       0.0001
     71  CD2       22.6270   39.0800  110.1240 C.3    57  LEU57       0.0001
     72  N         30.1390   37.5890  108.9430 N.3    60  THR60      -0.1203
     73  CA        30.8260   38.8470  109.2490 C.3    60  THR60       0.1994
     74  C         30.4100   39.4880  110.5700 C.2    60  THR60       0.2617
     75  O         31.1210   40.3380  111.0810 O.2    60  THR60      -0.2717
     76  CB        30.6650   39.8690  108.1190 C.3    60  THR60       0.1784
     77  OG1       29.5320   39.5210  107.3130 O.3    60  THR60      -0.2211
     78  CG2       31.9200   39.8940  107.2470 C.3    60  THR60       0.0376
     79  N         29.2670   39.0810  111.1190 N.am   61  VAL61      -0.1979
     80  CA        28.8170   39.5660  112.4290 C.3    61  VAL61       0.1595
     81  C         29.3300   38.6660  113.5210 C.2    61  VAL61       0.2287
     82  O         29.8300   39.1600  114.5160 O.2    61  VAL61      -0.2864
     83  CB        27.2710   39.7430  112.5120 C.3    61  VAL61       0.0276
     84  CG1       26.6720   39.1220  113.7820 C.3    61  VAL61       0.0022
     85  CG2       26.9110   41.2180  112.4190 C.3    61  VAL61       0.0022
     86  N         33.1130   39.3250  113.8300 N.3    64  ALA64      -0.1245
     87  CA        33.2920   40.5690  114.5710 C.3    64  ALA64       0.1562
     88  C         32.9500   40.3780  116.0320 C.2    64  ALA64       0.2260
     89  O         33.8100   40.4880  116.8860 O.2    64  ALA64      -0.2867
     90  CB        32.4470   41.6740  113.9730 C.3    64  ALA64       0.0290
     91  N         37.1930   46.2620   97.8130 N.3    85  HIS85      -0.1241
     92  CA        36.5090   47.5180   98.0900 C.3    85  HIS85       0.1621
     93  C         37.1200   48.6930   97.3230 C.2    85  HIS85       0.2264
     94  O         36.4320   49.3300   96.5070 O.2    85  HIS85      -0.2867
     95  CB        36.4720   47.7820   99.5760 C.3    85  HIS85       0.0745
     96  CG        35.2850   47.1810  100.2530 C.ar   85  HIS85       0.0817
     97  ND1       35.1160   47.2160  101.6210 N.ar   85  HIS85      -0.2268
     98  CD2       34.2070   46.5340   99.7500 C.ar   85  HIS85       0.1154
     99  CE1       33.9830   46.6130  101.9290 C.ar   85  HIS85       0.1986
    100  NE2       33.4090   46.1950  100.8130 N.ar   85  HIS85      -0.2212
    101  N         25.4890   52.1370  104.7150 N.3    98  VAL98      -0.1245
    102  CA        25.3840   50.7460  105.1510 C.3    98  VAL98       0.1561
    103  C         24.9850   50.6470  106.6320 C.2    98  VAL98       0.2260
    104  O         23.9730   50.0170  106.9590 O.2    98  VAL98      -0.2867
    105  CB        26.6680   49.9270  104.8260 C.3    98  VAL98       0.0252
    106  CG1       26.6370   48.5540  105.4830 C.3    98  VAL98       0.0019
    107  CG2       26.8240   49.7550  103.3420 C.3    98  VAL98       0.0019
    108  N         21.7850   49.0000  108.3200 N.3   102  LEU102     -0.1245
    109  CA        22.0050   47.8110  109.1240 C.3   102  LEU102      0.1561
    110  C         21.1730   47.8940  110.4000 C.2   102  LEU102      0.2260
    111  O         20.4600   46.9530  110.7290 O.2   102  LEU102     -0.2867
    112  CB        23.4890   47.5950  109.4380 C.3   102  LEU102      0.0270
    113  CG        23.7940   46.6210  110.5910 C.3   102  LEU102      0.0019
    114  CD1       23.5850   45.1590  110.1800 C.3   102  LEU102      0.0001
    115  CD2       25.1890   46.8250  111.1240 C.3   102  LEU102      0.0001
    116  N         17.4350   47.7660  109.6430 N.3   105  ALA105     -0.1245
    117  CA        17.0400   46.3750  109.4370 C.3   105  ALA105      0.1562
    118  C         16.7700   45.6510  110.7680 C.2   105  ALA105      0.2260
    119  O         15.7060   45.0730  110.9750 O.2   105  ALA105     -0.2867
    120  CB        18.0890   45.6430  108.6290 C.3   105  ALA105      0.0290
    121  N         25.2770   48.3320  118.6020 N.3   122  TRP122     -0.1241
    122  CA        25.6460   47.9010  117.2690 C.3   122  TRP122      0.1605
    123  C         26.0860   49.0900  116.4210 C.2   122  TRP122      0.2264
    124  O         27.0290   48.9790  115.6390 O.2   122  TRP122     -0.2867
    125  CB        24.5200   47.0990  116.6190 C.3   122  TRP122      0.0550
    126  CG        24.5400   45.6670  117.0770 C.ar  122  TRP122      0.0003
    127  CD1       23.7540   45.1010  118.0450 C.ar  122  TRP122      0.0946
    128  CD2       25.4120   44.6260  116.6160 C.ar  122  TRP122      0.0152
    129  NE1       24.0770   43.7750  118.2030 N.ar  122  TRP122     -0.2442
    130  CE2       25.0900   43.4580  117.3360 C.ar  122  TRP122      0.0810
    131  CE3       26.4290   44.5640  115.6560 C.ar  122  TRP122      0.0012
    132  CZ2       25.7560   42.2440  117.1330 C.ar  122  TRP122      0.0191
    133  CZ3       27.0850   43.3550  115.4490 C.ar  122  TRP122      0.0001
    134  CH2       26.7450   42.2140  116.1880 C.ar  122  TRP122      0.0015
    135  N         29.6170   48.9860  114.8050 N.3   126  TYR126     -0.1241
    136  CA        29.7420   49.2040  113.3760 C.3   126  TYR126      0.1605
    137  C         30.8590   50.2010  113.0140 C.2   126  TYR126      0.2264
    138  O         31.7700   49.8660  112.2440 O.2   126  TYR126     -0.2867
    139  CB        28.3950   49.5970  112.7400 C.3   126  TYR126      0.0534
    140  CG        28.5260   49.7880  111.2540 C.ar  126  TYR126     -0.0201
    141  CD1       28.4600   48.6920  110.3720 C.ar  126  TYR126     -0.0009
    142  CD2       28.7760   51.0520  110.7220 C.ar  126  TYR126     -0.0009
    143  CE1       28.6210   48.8640  108.9880 C.ar  126  TYR126      0.0417
    144  CE2       28.9400   51.2310  109.3400 C.ar  126  TYR126      0.0417
    145  CZ        28.8640   50.1460  108.4950 C.ar  126  TYR126      0.1957
    146  OH        29.0310   50.3860  107.1770 O.3   126  TYR126     -0.2866
    147  N         34.2310   48.8360  113.3520 N.3   129  ILE129     -0.1245
    148  CA        34.5600   47.9160  112.2810 C.3   129  ILE129      0.1561
    149  C         34.8230   48.6940  110.9800 C.2   129  ILE129      0.2260
    150  O         35.8260   48.4510  110.2950 O.2   129  ILE129     -0.2867
    151  CB        33.4540   46.8400  112.0900 C.3   129  ILE129      0.0252
    152  CG1       33.4650   45.8550  113.2580 C.3   129  ILE129      0.0019
    153  CG2       33.6350   46.0870  110.7610 C.3   129  ILE129      0.0019
    154  CD1       32.1570   45.1420  113.4840 C.3   129  ILE129      0.0001
@<TRIPOS>BOND
     1    42    41    2
     2    41    40    1
     3    39    40    1
     4    40    43    1
     5    43    44    1
     6    94    93    2
     7    44    46   ar
     8    44    45   ar
     9    46    48   ar
    10    93    92    1
    11    45    47   ar
    12    91    92    1
    13    92    95    1
    14    48    49   ar
    15    47    49   ar
    16    57    56    2
    17    30    29    2
    18    95    96    1
    19    98    96   ar
    20    98   100   ar
    21    33    35   ar
    22    33    32   ar
    23    54    55    1
    24    54    51    1
    25    35    37   ar
    26    50    51    1
    27    31    32    1
    28    31    28    1
    29    32    34   ar
    30    96    97   ar
    31    29    28    1
    32    56    55    1
    33    56    58   am
    34    37    38    1
    35    37    36   ar
    36    51    52    1
    37    34    36   ar
    38   100    99   ar
    39    28    27    1
    40    52    53    2
    41    97    99   ar
    42    27    18   am
    43    19    18    2
    44    25    23   ar
    45    25    26   ar
    46    18    17    1
    47   107   105    1
    48    12    11    2
    49    23    21   ar
    50    26    24   ar
    51    14    13    1
    52    63    60    1
    53    11    10    1
    54    21    20    1
    55    21    22   ar
    56    17    16    1
    57    17    20    1
    58   101   102    1
    59    24    22   ar
    60   105   102    1
    61   105   106    1
    62    59    60    1
    63    60    61    1
    64    13    10    1
    65    13    15    1
    66   102   103    1
    67    10     9    1
    68    61    64   am
    69    61    62    2
    70     9     3   am
    71     4     3    2
    72   103   104    2
    73    64    65    1
    74     3     2    1
    75   146   145    1
    76    78    76    1
    77    77    76    1
    78    65    68    1
    79    65    66    1
    80    76    73    1
    81    68    69    1
    82     1     2    1
    83   108   109    1
    84     2     5    1
    85   145   143   ar
    86   145   144   ar
    87   120   117    1
    88    72    73    1
    89   143   141   ar
    90   109   112    1
    91   109   110    1
    92    66    67    2
    93    73    74    1
    94   144   142   ar
    95   117   116    1
    96   117   118    1
    97   112   113    1
    98     5     7    1
    99     5     6    1
   100    69    70    1
   101    69    71    1
   102   114   113    1
   103   150   149    2
   104   141   140   ar
   105   110   111    2
   106    74    75    2
   107    74    79   am
   108   113   115    1
   109   142   140   ar
   110   153   151    1
   111   118   119    2
   112     6     8    1
   113   149   148    1
   114    79    80    1
   115   140   139    1
   116   151   148    1
   117   151   152    1
   118   138   137    2
   119   148   147    1
   120    85    83    1
   121    80    83    1
   122    80    81    1
   123    83    84    1
   124   139   136    1
   125   137   136    1
   126   152   154    1
   127   136   135    1
   128    81    82    2
   129    86    87    1
   130    90    87    1
   131    87    88    1
   132   133   131   ar
   133   133   134   ar
   134   124   123    2
   135   131   128   ar
   136    88    89    2
   137   134   132   ar
   138   123   122    1
   139   128   126   ar
   140   128   130   ar
   141   125   126    1
   142   125   122    1
   143   126   127   ar
   144   132   130   ar
   145   122   121    1
   146   130   129   ar
   147   127   129   ar
