@<TRIPOS>MOLECULE
tmp/4g1eA03.pdb
 125 118 0 0 0
SMALL
GASTEIGER

@<TRIPOS>ATOM
      1  N         15.0550  -73.3230   51.7960 N.3   448  GLU448     -0.1245
      2  CA        14.4490  -74.5960   51.4310 C.3   448  GLU448      0.1567
      3  C         13.4370  -75.0260   52.4840 C.2   448  GLU448      0.2260
      4  O         13.6140  -74.7640   53.6740 O.2   448  GLU448     -0.2867
      5  CB        15.5230  -75.6760   51.2810 C.3   448  GLU448      0.0388
      6  CG        16.6240  -75.3380   50.2900 C.3   448  GLU448      0.1160
      7  CD        17.6830  -76.4220   50.2090 C.2   448  GLU448      0.3649
      8  OE1       18.7500  -76.1700   49.6110 O.co2 448  GLU448     -0.2457
      9  OE2       17.4470  -77.5270   50.7440 O.co2 448  GLU448     -0.2457
     10  N         11.1480  -78.6060   53.2410 N.3   450  TYR450     -0.1228
     11  CA        10.7660  -79.9600   52.8610 C.3   450  TYR450      0.1721
     12  C         10.2660  -80.7580   54.0630 C.2   450  TYR450      0.2437
     13  O         10.8880  -80.7420   55.1250 O.2   450  TYR450     -0.2733
     14  CB        11.9480  -80.6800   52.2040 C.3   450  TYR450      0.0547
     15  CG        13.1710  -80.7980   53.0860 C.ar  450  TYR450     -0.0200
     16  CD1       14.1070  -79.7740   53.1530 C.ar  450  TYR450     -0.0009
     17  CD2       13.3940  -81.9370   53.8470 C.ar  450  TYR450     -0.0009
     18  CE1       15.2260  -79.8800   53.9560 C.ar  450  TYR450      0.0417
     19  CE2       14.5100  -82.0530   54.6520 C.ar  450  TYR450      0.0417
     20  CZ        15.4230  -81.0220   54.7030 C.ar  450  TYR450      0.1957
     21  OH        16.5350  -81.1330   55.5040 O.3   450  TYR450     -0.2866
     22  N          9.1310  -81.4600   53.8990 N.am  451  PRO451     -0.2729
     23  CA         8.3300  -81.4820   52.6700 C.3   451  PRO451      0.1401
     24  C          7.4860  -80.2210   52.5050 C.2   451  PRO451      0.2269
     25  O          6.9190  -79.7310   53.4820 O.2   451  PRO451     -0.2865
     26  CB         7.4280  -82.7020   52.8680 C.3   451  PRO451      0.0296
     27  CG         7.2730  -82.8110   54.3400 C.3   451  PRO451      0.0237
     28  CD         8.5820  -82.3620   54.9260 C.3   451  PRO451      0.0939
     29  N          0.7030  -83.0910   55.0580 N.3   455  ASN455     -0.1240
     30  CA        -0.4810  -83.8030   55.5150 C.3   455  ASN455      0.1653
     31  C         -0.7270  -83.4850   56.9810 C.2   455  ASN455      0.2266
     32  O          0.1120  -83.7650   57.8360 O.2   455  ASN455     -0.2867
     33  CB        -0.3210  -85.3120   55.3310 C.3   455  ASN455      0.1155
     34  CG        -1.5740  -86.0800   55.7110 C.2   455  ASN455      0.2627
     35  OD1       -2.6750  -85.5280   55.7280 O.2   455  ASN455     -0.2716
     36  ND2       -1.4110  -87.3620   56.0210 N.am  455  ASN455     -0.0877
     37  N         -0.1410  -86.2220   59.4450 N.3   458  ASN458     -0.1240
     38  CA         1.1570  -86.8920   59.4250 C.3   458  ASN458      0.1653
     39  C          1.6110  -87.2630   60.8340 C.2   458  ASN458      0.2266
     40  O          1.7670  -88.4410   61.1560 O.2   458  ASN458     -0.2867
     41  CB         2.2060  -86.0080   58.7460 C.3   458  ASN458      0.1155
     42  CG         3.4210  -86.7920   58.2870 C.2   458  ASN458      0.2627
     43  OD1        3.7250  -87.8580   58.8210 O.2   458  ASN458     -0.2716
     44  ND2        4.1210  -86.2650   57.2870 N.am  458  ASN458     -0.0877
     45  N          4.4700  -87.1070   62.5740 N.3   460  THR460     -0.1203
     46  CA         5.6520  -87.9590   62.6440 C.3   460  THR460      0.1994
     47  C          6.5100  -87.6110   63.8560 C.2   460  THR460      0.2618
     48  O          6.5250  -88.3440   64.8450 O.2   460  THR460     -0.2717
     49  CB         6.5080  -87.8430   61.3700 C.3   460  THR460      0.1784
     50  OG1        5.7260  -88.2200   60.2310 O.3   460  THR460     -0.2211
     51  CG2        7.7320  -88.7440   61.4620 C.3   460  THR460      0.0376
     52  N          7.2210  -86.4910   63.7750 N.am  461  CYS461     -0.1969
     53  CA         8.1010  -86.0710   64.8580 C.3   461  CYS461      0.1712
     54  C          7.2870  -85.7330   66.1020 C.2   461  CYS461      0.2296
     55  O          6.1100  -85.3820   66.0080 O.2   461  CYS461     -0.2864
     56  CB         8.9370  -84.8610   64.4360 C.3   461  CYS461      0.0983
     57  SG         7.9840  -83.3470   64.1930 S.3   461  CYS461     -0.0798
     58  N          5.3290  -82.3240   61.3660 N.3   472  CYS472     -0.1221
     59  CA         6.4810  -81.4340   61.2880 C.3   472  CYS472      0.1808
     60  C          7.1700  -81.4900   59.9300 C.2   472  CYS472      0.2601
     61  O          6.7100  -82.1670   59.0100 O.2   472  CYS472     -0.2717
     62  CB         7.4840  -81.7720   62.3930 C.3   472  CYS472      0.0970
     63  SG         8.3080  -83.3660   62.1890 S.3   472  CYS472     -0.0800
     64  N          8.2790  -80.7660   59.8210 N.am  473  PHE473     -0.1962
     65  CA         9.0390  -80.6860   58.5820 C.3   473  PHE473      0.1771
     66  C         10.3760  -80.0100   58.8520 C.2   473  PHE473      0.2619
     67  O         10.6620  -79.6170   59.9830 O.2   473  PHE473     -0.2715
     68  CB         8.2590  -79.8890   57.5410 C.3   473  PHE473      0.0574
     69  CG         7.7410  -78.5800   58.0540 C.ar  473  PHE473     -0.0200
     70  CD1        8.5350  -77.4460   58.0260 C.ar  473  PHE473     -0.0042
     71  CD2        6.4610  -78.4850   58.5720 C.ar  473  PHE473     -0.0042
     72  CE1        8.0580  -76.2410   58.5010 C.ar  473  PHE473     -0.0003
     73  CE2        5.9800  -77.2830   59.0480 C.ar  473  PHE473     -0.0003
     74  CZ         6.7790  -76.1590   59.0130 C.ar  473  PHE473     -0.0000
     75  N         11.1880  -79.8710   57.8100 N.am  474  ASN474     -0.1972
     76  CA        12.4980  -79.2510   57.9450 C.3   474  ASN474      0.1688
     77  C         12.5820  -77.9290   57.1920 C.2   474  ASN474      0.2292
     78  O         11.9700  -77.7630   56.1370 O.2   474  ASN474     -0.2864
     79  CB        13.5850  -80.2040   57.4450 C.3   474  ASN474      0.1181
     80  CG        13.5670  -81.5370   58.1690 C.2   474  ASN474      0.2629
     81  OD1       12.8600  -82.4630   57.7700 O.2   474  ASN474     -0.2716
     82  ND2       14.3450  -81.6400   59.2400 N.am  474  ASN474     -0.0877
     83  N         15.5590  -75.1340   55.8360 N.3   476  ARG476     -0.1245
     84  CA        16.9910  -75.0150   55.5990 C.3   476  ARG476      0.1563
     85  C         17.3070  -73.7370   54.8310 C.2   476  ARG476      0.2260
     86  O         16.9080  -73.5800   53.6780 O.2   476  ARG476     -0.2867
     87  CB        17.4820  -76.2380   54.8220 C.3   476  ARG476      0.0307
     88  CG        18.9890  -76.4180   54.7790 C.3   476  ARG476      0.0489
     89  CD        19.3370  -77.8770   54.5210 C.3   476  ARG476      0.2205
     90  NE        20.7730  -78.1380   54.5750 N.pl3 476  ARG476     -0.0865
     91  CZ        21.5870  -78.1160   53.5230 C.cat 476  ARG476      0.5346
     92  NH1       21.1210  -77.8400   52.3100 N.pl3 476  ARG476      0.1354
     93  NH2       22.8770  -78.3710   53.6830 N.pl3 476  ARG476      0.1354
     94  N         19.9060  -75.5980   59.4230 N.3   537  GLU537     -0.1245
     95  CA        18.5190  -76.0250   59.2650 C.3   537  GLU537      0.1567
     96  C         17.8690  -76.3380   60.6090 C.2   537  GLU537      0.2260
     97  O         18.5320  -76.7960   61.5400 O.2   537  GLU537     -0.2867
     98  CB        18.4330  -77.2470   58.3470 C.3   537  GLU537      0.0388
     99  CG        19.3090  -78.4140   58.7710 C.3   537  GLU537      0.1160
    100  CD        19.2000  -79.5940   57.8250 C.2   537  GLU537      0.3649
    101  OE1       20.1550  -80.3970   57.7600 O.co2 537  GLU537     -0.2457
    102  OE2       18.1580  -79.7200   57.1470 O.co2 537  GLU537     -0.2457
    103  N         13.8810  -77.6060   62.6550 N.3   539  ILE539     -0.1245
    104  CA        12.6380  -78.3470   62.5010 C.3   539  ILE539      0.1561
    105  C         11.4600  -77.5300   63.0200 C.2   539  ILE539      0.2260
    106  O         11.4770  -77.0490   64.1530 O.2   539  ILE539     -0.2867
    107  CB        12.6900  -79.6900   63.2530 C.3   539  ILE539      0.0252
    108  CG1       13.8020  -80.5720   62.6810 C.3   539  ILE539      0.0019
    109  CG2       11.3470  -80.4010   63.1630 C.3   539  ILE539      0.0019
    110  CD1       13.9450  -81.9100   63.3740 C.3   539  ILE539      0.0001
    111  N         -2.6520  -88.8010   49.5470 N.3   601  VAL601     -0.1245
    112  CA        -1.5090  -88.4270   48.7220 C.3   601  VAL601      0.1561
    113  C         -2.0000  -87.9050   47.3770 C.2   601  VAL601      0.2260
    114  O         -2.5700  -88.6510   46.5820 O.2   601  VAL601     -0.2867
    115  CB        -0.5590  -89.6170   48.4850 C.3   601  VAL601      0.0252
    116  CG1        0.5310  -89.2380   47.4890 C.3   601  VAL601      0.0019
    117  CG2        0.0520  -90.0820   49.8000 C.3   601  VAL601      0.0019
    118  N          5.6230  -82.9030   45.6810 N.3   721  LEU721     -0.1245
    119  CA         6.7260  -83.8530   45.7690 C.3   721  LEU721      0.1561
    120  C          6.6510  -84.8850   44.6490 C.2   721  LEU721      0.2260
    121  O          7.6670  -85.2320   44.0460 O.2   721  LEU721     -0.2867
    122  CB         6.7220  -84.5590   47.1270 C.3   721  LEU721      0.0270
    123  CG         7.5820  -83.9170   48.2180 C.3   721  LEU721      0.0019
    124  CD1        7.1730  -82.4740   48.4580 C.3   721  LEU721      0.0001
    125  CD2        7.4970  -84.7200   49.5060 C.3   721  LEU721      0.0001
@<TRIPOS>BOND
     1   121   120    2
     2   120   119    1
     3   118   119    1
     4   119   122    1
     5   114   113    2
     6   122   123    1
     7   113   112    1
     8   116   115    1
     9   123   124    1
    10   123   125    1
    11   115   112    1
    12   115   117    1
    13   112   111    1
    14     8     7   ar
    15     7     6    1
    16     7     9   ar
    17     6     5    1
    18     5     2    1
    19     2     1    1
    20     2     3    1
    21    14    11    1
    22    14    15    1
    23    92    91    1
    24     3     4    2
    25    24    23    1
    26    24    25    2
    27    23    26    1
    28    23    22    1
    29    11    10    1
    30    11    12    1
    31    26    27    1
    32    15    16   ar
    33    15    17   ar
    34    16    18   ar
    35    91    93    1
    36    91    90    2
    37    86    85    2
    38    17    19   ar
    39    22    12   am
    40    22    28    1
    41    18    20   ar
    42    12    13    2
    43    27    28    1
    44    89    90    1
    45    89    88    1
    46    19    20   ar
    47    20    21    1
    48    88    87    1
    49    87    84    1
    50    85    84    1
    51    29    30    1
    52    33    30    1
    53    33    34    1
    54    30    31    1
    55    84    83    1
    56    34    35    2
    57    34    36   am
    58    78    77    2
    59    31    32    2
    60   102   100   ar
    61    77    76    1
    62    44    42   am
    63    79    76    1
    64    79    80    1
    65    68    69    1
    66    68    65    1
    67   101   100   ar
    68    81    80    2
    69    75    76    1
    70    75    66   am
    71   100    99    1
    72    70    69   ar
    73    70    72   ar
    74    69    71   ar
    75    80    82   am
    76    42    41    1
    77    42    43    2
    78    98    99    1
    79    98    95    1
    80    72    74   ar
    81    71    73   ar
    82    65    66    1
    83    65    64    1
    84    41    38    1
    85    66    67    2
    86    61    60    2
    87    74    73   ar
    88    95    94    1
    89    95    96    1
    90    38    37    1
    91    38    39    1
    92    64    60   am
    93    60    59    1
    94    50    49    1
    95    96    97    2
    96    39    40    2
    97    59    58    1
    98    59    62    1
    99    49    51    1
   100    49    46    1
   101    63    62    1
   102    63    57    1
   103   104   103    1
   104   104   105    1
   105   104   107    1
   106    45    46    1
   107    46    47    1
   108   108   107    1
   109   108   110    1
   110   105   106    2
   111   109   107    1
   112    52    47   am
   113    52    53    1
   114    47    48    2
   115    57    56    1
   116    56    53    1
   117    53    54    1
   118    55    54    2
