@<TRIPOS>MOLECULE
tmp/4g1eB05.pdb
 87 82 0 0 0
SMALL
GASTEIGER

@<TRIPOS>ATOM
      1  N          8.2640  -15.7020  -24.2490 N.3   638  GLU638     -0.1231
      2  CA         8.9550  -16.8700  -24.7920 C.3   638  GLU638      0.1699
      3  C          9.7230  -17.5910  -23.6870 C.2   638  GLU638      0.2592
      4  O         10.1230  -16.9730  -22.7010 O.2   638  GLU638     -0.2718
      5  CB         9.9250  -16.4450  -25.8940 C.3   638  GLU638      0.0402
      6  CG        10.5850  -17.6070  -26.6200 C.3   638  GLU638      0.1161
      7  CD        11.5780  -17.1530  -27.6730 C.2   638  GLU638      0.3649
      8  OE1       12.1540  -18.0210  -28.3620 O.co2 638  GLU638     -0.2457
      9  OE2       11.7830  -15.9290  -27.8110 O.co2 638  GLU638     -0.2457
     10  N          9.8980  -18.8990  -23.8490 N.am  639  LEU639     -0.1966
     11  CA        10.6270  -19.7170  -22.8880 C.3   639  LEU639      0.1728
     12  C         12.1260  -19.6650  -23.1760 C.2   639  LEU639      0.2616
     13  O         12.5760  -20.0420  -24.2600 O.2   639  LEU639     -0.2715
     14  CB        10.1390  -21.1590  -22.9770 C.3   639  LEU639      0.0311
     15  CG        10.1490  -21.9930  -21.6960 C.3   639  LEU639      0.0022
     16  CD1        9.2770  -21.3520  -20.6340 C.3   639  LEU639      0.0001
     17  CD2        9.6890  -23.4260  -21.9620 C.3   639  LEU639      0.0001
     18  N         12.9080  -19.2540  -22.1820 N.am  640  LYS640     -0.1963
     19  CA        14.3210  -18.9700  -22.3910 C.3   640  LYS640      0.1728
     20  C         15.1820  -19.8930  -21.5570 C.2   640  LYS640      0.2616
     21  O         14.7040  -20.5350  -20.6240 O.2   640  LYS640     -0.2715
     22  CB        14.6180  -17.5110  -22.0390 C.3   640  LYS640      0.0311
     23  CG        13.8770  -16.5190  -22.9190 C.3   640  LYS640      0.0038
     24  CD        14.1390  -15.0850  -22.4940 C.3   640  LYS640      0.0206
     25  CE        13.3430  -14.0920  -23.3360 C.3   640  LYS640      0.1093
     26  NZ        13.5390  -12.6800  -22.8920 N.3   640  LYS640     -0.1314
     27  N         16.4440  -19.9820  -21.9450 N.am  641  ASP641     -0.1971
     28  CA        17.4080  -20.7790  -21.2290 C.3   641  ASP641      0.1709
     29  C         17.9110  -20.1210  -19.9510 C.2   641  ASP641      0.2293
     30  O         18.8770  -19.3550  -19.9680 O.2   641  ASP641     -0.2864
     31  CB        18.5890  -21.0310  -22.1240 C.3   641  ASP641      0.1436
     32  CG        19.6230  -21.8990  -21.4600 C.2   641  ASP641      0.3671
     33  OD1       19.2610  -22.6000  -20.4900 O.co2 641  ASP641     -0.2456
     34  OD2       20.7960  -21.8750  -21.8850 O.co2 641  ASP641     -0.2456
     35  N         18.7900  -22.0160  -17.1380 N.3   643  GLY643     -0.1210
     36  CA        19.8320  -22.8520  -16.5660 C.3   643  GLY643      0.1956
     37  C         19.8080  -24.2930  -17.0380 C.2   643  GLY643      0.2611
     38  O         18.7840  -24.7900  -17.5060 O.2   643  GLY643     -0.2717
     39  N         20.9470  -24.9670  -16.9130 N.am  644  LYS644     -0.1979
     40  CA        21.0160  -26.3930  -17.1900 C.3   644  LYS644      0.1596
     41  C         20.0470  -27.1180  -16.2670 C.2   644  LYS644      0.2287
     42  O         19.5900  -28.2210  -16.5670 O.2   644  LYS644     -0.2864
     43  CB        22.4340  -26.9170  -16.9660 C.3   644  LYS644      0.0298
     44  CG        23.4750  -26.3420  -17.9090 C.3   644  LYS644      0.0038
     45  CD        24.8490  -26.9130  -17.6010 C.3   644  LYS644      0.0206
     46  CE        25.1590  -28.1380  -18.4480 C.3   644  LYS644      0.1093
     47  NZ        25.6560  -27.7670  -19.8020 N.3   644  LYS644     -0.1314
     48  N         17.0650  -25.7850  -15.2620 N.3   646  ALA646     -0.1231
     49  CA        15.7120  -25.5120  -15.7330 C.3   646  ALA646      0.1694
     50  C         15.2150  -26.6130  -16.6630 C.2   646  ALA646      0.2592
     51  O         15.9940  -27.2100  -17.4070 O.2   646  ALA646     -0.2718
     52  CB        15.6650  -24.1750  -16.4360 C.3   646  ALA646      0.0304
     53  N         13.9120  -26.8690  -16.6190 N.am  647  VAL647     -0.1966
     54  CA        13.3100  -27.9110  -17.4370 C.3   647  VAL647      0.1727
     55  C         12.1360  -27.3590  -18.2360 C.2   647  VAL647      0.2616
     56  O         11.1660  -26.8670  -17.6640 O.2   647  VAL647     -0.2715
     57  CB        12.7960  -29.0700  -16.5670 C.3   647  VAL647      0.0290
     58  CG1       12.3700  -30.2390  -17.4420 C.3   647  VAL647      0.0023
     59  CG2       13.8620  -29.5010  -15.5700 C.3   647  VAL647      0.0023
     60  N         12.2290  -27.4400  -19.5590 N.am  648  ASN648     -0.1972
     61  CA        11.1270  -27.0360  -20.4210 C.3   648  ASN648      0.1688
     62  C         10.0300  -28.0960  -20.4180 C.2   648  ASN648      0.2292
     63  O         10.2850  -29.2670  -20.6960 O.2   648  ASN648     -0.2864
     64  CB        11.6230  -26.7940  -21.8480 C.3   648  ASN648      0.1181
     65  CG        12.6420  -25.6710  -21.9300 C.2   648  ASN648      0.2629
     66  OD1       12.6940  -24.8010  -21.0610 O.2   648  ASN648     -0.2716
     67  ND2       13.4570  -25.6850  -22.9800 N.am  648  ASN648     -0.0877
     68  N          3.2380  -24.4010  -22.9800 N.3   660  ARG660     -0.1245
     69  CA         4.6410  -24.5850  -22.6320 C.3   660  ARG660      0.1563
     70  C          5.0330  -23.7430  -21.4230 C.2   660  ARG660      0.2260
     71  O          4.5970  -22.6010  -21.2790 O.2   660  ARG660     -0.2867
     72  CB         5.5370  -24.2140  -23.8140 C.3   660  ARG660      0.0307
     73  CG         5.3830  -25.1120  -25.0260 C.3   660  ARG660      0.0489
     74  CD         6.3770  -24.7280  -26.1090 C.3   660  ARG660      0.2205
     75  NE         7.7550  -24.7830  -25.6270 N.pl3 660  ARG660     -0.0865
     76  CZ         8.8100  -24.3610  -26.3170 C.cat 660  ARG660      0.5346
     77  NH1        8.6560  -23.8450  -27.5290 N.pl3 660  ARG660      0.1354
     78  NH2       10.0240  -24.4530  -25.7920 N.pl3 660  ARG660      0.1354
     79  N          8.3410  -23.6550  -17.9590 N.3   662  GLN662     -0.1245
     80  CA         9.5500  -24.2570  -17.4060 C.3   662  GLN662      0.1566
     81  C          9.6210  -24.0990  -15.8920 C.2   662  GLN662      0.2260
     82  O          8.9510  -23.2460  -15.3110 O.2   662  GLN662     -0.2867
     83  CB        10.8060  -23.6640  -18.0510 C.3   662  GLN662      0.0367
     84  CG        11.0970  -22.2270  -17.6480 C.3   662  GLN662      0.0905
     85  CD        12.3310  -21.6420  -18.3230 C.2   662  GLN662      0.2608
     86  OE1       12.5390  -20.4290  -18.2970 O.2   662  GLN662     -0.2717
     87  NE2       13.1570  -22.4980  -18.9240 N.am  662  GLN662     -0.0878
@<TRIPOS>BOND
     1     8     7   ar
     2     9     7   ar
     3     7     6    1
     4    77    76    1
     5     6     5    1
     6    76    78    1
     7    76    75    2
     8    74    75    1
     9    74    73    1
    10     5     2    1
    11    73    72    1
    12     2     1    1
    13     2     3    1
    14    13    12    2
    15    10     3   am
    16    10    11    1
    17    72    69    1
    18     3     4    2
    19    25    26    1
    20    25    24    1
    21    12    11    1
    22    12    18   am
    23    68    69    1
    24    67    65   am
    25    14    11    1
    26    14    15    1
    27    23    24    1
    28    23    22    1
    29    69    70    1
    30    19    18    1
    31    19    22    1
    32    19    20    1
    33    31    32    1
    34    31    28    1
    35    17    15    1
    36    27    20   am
    37    27    28    1
    38    65    64    1
    39    65    66    2
    40    34    32   ar
    41    64    61    1
    42    15    16    1
    43    20    21    2
    44    32    33   ar
    45    70    71    2
    46    28    29    1
    47    63    62    2
    48    61    62    1
    49    61    60    1
    50    30    29    2
    51    47    46    1
    52    60    55   am
    53    87    85   am
    54    46    45    1
    55    85    86    2
    56    85    84    1
    57    55    56    2
    58    55    54    1
    59    83    84    1
    60    83    80    1
    61    79    80    1
    62    44    45    1
    63    44    43    1
    64    38    37    2
    65    58    57    1
    66    54    53    1
    67    54    57    1
    68    51    50    2
    69    80    81    1
    70    40    43    1
    71    40    39    1
    72    40    41    1
    73    35    36    1
    74    37    39   am
    75    37    36    1
    76    50    53   am
    77    50    49    1
    78    42    41    2
    79    57    59    1
    80    52    49    1
    81    81    82    2
    82    49    48    1
