@<TRIPOS>MOLECULE
tmp/4g1eA02.pdb
 122 121 0 0 0
SMALL
GASTEIGER

@<TRIPOS>ATOM
      1  N         50.1660  -30.1850   11.0010 N.3   211  ARG211     -0.1231
      2  CA        50.5740  -29.1090   10.1040 C.3   211  ARG211      0.1694
      3  C         49.4010  -28.1880    9.7800 C.2   211  ARG211      0.2593
      4  O         48.2430  -28.5340   10.0120 O.2   211  ARG211     -0.2718
      5  CB        51.1540  -29.6940    8.8120 C.3   211  ARG211      0.0321
      6  CG        51.8420  -28.6750    7.9130 C.3   211  ARG211      0.0489
      7  CD        52.4240  -29.3290    6.6690 C.3   211  ARG211      0.2205
      8  NE        52.7270  -28.3500    5.6260 N.pl3 211  ARG211     -0.0865
      9  CZ        53.8470  -27.6360    5.5590 C.cat 211  ARG211      0.5346
     10  NH1       54.7950  -27.7780    6.4770 N.pl3 211  ARG211      0.1354
     11  NH2       54.0220  -26.7720    4.5700 N.pl3 211  ARG211      0.1354
     12  N         49.7130  -27.0090    9.2520 N.am  212  THR212     -0.1939
     13  CA        48.6910  -26.0770    8.7990 C.3   212  THR212      0.2028
     14  C         47.8870  -26.6950    7.6640 C.2   212  THR212      0.2642
     15  O         48.4410  -27.3670    6.7920 O.2   212  THR212     -0.2714
     16  CB        49.3130  -24.7650    8.2900 C.3   212  THR212      0.1808
     17  OG1       50.1840  -24.2220    9.2880 O.3   212  THR212     -0.2208
     18  CG2       48.2300  -23.7490    7.9560 C.3   212  THR212      0.0379
     19  N         46.5800  -26.4630    7.6810 N.am  213  ALA213     -0.1963
     20  CA        45.7010  -26.9630    6.6340 C.3   213  ALA213      0.1728
     21  C         45.1190  -25.7960    5.8480 C.2   213  ALA213      0.2616
     22  O         45.5350  -24.6500    6.0180 O.2   213  ALA213     -0.2715
     23  CB        44.5910  -27.8040    7.2400 C.3   213  ALA213      0.0334
     24  N         44.1520  -26.0940    4.9890 N.am  214  GLN214     -0.1963
     25  CA        43.5130  -25.0710    4.1770 C.3   214  GLN214      0.1733
     26  C         42.7990  -24.0670    5.0750 C.2   214  GLN214      0.2616
     27  O         42.4570  -24.3760    6.2170 O.2   214  GLN214     -0.2715
     28  CB        42.5240  -25.7130    3.2040 C.3   214  GLN214      0.0408
     29  CG        43.1800  -26.4490    2.0410 C.3   214  GLN214      0.0908
     30  CD        43.7030  -27.8210    2.4250 C.2   214  GLN214      0.2608
     31  OE1       44.0050  -28.0820    3.5890 O.2   214  GLN214     -0.2717
     32  NE2       43.8050  -28.7100    1.4420 N.am  214  GLN214     -0.0878
     33  N         42.5820  -22.8620    4.5590 N.am  215  ALA215     -0.1963
     34  CA        41.9420  -21.8020    5.3310 C.3   215  ALA215      0.1728
     35  C         40.5150  -22.1790    5.7260 C.2   215  ALA215      0.2616
     36  O         39.9350  -21.5810    6.6330 O.2   215  ALA215     -0.2715
     37  CB        41.9450  -20.5020    4.5420 C.3   215  ALA215      0.0334
     38  N         39.9550  -23.1720    5.0430 N.am  216  ILE216     -0.1963
     39  CA        38.5920  -23.6210    5.3140 C.3   216  ILE216      0.1727
     40  C         38.4600  -24.2660    6.6920 C.2   216  ILE216      0.2616
     41  O         37.3520  -24.4220    7.2050 O.2   216  ILE216     -0.2715
     42  CB        38.1110  -24.6280    4.2490 C.3   216  ILE216      0.0290
     43  CG1       38.9870  -25.8850    4.2700 C.3   216  ILE216      0.0022
     44  CG2       38.1160  -23.9820    2.8690 C.3   216  ILE216      0.0023
     45  CD1       38.5770  -26.9370    3.2610 C.3   216  ILE216      0.0001
     46  N         39.5880  -24.6420    7.2870 N.am  217  PHE217     -0.1974
     47  CA        39.5810  -25.2980    8.5910 C.3   217  PHE217      0.1639
     48  C         39.8240  -24.3100    9.7280 C.2   217  PHE217      0.2290
     49  O         39.9320  -24.7050   10.8890 O.2   217  PHE217     -0.2864
     50  CB        40.6400  -26.4020    8.6320 C.3   217  PHE217      0.0560
     51  CG        40.4290  -27.4800    7.6100 C.ar  217  PHE217     -0.0200
     52  CD1       39.4670  -28.4560    7.8040 C.ar  217  PHE217     -0.0042
     53  CD2       41.1940  -27.5190    6.4570 C.ar  217  PHE217     -0.0042
     54  CE1       39.2700  -29.4500    6.8660 C.ar  217  PHE217     -0.0003
     55  CE2       41.0030  -28.5110    5.5150 C.ar  217  PHE217     -0.0003
     56  CZ        40.0390  -29.4770    5.7200 C.ar  217  PHE217     -0.0000
     57  N         33.7610  -32.0500   15.4960 N.3   252  MET252     -0.1245
     58  CA        34.4530  -33.2650   15.0930 C.3   252  MET252      0.1570
     59  C         35.4600  -33.6790   16.1540 C.2   252  MET252      0.2261
     60  O         35.7860  -32.9050   17.0520 O.2   252  MET252     -0.2867
     61  CB        35.1840  -33.0590   13.7650 C.3   252  MET252      0.0387
     62  CG        34.2760  -32.8920   12.5590 C.3   252  MET252      0.0595
     63  SD        35.1810  -33.0500   11.0070 S.3   252  MET252     -0.1393
     64  CE        35.6180  -34.7880   11.0440 C.3   252  MET252      0.0692
     65  N         39.2610  -35.5400   16.0270 N.3   254  TYR254     -0.1241
     66  CA        40.3410  -36.1030   15.2300 C.3   254  TYR254      0.1605
     67  C         41.1690  -37.0830   16.0490 C.2   254  TYR254      0.2264
     68  O         41.4440  -36.8490   17.2260 O.2   254  TYR254     -0.2867
     69  CB        41.2430  -34.9910   14.6930 C.3   254  TYR254      0.0534
     70  CG        40.5580  -34.0350   13.7410 C.ar  254  TYR254     -0.0201
     71  CD1       39.3770  -34.3830   13.0970 C.ar  254  TYR254     -0.0009
     72  CD2       41.0970  -32.7820   13.4840 C.ar  254  TYR254     -0.0009
     73  CE1       38.7540  -33.5070   12.2270 C.ar  254  TYR254      0.0417
     74  CE2       40.4820  -31.9020   12.6170 C.ar  254  TYR254      0.0417
     75  CZ        39.3120  -32.2690   11.9910 C.ar  254  TYR254      0.1957
     76  OH        38.6940  -31.3950   11.1260 O.3   254  TYR254     -0.2866
     77  N         44.8520  -39.0740   15.8260 N.3   256  TYR256     -0.1241
     78  CA        46.1300  -39.1910   15.1360 C.3   256  TYR256      0.1605
     79  C         46.9290  -40.3660   15.6770 C.2   256  TYR256      0.2264
     80  O         46.7840  -40.7490   16.8370 O.2   256  TYR256     -0.2867
     81  CB        46.9400  -37.9050   15.2900 C.3   256  TYR256      0.0534
     82  CG        46.3000  -36.6990   14.6440 C.ar  256  TYR256     -0.0201
     83  CD1       45.3430  -35.9530   15.3180 C.ar  256  TYR256     -0.0009
     84  CD2       46.6540  -36.3040   13.3610 C.ar  256  TYR256     -0.0009
     85  CE1       44.7550  -34.8490   14.7330 C.ar  256  TYR256      0.0417
     86  CE2       46.0720  -35.2010   12.7670 C.ar  256  TYR256      0.0417
     87  CZ        45.1230  -34.4780   13.4570 C.ar  256  TYR256      0.1957
     88  OH        44.5410  -33.3780   12.8700 O.3   256  TYR256     -0.2866
     89  N         46.5400  -39.2800   10.6730 N.3   263  SER263     -0.1202
     90  CA        45.1330  -39.4060   11.0320 C.3   263  SER263      0.2020
     91  C         44.6500  -40.8430   10.8680 C.2   263  SER263      0.2619
     92  O         44.8380  -41.4560    9.8170 O.2   263  SER263     -0.2717
     93  CB        44.2790  -38.4690   10.1770 C.3   263  SER263      0.2103
     94  OG        42.9170  -38.5200   10.5680 O.3   263  SER263     -0.2182
     95  N         44.0280  -41.3740   11.9170 N.am  264  LEU264     -0.1965
     96  CA        43.5000  -42.7320   11.8930 C.3   264  LEU264      0.1728
     97  C         41.9930  -42.7260   11.6630 C.2   264  LEU264      0.2616
     98  O         41.5030  -43.2920   10.6860 O.2   264  LEU264     -0.2715
     99  CB        43.8160  -43.4460   13.2080 C.3   264  LEU264      0.0311
    100  CG        45.2970  -43.5910   13.5600 C.3   264  LEU264      0.0022
    101  CD1       45.4590  -44.3090   14.8900 C.3   264  LEU264      0.0001
    102  CD2       46.0400  -44.3270   12.4580 C.3   264  LEU264      0.0001
    103  N         41.2620  -42.0830   12.5690 N.am  265  TYR265     -0.1960
    104  CA        39.8070  -42.0310   12.4870 C.3   265  TYR265      0.1771
    105  C         39.2820  -40.6200   12.7350 C.2   265  TYR265      0.2619
    106  O         39.9890  -39.7680   13.2740 O.2   265  TYR265     -0.2715
    107  CB        39.1840  -42.9870   13.5050 C.3   265  TYR265      0.0574
    108  CG        39.5820  -44.4340   13.3220 C.ar  265  TYR265     -0.0198
    109  CD1       40.7210  -44.9430   13.9330 C.ar  265  TYR265     -0.0009
    110  CD2       38.8150  -45.2940   12.5470 C.ar  265  TYR265     -0.0009
    111  CE1       41.0880  -46.2660   13.7730 C.ar  265  TYR265      0.0417
    112  CE2       39.1740  -46.6190   12.3810 C.ar  265  TYR265      0.0417
    113  CZ        40.3110  -47.0990   12.9970 C.ar  265  TYR265      0.1957
    114  OH        40.6720  -48.4170   12.8360 O.3   265  TYR265     -0.2866
    115  N         38.0350  -40.3870   12.3380 N.am  266  ASN266     -0.1972
    116  CA        37.3780  -39.1040   12.5580 C.3   266  ASN266      0.1688
    117  C         35.9610  -39.2880   13.0860 C.2   266  ASN266      0.2292
    118  O         35.3210  -40.3110   12.8380 O.2   266  ASN266     -0.2864
    119  CB        37.3220  -38.2960   11.2610 C.3   266  ASN266      0.1181
    120  CG        38.6880  -37.8470   10.7900 C.2   266  ASN266      0.2629
    121  OD1       39.5940  -37.6180   11.5920 O.2   266  ASN266     -0.2716
    122  ND2       38.8420  -37.7130    9.4780 N.am  266  ASN266     -0.0877
@<TRIPOS>BOND
     1    32    30   am
     2    29    30    1
     3    29    28    1
     4    30    31    2
     5    44    42    1
     6    28    25    1
     7    45    43    1
     8    25    24    1
     9    25    26    1
    10    42    43    1
    11    42    39    1
    12    37    34    1
    13    33    26   am
    14    33    34    1
    15    11     9    1
    16    24    21   am
    17    38    39    1
    18    38    35   am
    19    26    27    2
    20    39    40    1
    21    34    35    1
    22    55    56   ar
    23    55    53   ar
    24     9     8    2
    25     9    10    1
    26     8     7    1
    27    56    54   ar
    28    35    36    2
    29    21    22    2
    30    21    20    1
    31    53    51   ar
    32    20    23    1
    33    20    19    1
    34     7     6    1
    35    40    41    2
    36    40    46   am
    37    15    14    2
    38    54    52   ar
    39    46    47    1
    40    51    52   ar
    41    51    50    1
    42    14    19   am
    43    14    13    1
    44     6     5    1
    45    18    16    1
    46    16    13    1
    47    16    17    1
    48    47    50    1
    49    47    48    1
    50    13    12    1
    51     5     2    1
    52    12     3   am
    53   122   120   am
    54    48    49    2
    55     3     4    2
    56     3     2    1
    57    92    91    2
    58     2     1    1
    59    93    94    1
    60    93    90    1
    61    89    90    1
    62    98    97    2
    63   120   119    1
    64   120   121    2
    65    91    90    1
    66    91    95   am
    67    63    64    1
    68    63    62    1
    69    76    75    1
    70   119   116    1
    71    97    96    1
    72    97   103   am
    73    96    95    1
    74    96    99    1
    75    75    73   ar
    76    75    74   ar
    77    73    71   ar
    78   115   116    1
    79   115   105   am
    80   112   110   ar
    81   112   113   ar
    82   102   100    1
    83   104   103    1
    84   104   105    1
    85   104   107    1
    86   110   108   ar
    87   116   117    1
    88    62    61    1
    89    74    72   ar
    90   105   106    2
    91    86    84   ar
    92    86    87   ar
    93   114   113    1
    94   118   117    2
    95    88    87    1
    96   113   111   ar
    97    71    70   ar
    98    99   100    1
    99   108   107    1
   100   108   109   ar
   101    84    82   ar
   102    87    85   ar
   103    72    70   ar
   104   100   101    1
   105    70    69    1
   106    61    58    1
   107   111   109   ar
   108    82    81    1
   109    82    83   ar
   110    69    66    1
   111    85    83   ar
   112    58    57    1
   113    58    59    1
   114    78    81    1
   115    78    79    1
   116    78    77    1
   117    66    65    1
   118    66    67    1
   119    79    80    2
   120    67    68    2
   121    59    60    2
