@<TRIPOS>MOLECULE
tmp/4g1fB00.pdb
 161 160 0 0 0
SMALL
GASTEIGER

@<TRIPOS>ATOM
      1  N          1.7650   -0.7440   22.1390 N.3    86  ARG86      -0.1245
      2  CA         0.6990   -1.2080   21.2360 C.3    86  ARG86       0.1563
      3  C         -0.5540   -0.3230   21.2430 C.2    86  ARG86       0.2260
      4  O         -1.1830   -0.1230   20.1970 O.2    86  ARG86      -0.2867
      5  CB         0.3120   -2.6580   21.5370 C.3    86  ARG86       0.0307
      6  CG        -0.5910   -3.2860   20.4820 C.3    86  ARG86       0.0489
      7  CD        -1.1480   -4.6380   20.9120 C.3    86  ARG86       0.2205
      8  NE        -0.1130   -5.6570   21.0750 N.pl3  86  ARG86      -0.0865
      9  CZ         0.3990   -6.3700   20.0790 C.cat  86  ARG86       0.5346
     10  NH1       -0.0170   -6.1720   18.8370 N.pl3  86  ARG86       0.1354
     11  NH2        1.3350   -7.2770   20.3230 N.pl3  86  ARG86       0.1354
     12  N         -0.4940   -4.5510   27.5830 N.3   166  GLU166     -0.1231
     13  CA        -0.3210   -5.5960   26.5830 C.3   166  GLU166      0.1699
     14  C         -1.1110   -6.8700   26.8860 C.2   166  GLU166      0.2592
     15  O         -1.7030   -7.4670   25.9810 O.2   166  GLU166     -0.2718
     16  CB         1.1740   -5.9010   26.4030 C.3   166  GLU166      0.0402
     17  CG         1.5100   -6.9840   25.3820 C.3   166  GLU166      0.1161
     18  CD         1.2870   -6.5730   23.9350 C.2   166  GLU166      0.3649
     19  OE1        1.4020   -7.4500   23.0550 O.co2 166  GLU166     -0.2457
     20  OE2        1.0040   -5.3890   23.6650 O.co2 166  GLU166     -0.2457
     21  N         -1.1410   -7.2680   28.1550 N.am  167  GLU167     -0.1979
     22  CA        -1.6530   -8.5880   28.5280 C.3   167  GLU167      0.1602
     23  C         -2.9810   -8.6230   29.2910 C.2   167  GLU167      0.2287
     24  O         -3.6210   -9.6740   29.3640 O.2   167  GLU167     -0.2864
     25  CB        -0.5840   -9.3630   29.3080 C.3   167  GLU167      0.0415
     26  CG         0.8010   -9.3640   28.6670 C.3   167  GLU167      0.1163
     27  CD         0.8530  -10.0390   27.3020 C.2   167  GLU167      0.3649
     28  OE1       -0.1310  -10.6980   26.8980 O.co2 167  GLU167     -0.2457
     29  OE2        1.8970   -9.9210   26.6290 O.co2 167  GLU167     -0.2457
     30  N         -7.9860  -15.4550   27.4530 N.3   318  PHE318     -0.1241
     31  CA        -6.7900  -14.6890   27.8130 C.3   318  PHE318      0.1605
     32  C         -7.0010  -13.9830   29.1480 C.2   318  PHE318      0.2264
     33  O         -6.0410  -13.6250   29.8360 O.2   318  PHE318     -0.2867
     34  CB        -6.4630  -13.6590   26.7410 C.3   318  PHE318      0.0534
     35  CG        -6.0260  -14.2550   25.4440 C.ar  318  PHE318     -0.0203
     36  CD1       -4.6820  -14.4820   25.1910 C.ar  318  PHE318     -0.0042
     37  CD2       -6.9550  -14.5770   24.4640 C.ar  318  PHE318     -0.0042
     38  CE1       -4.2710  -15.0260   23.9850 C.ar  318  PHE318     -0.0003
     39  CE2       -6.5510  -15.1230   23.2580 C.ar  318  PHE318     -0.0003
     40  CZ        -5.2060  -15.3470   23.0160 C.ar  318  PHE318     -0.0000
     41  N          2.9920  -20.0350   10.9700 N.3   507  VAL507     -0.1231
     42  CA         2.7280  -20.4930   12.3300 C.3   507  VAL507      0.1692
     43  C          2.6300  -19.4090   13.3940 C.2   507  VAL507      0.2592
     44  O          3.4430  -18.4870   13.4450 O.2   507  VAL507     -0.2718
     45  CB         3.7410  -21.5920   12.7640 C.3   507  VAL507      0.0266
     46  CG1        5.1740  -21.1070   12.6490 C.3   507  VAL507      0.0020
     47  CG2        3.4670  -22.0760   14.1790 C.3   507  VAL507      0.0020
     48  N          1.5950  -19.5330   14.2170 N.am  508  TYR508     -0.1976
     49  CA         1.4320  -18.7660   15.4420 C.3   508  TYR508      0.1639
     50  C          1.4070  -19.8070   16.5580 C.2   508  TYR508      0.2290
     51  O          2.2870  -19.8180   17.4180 O.2   508  TYR508     -0.2864
     52  CB         0.1510  -17.9230   15.3690 C.3   508  TYR508      0.0560
     53  CG        -0.4180  -17.3590   16.6660 C.ar  508  TYR508     -0.0198
     54  CD1        0.3120  -17.3470   17.8560 C.ar  508  TYR508     -0.0009
     55  CD2       -1.6880  -16.7830   16.6760 C.ar  508  TYR508     -0.0009
     56  CE1       -0.2250  -16.8150   19.0200 C.ar  508  TYR508      0.0417
     57  CE2       -2.2290  -16.2450   17.8330 C.ar  508  TYR508      0.0417
     58  CZ        -1.4970  -16.2630   19.0020 C.ar  508  TYR508      0.1957
     59  OH        -2.0440  -15.7230   20.1470 O.3   508  TYR508     -0.2866
     60  N          5.9960  -15.1450   13.5960 N.3   590  TRP590     -0.1227
     61  CA         6.2860  -13.8930   14.2760 C.3   590  TRP590      0.1737
     62  C          5.8670  -14.0480   15.7080 C.2   590  TRP590      0.2596
     63  O          4.8820  -14.7360   15.9970 O.2   590  TRP590     -0.2718
     64  CB         5.4740  -12.7860   13.6270 C.3   590  TRP590      0.0564
     65  CG         6.0540  -11.4020   13.7470 C.ar  590  TRP590      0.0003
     66  CD1        6.3260  -10.6840   14.9100 C.ar  590  TRP590      0.0946
     67  CD2        6.4080  -10.4950   12.6480 C.ar  590  TRP590      0.0152
     68  NE1        6.8320   -9.4440   14.6130 N.ar  590  TRP590     -0.2442
     69  CE2        6.9040   -9.2640   13.2750 C.ar  590  TRP590      0.0810
     70  CE3        6.3770  -10.5810   11.2580 C.ar  590  TRP590      0.0012
     71  CZ2        7.3430   -8.1810   12.5230 C.ar  590  TRP590      0.0191
     72  CZ3        6.8200   -9.4820   10.5110 C.ar  590  TRP590      0.0001
     73  CH2        7.2920   -8.3120   11.1310 C.ar  590  TRP590      0.0015
     74  N          6.6030  -13.4060   16.6140 N.am  591  SER591     -0.1938
     75  CA         6.3040  -13.4230   18.0540 C.3   591  SER591      0.2055
     76  C          6.3220  -14.8580   18.5770 C.2   591  SER591      0.2643
     77  O          7.3720  -15.5060   18.5620 O.2   591  SER591     -0.2714
     78  CB         4.9560  -12.7500   18.3640 C.3   591  SER591      0.2130
     79  OG         4.7510  -11.5600   17.6190 O.3   591  SER591     -0.2179
     80  N          5.1640  -15.3550   19.0190 N.am  592  TYR592     -0.1973
     81  CA         5.0390  -16.7340   19.4910 C.3   592  TYR592      0.1639
     82  C          5.3310  -17.6880   18.3450 C.2   592  TYR592      0.2290
     83  O          5.9300  -18.7480   18.5430 O.2   592  TYR592     -0.2864
     84  CB         3.6350  -17.0090   20.0410 C.3   592  TYR592      0.0560
     85  CG         3.5580  -18.2460   20.9140 C.ar  592  TYR592     -0.0198
     86  CD1        3.5070  -18.1380   22.3010 C.ar  592  TYR592     -0.0009
     87  CD2        3.5480  -19.5220   20.3570 C.ar  592  TYR592     -0.0009
     88  CE1        3.4380  -19.2660   23.1070 C.ar  592  TYR592      0.0417
     89  CE2        3.4850  -20.6550   21.1550 C.ar  592  TYR592      0.0417
     90  CZ         3.4320  -20.5200   22.5280 C.ar  592  TYR592      0.1957
     91  OH         3.3750  -21.6410   23.3190 O.3   592  TYR592     -0.2866
     92  N         10.2730  -15.4140   20.7480 N.3   617  VAL617     -0.1245
     93  CA        10.5780  -15.7010   22.1410 C.3   617  VAL617      0.1561
     94  C         11.6160  -16.8160   22.1090 C.2   617  VAL617      0.2260
     95  O         11.4810  -17.7700   21.3380 O.2   617  VAL617     -0.2867
     96  CB         9.3200  -16.1440   22.9220 C.3   617  VAL617      0.0252
     97  CG1        9.6800  -16.9530   24.1590 C.3   617  VAL617      0.0019
     98  CG2        8.4910  -14.9320   23.3100 C.3   617  VAL617      0.0019
     99  N         11.2010  -18.4150   28.1540 N.3   620  TRP620     -0.1241
    100  CA        10.0780  -17.7940   28.8550 C.3   620  TRP620      0.1605
    101  C         10.4210  -16.8990   30.0150 C.2   620  TRP620      0.2264
    102  O          9.6720  -15.9640   30.3060 O.2   620  TRP620     -0.2867
    103  CB         9.0220  -18.8330   29.2120 C.3   620  TRP620      0.0550
    104  CG         8.3150  -19.3230   27.9750 C.ar  620  TRP620      0.0003
    105  CD1        8.3450  -20.6010   27.4230 C.ar  620  TRP620      0.0946
    106  CD2        7.4860  -18.5300   27.0580 C.ar  620  TRP620      0.0152
    107  NE1        7.5970  -20.6550   26.2750 N.ar  620  TRP620     -0.2442
    108  CE2        7.0550  -19.4480   25.9990 C.ar  620  TRP620      0.0810
    109  CE3        7.0630  -17.2030   27.0170 C.ar  620  TRP620      0.0012
    110  CZ2        6.2410  -19.0340   24.9550 C.ar  620  TRP620      0.0191
    111  CZ3        6.2430  -16.7980   25.9590 C.ar  620  TRP620      0.0001
    112  CH2        5.8420  -17.6920   24.9550 C.ar  620  TRP620      0.0015
    113  N         10.2000  -13.4250   28.6810 N.3   623  TYR623     -0.1241
    114  CA         8.9400  -12.7670   28.3420 C.3   623  TYR623      0.1605
    115  C          8.2030  -12.2890   29.5970 C.2   623  TYR623      0.2264
    116  O          8.6000  -12.6270   30.7150 O.2   623  TYR623     -0.2867
    117  CB         8.0590  -13.6490   27.4510 C.3   623  TYR623      0.0534
    118  CG         7.0010  -12.8550   26.7180 C.ar  623  TYR623     -0.0201
    119  CD1        7.3550  -11.7900   25.8870 C.ar  623  TYR623     -0.0009
    120  CD2        5.6490  -13.1540   26.8640 C.ar  623  TYR623     -0.0009
    121  CE1        6.3930  -11.0490   25.2230 C.ar  623  TYR623      0.0417
    122  CE2        4.6780  -12.4190   26.1990 C.ar  623  TYR623      0.0417
    123  CZ         5.0550  -11.3680   25.3810 C.ar  623  TYR623      0.1957
    124  OH         4.0920  -10.6350   24.7180 O.3   623  TYR623     -0.2866
    125  N          1.4840  -12.8510   30.7180 N.3   627  TYR627     -0.1241
    126  CA         1.2360  -13.7980   29.6360 C.3   627  TYR627      0.1605
    127  C          1.8360  -15.1690   29.9280 C.2   627  TYR627      0.2264
    128  O          1.1420  -16.1830   29.8610 O.2   627  TYR627     -0.2867
    129  CB         1.7560  -13.2780   28.2920 C.3   627  TYR627      0.0534
    130  CG         1.5210  -14.2460   27.1510 C.ar  627  TYR627     -0.0201
    131  CD1        0.2840  -14.3080   26.5090 C.ar  627  TYR627     -0.0009
    132  CD2        2.5240  -15.1170   26.7300 C.ar  627  TYR627     -0.0009
    133  CE1        0.0580  -15.1960   25.4710 C.ar  627  TYR627      0.0417
    134  CE2        2.3050  -16.0110   25.6960 C.ar  627  TYR627      0.0417
    135  CZ         1.0740  -16.0410   25.0720 C.ar  627  TYR627      0.1957
    136  OH         0.8510  -16.9190   24.0460 O.3   627  TYR627     -0.2866
    137  N          8.4080   -5.4530   23.5720 N.3   671  ASN671     -0.1225
    138  CA         7.5550   -6.6140   23.8300 C.3   671  ASN671      0.1785
    139  C          8.3920   -7.8730   24.0490 C.2   671  ASN671      0.2597
    140  O          8.6070   -8.3010   25.1860 O.2   671  ASN671     -0.2718
    141  CB         6.5980   -6.8010   22.6440 C.3   671  ASN671      0.1169
    142  CG         5.3220   -7.5210   23.0150 C.2   671  ASN671      0.2627
    143  OD1        4.2370   -7.1380   22.5800 O.2   671  ASN671     -0.2716
    144  ND2        5.4400   -8.5680   23.8130 N.am  671  ASN671     -0.0877
    145  N          8.8400   -8.4600   22.9420 N.am  672  VAL672     -0.1980
    146  CA         9.7880   -9.5630   22.9400 C.3   672  VAL672      0.1595
    147  C         11.1380   -8.9050   22.6920 C.2   672  VAL672      0.2287
    148  O         11.4860   -8.5960   21.5560 O.2   672  VAL672     -0.2864
    149  CB         9.4750  -10.5660   21.8090 C.3   672  VAL672      0.0276
    150  CG1       10.4510  -11.7310   21.8270 C.3   672  VAL672      0.0022
    151  CG2        8.0510  -11.0760   21.9320 C.3   672  VAL672      0.0022
    152  N          8.1930   -4.3820   18.1420 N.3   701  HIS701     -0.1241
    153  CA         7.7190   -5.7400   17.9000 C.3   701  HIS701      0.1621
    154  C          7.0400   -5.9310   16.5730 C.2   701  HIS701      0.2264
    155  O          7.1490   -6.9990   15.9650 O.2   701  HIS701     -0.2867
    156  CB         6.8320   -6.2360   19.0350 C.3   701  HIS701      0.0745
    157  CG         6.5950   -7.7200   18.9940 C.ar  701  HIS701      0.0817
    158  ND1        7.6020   -8.6100   19.0190 N.ar  701  HIS701     -0.2268
    159  CD2        5.4220   -8.4560   18.9040 C.ar  701  HIS701      0.1154
    160  CE1        7.1000   -9.8520   18.9530 C.ar  701  HIS701      0.1986
    161  NE2        5.7650   -9.7570   18.8860 N.ar  701  HIS701     -0.2212
@<TRIPOS>BOND
     1    72    73   ar
     2    72    70   ar
     3    41    42    1
     4    73    71   ar
     5    70    67   ar
     6    42    45    1
     7    42    43    1
     8    71    69   ar
     9    67    69   ar
    10    67    65   ar
    11    46    45    1
    12    45    47    1
    13    69    68   ar
    14    43    44    2
    15    43    48   am
    16    60    61    1
    17    64    65    1
    18    64    61    1
    19    65    66   ar
    20    48    49    1
    21    61    62    1
    22    68    66   ar
    23    52    49    1
    24    52    53    1
    25    49    50    1
    26    62    63    2
    27    62    74   am
    28   155   154    2
    29    50    51    2
    30   154   153    1
    31    74    75    1
    32    53    55   ar
    33    53    54   ar
    34    55    57   ar
    35    79    78    1
    36    57    58   ar
    37    54    56   ar
    38   153   152    1
    39   153   156    1
    40    75    78    1
    41    75    76    1
    42    82    83    2
    43    82    81    1
    44    77    76    2
    45    76    80   am
    46    10     9    1
    47   161   159   ar
    48   161   160   ar
    49   159   157   ar
    50   160   158   ar
    51   157   158   ar
    52   157   156    1
    53    58    56   ar
    54    58    59    1
    55    80    81    1
    56    81    84    1
    57    84    85    1
    58     9    11    1
    59     9     8    2
    60     4     3    2
    61    87    85   ar
    62    87    89   ar
    63     6     7    1
    64     6     5    1
    65    92    93    1
    66     7     8    1
    67    85    86   ar
    68    89    90   ar
    69     2     3    1
    70     2     5    1
    71     2     1    1
    72    95    94    2
    73   148   147    2
    74   149   150    1
    75   149   151    1
    76   149   146    1
    77    94    93    1
    78    93    96    1
    79    86    88   ar
    80    90    88   ar
    81    90    91    1
    82   143   142    2
    83   141   142    1
    84   141   138    1
    85   147   146    1
    86    96    98    1
    87    96    97    1
    88   146   145    1
    89   145   139   am
    90   142   144   am
    91    40    39   ar
    92    40    38   ar
    93    19    18   ar
    94    39    37   ar
    95   137   138    1
    96    20    18   ar
    97   138   139    1
    98    18    17    1
    99    38    36   ar
   100   136   135    1
   101   139   140    2
   102    37    35   ar
   103   124   123    1
   104   112   110   ar
   105   112   111   ar
   106   110   108   ar
   107   135   133   ar
   108   135   134   ar
   109    36    35   ar
   110   121   123   ar
   111   121   119   ar
   112   123   122   ar
   113    17    16    1
   114    35    34    1
   115   133   131   ar
   116   134   132   ar
   117   119   118   ar
   118   111   109   ar
   119    15    14    2
   120   108   107   ar
   121   108   106   ar
   122   122   120   ar
   123   107   105   ar
   124    16    13    1
   125   131   130   ar
   126    13    14    1
   127    13    12    1
   128    29    27   ar
   129   118   120   ar
   130   118   117    1
   131   132   130   ar
   132    34    31    1
   133    14    21   am
   134    28    27   ar
   135   109   106   ar
   136   106   104   ar
   137   130   129    1
   138    27    26    1
   139   105   104   ar
   140   117   114    1
   141    30    31    1
   142    31    32    1
   143   104   103    1
   144    99   100    1
   145    21    22    1
   146   129   126    1
   147   114   113    1
   148   114   115    1
   149    22    23    1
   150    22    25    1
   151    26    25    1
   152   100   103    1
   153   100   101    1
   154    32    33    2
   155    23    24    2
   156   115   116    2
   157   126   127    1
   158   126   125    1
   159   128   127    2
   160   101   102    2
