@<TRIPOS>MOLECULE
tmp/4g1iB01.pdb
 121 117 0 0 0
SMALL
GASTEIGER

@<TRIPOS>ATOM
      1  N         -6.1900   43.2480   22.6300 N.3    18  ASP18      -0.1239
      2  CA        -6.7420   44.5570   22.9420 C.3    18  ASP18       0.1674
      3  C         -5.7880   45.3480   23.8370 C.2    18  ASP18       0.2266
      4  O         -6.1650   46.4120   24.3550 O.2    18  ASP18      -0.2867
      5  CB        -8.0940   44.3860   23.6650 C.3    18  ASP18       0.1410
      6  CG        -7.9880   43.5310   24.9300 C.2    18  ASP18       0.3668
      7  OD1       -6.8570   43.0830   25.2780 O.co2  18  ASP18      -0.2456
      8  OD2       -9.0360   43.3030   25.5890 O.co2  18  ASP18      -0.2456
      9  N         -4.9150   39.8570   30.8710 N.3    22  TYR22      -0.1241
     10  CA        -5.8930   38.9650   31.4670 C.3    22  TYR22       0.1605
     11  C         -5.2920   38.0490   32.5190 C.2    22  TYR22       0.2264
     12  O         -4.2660   37.4250   32.2780 O.2    22  TYR22      -0.2867
     13  CB        -6.5750   38.1440   30.3420 C.3    22  TYR22       0.0534
     14  CG        -7.4070   39.0720   29.4780 C.ar   22  TYR22      -0.0201
     15  CD1       -8.7280   39.3430   29.8120 C.ar   22  TYR22      -0.0009
     16  CD2       -6.8720   39.6780   28.3580 C.ar   22  TYR22      -0.0009
     17  CE1       -9.4910   40.2060   29.0400 C.ar   22  TYR22       0.0417
     18  CE2       -7.6300   40.5480   27.5800 C.ar   22  TYR22       0.0417
     19  CZ        -8.9370   40.8010   27.9450 C.ar   22  TYR22       0.1957
     20  OH        -9.7110   41.6530   27.1900 O.3    22  TYR22      -0.2866
     21  N         -7.6070   42.5240   33.7840 N.3    48  ARG48      -0.1245
     22  CA        -8.9000   41.9270   34.1320 C.3    48  ARG48       0.1563
     23  C         -8.7050   40.4920   34.5640 C.2    48  ARG48       0.2260
     24  O         -7.8470   39.7970   34.0360 O.2    48  ARG48      -0.2867
     25  CB        -9.7990   41.8800   32.9050 C.3    48  ARG48       0.0307
     26  CG       -10.0120   43.2060   32.2550 C.3    48  ARG48       0.0489
     27  CD       -11.1690   43.1400   31.3000 C.3    48  ARG48       0.2205
     28  NE       -11.1110   44.2440   30.3440 N.pl3  48  ARG48      -0.0865
     29  CZ       -11.8930   44.3460   29.2750 C.cat  48  ARG48       0.5346
     30  NH1      -11.7680   45.3840   28.4600 N.pl3  48  ARG48       0.1354
     31  NH2      -12.8020   43.4090   29.0220 N.pl3  48  ARG48       0.1354
     32  N        -10.3170   36.6690   34.8180 N.3    50  ILE50      -0.1245
     33  CA       -11.3590   35.8940   34.1320 C.3    50  ILE50       0.1561
     34  C        -11.3090   34.5150   34.7000 C.2    50  ILE50       0.2260
     35  O        -10.2610   34.0970   35.2210 O.2    50  ILE50      -0.2867
     36  CB       -11.0930   35.8100   32.6170 C.3    50  ILE50       0.0252
     37  CG1       -9.7050   35.1930   32.3610 C.3    50  ILE50       0.0019
     38  CG2      -11.1910   37.2030   31.9750 C.3    50  ILE50       0.0019
     39  CD1       -9.4840   34.6920   30.9200 C.3    50  ILE50       0.0001
     40  N        -16.7540   33.4710   31.9640 N.3    55  GLU55      -0.1245
     41  CA       -16.5530   33.6110   30.5230 C.3    55  GLU55       0.1567
     42  C        -17.6650   32.8510   29.8040 C.2    55  GLU55       0.2260
     43  O        -18.1800   33.3320   28.8050 O.2    55  GLU55      -0.2867
     44  CB       -15.1640   33.1260   30.1110 C.3    55  GLU55       0.0388
     45  CG       -14.0570   34.1290   30.5170 C.3    55  GLU55       0.1160
     46  CD       -14.2050   35.4900   29.8030 C.2    55  GLU55       0.3649
     47  OE1      -14.9440   36.3670   30.3060 O.co2  55  GLU55      -0.2457
     48  OE2      -13.6170   35.6720   28.7110 O.co2  55  GLU55      -0.2457
     49  N        -20.7790   35.1280   29.9110 N.3    58  ARG58      -0.1231
     50  CA       -20.6400   36.2840   29.0490 C.3    58  ARG58       0.1694
     51  C        -20.8240   35.9060   27.5950 C.2    58  ARG58       0.2591
     52  O        -21.5070   36.5970   26.8410 O.2    58  ARG58      -0.2718
     53  CB       -19.2300   36.8800   29.2330 C.3    58  ARG58       0.0321
     54  CG       -18.8380   37.8780   28.1860 C.3    58  ARG58       0.0489
     55  CD       -17.5950   38.6540   28.6570 C.3    58  ARG58       0.2205
     56  NE       -16.3770   37.9570   28.2990 N.pl3  58  ARG58      -0.0865
     57  CZ       -15.8380   38.0520   27.0950 C.cat  58  ARG58       0.5346
     58  NH1      -14.7070   37.4040   26.8190 N.pl3  58  ARG58       0.1354
     59  NH2      -16.4190   38.8540   26.1820 N.pl3  58  ARG58       0.1354
     60  N        -20.1940   34.8150   27.1780 N.am   59  ILE59      -0.1980
     61  CA       -20.2970   34.4190   25.7830 C.3    59  ILE59       0.1595
     62  C        -21.6850   33.9100   25.4900 C.2    59  ILE59       0.2287
     63  O        -22.2310   34.2220   24.4160 O.2    59  ILE59      -0.2864
     64  CB       -19.1970   33.3690   25.4360 C.3    59  ILE59       0.0276
     65  CG1      -17.8490   34.0900   25.4750 C.3    59  ILE59       0.0022
     66  CG2      -19.4270   32.7320   24.0560 C.3    59  ILE59       0.0022
     67  CD1      -16.7020   33.1770   25.5290 C.3    59  ILE59       0.0001
     68  N        -24.3910   34.9550   26.7530 N.3    61  ILE61      -0.1231
     69  CA       -25.2570   36.1270   26.4840 C.3    61  ILE61       0.1692
     70  C        -25.0750   36.6470   25.0700 C.2    61  ILE61       0.2592
     71  O        -26.0680   36.9980   24.3730 O.2    61  ILE61      -0.2718
     72  CB       -24.9690   37.2710   27.4930 C.3    61  ILE61       0.0266
     73  CG1      -25.3330   36.7680   28.8960 C.3    61  ILE61       0.0019
     74  CG2      -25.8100   38.5320   27.0720 C.3    61  ILE61       0.0020
     75  CD1      -24.8120   37.6880   30.0450 C.3    61  ILE61       0.0001
     76  N        -23.8360   36.6920   24.5920 N.am   62  TRP62      -0.1976
     77  CA       -23.6000   37.1330   23.2250 C.3    62  TRP62       0.1640
     78  C        -24.2800   36.2200   22.2110 C.2    62  TRP62       0.2290
     79  O        -24.8920   36.6720   21.2450 O.2    62  TRP62      -0.2864
     80  CB       -22.1200   37.1970   22.9320 C.3    62  TRP62       0.0576
     81  CG       -21.7410   37.8240   21.6090 C.ar   62  TRP62       0.0006
     82  CD1      -21.5450   39.1530   21.3610 C.ar   62  TRP62       0.0946
     83  CD2      -21.4440   37.1350   20.3800 C.ar   62  TRP62       0.0152
     84  NE1      -21.1680   39.3310   20.0470 N.ar   62  TRP62      -0.2442
     85  CE2      -21.1000   38.1060   19.4260 C.ar   62  TRP62       0.0810
     86  CE3      -21.4670   35.7930   19.9860 C.ar   62  TRP62       0.0012
     87  CZ2      -20.7690   37.7880   18.1170 C.ar   62  TRP62       0.0191
     88  CZ3      -21.1360   35.4730   18.6710 C.ar   62  TRP62       0.0001
     89  CH2      -20.8000   36.4640   17.7570 C.ar   62  TRP62       0.0015
     90  N        -12.9100   36.9180   18.7530 N.3   108  ALA108     -0.1231
     91  CA       -12.9690   38.3700   18.8870 C.3   108  ALA108      0.1694
     92  C        -13.4950   38.7380   20.2490 C.2   108  ALA108      0.2591
     93  O        -13.1350   39.7730   20.7970 O.2   108  ALA108     -0.2718
     94  CB       -13.8310   39.0120   17.7530 C.3   108  ALA108      0.0304
     95  N        -14.3670   37.9060   20.8010 N.am  109  LEU109     -0.1980
     96  CA       -14.9120   38.1310   22.1540 C.3   109  LEU109      0.1596
     97  C        -13.9100   37.8560   23.2690 C.2   109  LEU109      0.2287
     98  O        -14.1760   38.1940   24.4360 O.2   109  LEU109     -0.2864
     99  CB       -16.0580   37.1580   22.4400 C.3   109  LEU109      0.0297
    100  CG       -17.3080   37.3590   21.5940 C.3   109  LEU109      0.0022
    101  CD1      -18.3570   36.2270   21.9030 C.3   109  LEU109      0.0001
    102  CD2      -17.8780   38.7470   21.8090 C.3   109  LEU109      0.0001
    103  N        -10.0620   38.3660   23.6860 N.3   111  PRO111     -0.2102
    104  CA        -8.8280   38.8980   23.1160 C.3   111  PRO111      0.1504
    105  C         -7.5600   38.1490   23.5600 C.2   111  PRO111      0.2575
    106  O         -6.5200   38.2710   22.9180 O.2   111  PRO111     -0.2718
    107  CB        -8.7720   40.3090   23.7010 C.3   111  PRO111      0.0282
    108  CG       -10.2460   40.6960   23.8770 C.3   111  PRO111      0.0208
    109  CD       -10.8800   39.4190   24.3390 C.3   111  PRO111      0.0893
    110  N         -7.6590   37.4220   24.6580 N.am  112  TYR112     -0.1977
    111  CA        -6.5530   36.5570   25.1470 C.3   112  TYR112      0.1639
    112  C         -6.4340   35.2310   24.4220 C.2   112  TYR112      0.2290
    113  O         -5.4270   34.5230   24.5600 O.2   112  TYR112     -0.2864
    114  CB        -6.7570   36.2770   26.6320 C.3   112  TYR112      0.0560
    115  CG        -8.1150   35.7200   26.9680 C.ar  112  TYR112     -0.0198
    116  CD1       -9.1370   36.5490   27.4530 C.ar  112  TYR112     -0.0009
    117  CD2       -8.3790   34.3530   26.8280 C.ar  112  TYR112     -0.0009
    118  CE1      -10.3960   36.0150   27.7780 C.ar  112  TYR112      0.0417
    119  CE2       -9.6100   33.8280   27.1350 C.ar  112  TYR112      0.0417
    120  CZ       -10.6110   34.6390   27.5960 C.ar  112  TYR112      0.1957
    121  OH       -11.8440   34.0820   27.8890 O.3   112  TYR112     -0.2866
@<TRIPOS>BOND
     1    94    91    1
     2    89    87   ar
     3    89    88   ar
     4    87    85   ar
     5    88    86   ar
     6    90    91    1
     7    91    92    1
     8    85    84   ar
     9    85    83   ar
    10    86    83   ar
    11    84    82   ar
    12    92    93    2
    13    92    95   am
    14    83    81   ar
    15    95    96    1
    16    79    78    2
    17    82    81   ar
    18   100   102    1
    19   100   101    1
    20   100    99    1
    21    81    80    1
    22    96    99    1
    23    96    97    1
    24    78    77    1
    25     1     2    1
    26   106   105    2
    27    80    77    1
    28     2     5    1
    29     2     3    1
    30   104   105    1
    31   104   103    1
    32   104   107    1
    33    77    76    1
    34    97    98    2
    35   105   110   am
    36     5     6    1
    37   103   109    1
    38   107   108    1
    39     3     4    2
    40   108   109    1
    41    66    64    1
    42    71    70    2
    43    63    62    2
    44   112   113    2
    45   112   111    1
    46    76    70   am
    47   110   111    1
    48     6     7   ar
    49     6     8   ar
    50    70    69    1
    51   111   114    1
    52    64    65    1
    53    64    61    1
    54    65    67    1
    55    62    61    1
    56    61    60    1
    57    59    57    1
    58    69    68    1
    59    69    72    1
    60   114   115    1
    61    58    57    1
    62   117   115   ar
    63   117   119   ar
    64    52    51    2
    65   115   116   ar
    66    74    72    1
    67    57    56    2
    68   119   120   ar
    69    60    51   am
    70    20    19    1
    71   116   118   ar
    72    72    73    1
    73    18    19   ar
    74    18    16   ar
    75    51    50    1
    76   120   118   ar
    77   120   121    1
    78    19    17   ar
    79    54    55    1
    80    54    53    1
    81    56    55    1
    82    16    14   ar
    83    30    29    1
    84    48    46   ar
    85    43    42    2
    86    73    75    1
    87    31    29    1
    88    17    15   ar
    89    50    53    1
    90    50    49    1
    91    29    28    2
    92    14    15   ar
    93    14    13    1
    94    46    47   ar
    95    46    45    1
    96    42    41    1
    97    44    45    1
    98    44    41    1
    99    13    10    1
   100    28    27    1
   101    41    40    1
   102     9    10    1
   103    39    37    1
   104    27    26    1
   105    10    11    1
   106    38    36    1
   107    26    25    1
   108    12    11    2
   109    37    36    1
   110    36    33    1
   111    25    22    1
   112    21    22    1
   113    24    23    2
   114    33    34    1
   115    33    32    1
   116    22    23    1
   117    34    35    2
