@<TRIPOS>MOLECULE
tmp/4g1mA02.pdb
 126 122 0 0 0
SMALL
GASTEIGER

@<TRIPOS>ATOM
      1  N         10.9700   50.6240   36.7440 N.3   180  GLN180     -0.1245
      2  CA         9.7090   51.1810   37.2080 C.3   180  GLN180      0.1566
      3  C          9.0090   51.8290   36.0240 C.2   180  GLN180      0.2260
      4  O          7.7960   51.7200   35.8620 O.2   180  GLN180     -0.2867
      5  CB         9.9520   52.2410   38.2810 C.3   180  GLN180      0.0367
      6  CG        10.2620   51.7040   39.6640 C.3   180  GLN180      0.0905
      7  CD        10.5790   52.8170   40.6440 C.2   180  GLN180      0.2608
      8  OE1       10.1340   53.9540   40.4750 O.2   180  GLN180     -0.2717
      9  NE2       11.3530   52.4970   41.6720 N.am  180  GLN180     -0.0878
     10  N          8.6610   60.6930   38.6930 N.3   211  ARG211     -0.1231
     11  CA         9.9040   60.4990   39.4250 C.3   211  ARG211      0.1694
     12  C          9.9690   59.1230   40.0720 C.2   211  ARG211      0.2593
     13  O          8.9590   58.4350   40.1850 O.2   211  ARG211     -0.2718
     14  CB        10.0880   61.6070   40.4660 C.3   211  ARG211      0.0321
     15  CG         8.7900   62.0720   41.1090 C.3   211  ARG211      0.0489
     16  CD         8.9680   63.3970   41.8400 C.3   211  ARG211      0.2205
     17  NE         7.7190   63.8510   42.4460 N.pl3 211  ARG211     -0.0865
     18  CZ         7.3090   63.5090   43.6630 C.cat 211  ARG211      0.5346
     19  NH1        8.0520   62.7070   44.4160 N.pl3 211  ARG211      0.1354
     20  NH2        6.1560   63.9680   44.1310 N.pl3 211  ARG211      0.1354
     21  N         11.1710   58.7270   40.4800 N.am  212  THR212     -0.1939
     22  CA        11.3930   57.4250   41.0950 C.3   212  THR212      0.2028
     23  C         10.5100   57.2250   42.3220 C.2   212  THR212      0.2642
     24  O         10.1380   58.1860   42.9940 O.2   212  THR212     -0.2714
     25  CB        12.8680   57.2440   41.5000 C.3   212  THR212      0.1808
     26  OG1       13.0250   56.0110   42.2140 O.3   212  THR212     -0.2208
     27  CG2       13.3070   58.3840   42.3890 C.3   212  THR212      0.0379
     28  N         10.1730   55.9690   42.5960 N.am  213  ALA213     -0.1963
     29  CA         9.3710   55.6220   43.7620 C.3   213  ALA213      0.1728
     30  C          9.9650   54.4140   44.4770 C.2   213  ALA213      0.2616
     31  O         11.0910   54.0040   44.1890 O.2   213  ALA213     -0.2715
     32  CB         7.9380   55.3430   43.3570 C.3   213  ALA213      0.0334
     33  N          9.1990   53.8470   45.4040 N.am  214  GLN214     -0.1977
     34  CA         9.6490   52.7050   46.1890 C.3   214  GLN214      0.1601
     35  C          9.9940   51.5240   45.2890 C.2   214  GLN214      0.2287
     36  O          9.5160   51.4370   44.1590 O.2   214  GLN214     -0.2864
     37  CB         8.5840   52.3020   47.2090 C.3   214  GLN214      0.0394
     38  CG         8.2310   53.3860   48.2190 C.3   214  GLN214      0.0908
     39  CD         7.1640   54.3420   47.7170 C.2   214  GLN214      0.2608
     40  OE1        7.0250   54.5650   46.5130 O.2   214  GLN214     -0.2717
     41  NE2        6.3980   54.9080   48.6440 N.am  214  GLN214     -0.0878
     42  N          7.7290   48.9640   43.2190 N.3   217  PHE217     -0.1241
     43  CA         7.1820   49.3400   41.9250 C.3   217  PHE217      0.1605
     44  C          8.1360   49.0010   40.7940 C.2   217  PHE217      0.2264
     45  O          7.8760   49.3340   39.6400 O.2   217  PHE217     -0.2867
     46  CB         6.8760   50.8350   41.8900 C.3   217  PHE217      0.0534
     47  CG         5.8330   51.2620   42.8760 C.ar  217  PHE217     -0.0203
     48  CD1        4.4900   51.0730   42.6050 C.ar  217  PHE217     -0.0042
     49  CD2        6.1940   51.8600   44.0700 C.ar  217  PHE217     -0.0042
     50  CE1        3.5250   51.4670   43.5080 C.ar  217  PHE217     -0.0003
     51  CE2        5.2330   52.2580   44.9770 C.ar  217  PHE217     -0.0003
     52  CZ         3.8970   52.0610   44.6950 C.ar  217  PHE217     -0.0000
     53  N          6.3960   51.3710   33.2110 N.3   222  LEU222     -0.1245
     54  CA         5.6370   52.5900   32.9630 C.3   222  LEU222      0.1561
     55  C          6.1510   53.2560   31.6920 C.2   222  LEU222      0.2260
     56  O          7.3540   53.4320   31.5190 O.2   222  LEU222     -0.2867
     57  CB         5.7530   53.5500   34.1460 C.3   222  LEU222      0.0270
     58  CG         5.3590   55.0080   33.8990 C.3   222  LEU222      0.0019
     59  CD1        3.8700   55.1400   33.6530 C.3   222  LEU222      0.0001
     60  CD2        5.7910   55.8840   35.0650 C.3   222  LEU222      0.0001
     61  N         -1.3390   47.7980   34.8740 N.3   252  MET252     -0.1245
     62  CA        -2.0870   48.9920   35.2270 C.3   252  MET252      0.1570
     63  C         -2.0140   50.0310   34.1250 C.2   252  MET252      0.2261
     64  O         -1.1610   49.9580   33.2420 O.2   252  MET252     -0.2867
     65  CB        -1.5740   49.5960   36.5340 C.3   252  MET252      0.0387
     66  CG        -1.8950   48.7890   37.7780 C.3   252  MET252      0.0595
     67  SD        -1.4740   49.7040   39.2720 S.3   252  MET252     -0.1393
     68  CE        -2.6480   51.0510   39.1640 C.3   252  MET252      0.0692
     69  N         -1.8940   54.2380   34.0700 N.3   254  TYR254     -0.1241
     70  CA        -1.8130   55.4800   34.8230 C.3   254  TYR254      0.1605
     71  C         -2.3120   56.6440   33.9770 C.2   254  TYR254      0.2264
     72  O         -2.1350   56.6530   32.7570 O.2   254  TYR254     -0.2867
     73  CB        -0.3660   55.7570   35.2360 C.3   254  TYR254      0.0534
     74  CG         0.2200   54.7810   36.2360 C.ar  254  TYR254     -0.0201
     75  CD1       -0.5860   53.8820   36.9240 C.ar  254  TYR254     -0.0009
     76  CD2        1.5860   54.7730   36.5020 C.ar  254  TYR254     -0.0009
     77  CE1       -0.0440   52.9970   37.8420 C.ar  254  TYR254      0.0417
     78  CE2        2.1330   53.8950   37.4130 C.ar  254  TYR254      0.0417
     79  CZ         1.3160   53.0090   38.0810 C.ar  254  TYR254      0.1957
     80  OH         1.8670   52.1340   38.9910 O.3   254  TYR254     -0.2866
     81  N         -1.8750   60.8500   34.1510 N.3   256  TYR256     -0.1241
     82  CA        -1.3050   62.0180   34.8140 C.3   256  TYR256      0.1605
     83  C         -1.8730   63.3250   34.2770 C.2   256  TYR256      0.2264
     84  O         -2.2160   63.4310   33.1010 O.2   256  TYR256     -0.2867
     85  CB         0.2190   62.0220   34.6860 C.3   256  TYR256      0.0534
     86  CG         0.8870   60.8750   35.4020 C.ar  256  TYR256     -0.0201
     87  CD1        1.1900   59.6970   34.7340 C.ar  256  TYR256     -0.0009
     88  CD2        1.2090   60.9650   36.7470 C.ar  256  TYR256     -0.0009
     89  CE1        1.7980   58.6400   35.3850 C.ar  256  TYR256      0.0417
     90  CE2        1.8170   59.9150   37.4070 C.ar  256  TYR256      0.0417
     91  CZ         2.1090   58.7560   36.7210 C.ar  256  TYR256      0.1957
     92  OH         2.7120   57.7090   37.3750 O.3   256  TYR256     -0.2866
     93  N         -1.0540   62.7380   39.5110 N.3   263  SER263     -0.1202
     94  CA        -1.8340   61.5320   39.2580 C.3   263  SER263      0.2020
     95  C         -3.3300   61.8200   39.3150 C.2   263  SER263      0.2619
     96  O         -3.7930   62.5440   40.1960 O.2   263  SER263     -0.2717
     97  CB        -1.4720   60.4330   40.2550 C.3   263  SER263      0.2103
     98  OG        -2.3380   59.3180   40.1130 O.3   263  SER263     -0.2182
     99  N         -4.0760   61.2450   38.3740 N.am  264  LEU264     -0.1965
    100  CA        -5.5170   61.4690   38.2700 C.3   264  LEU264      0.1728
    101  C         -6.3220   60.2010   38.5090 C.2   264  LEU264      0.2616
    102  O         -6.9980   60.0700   39.5270 O.2   264  LEU264     -0.2715
    103  CB        -5.8720   62.0550   36.9010 C.3   264  LEU264      0.0311
    104  CG        -5.5500   63.5360   36.6910 C.3   264  LEU264      0.0022
    105  CD1       -5.8460   63.9470   35.2610 C.3   264  LEU264      0.0001
    106  CD2       -6.3390   64.3890   37.6690 C.3   264  LEU264      0.0001
    107  N         -6.2610   59.2730   37.5600 N.am  265  TYR265     -0.1960
    108  CA        -6.9770   58.0090   37.6930 C.3   265  TYR265      0.1771
    109  C         -6.0700   56.8220   37.3990 C.2   265  TYR265      0.2619
    110  O         -5.0860   56.9460   36.6710 O.2   265  TYR265     -0.2715
    111  CB        -8.1880   57.9700   36.7610 C.3   265  TYR265      0.0574
    112  CG        -9.1750   59.0970   36.9650 C.ar  265  TYR265     -0.0198
    113  CD1      -10.1650   59.0140   37.9370 C.ar  265  TYR265     -0.0009
    114  CD2       -9.1280   60.2390   36.1750 C.ar  265  TYR265     -0.0009
    115  CE1      -11.0740   60.0430   38.1210 C.ar  265  TYR265      0.0417
    116  CE2      -10.0320   61.2700   36.3510 C.ar  265  TYR265      0.0417
    117  CZ       -11.0020   61.1690   37.3240 C.ar  265  TYR265      0.1957
    118  OH       -11.9010   62.1970   37.4990 O.3   265  TYR265     -0.2866
    119  N         -6.4070   55.6720   37.9750 N.am  266  ASN266     -0.1972
    120  CA        -5.7130   54.4260   37.6760 C.3   266  ASN266      0.1688
    121  C         -6.6690   53.3760   37.1400 C.2   266  ASN266      0.2292
    122  O         -7.8480   53.3580   37.4900 O.2   266  ASN266     -0.2864
    123  CB        -5.0310   53.8600   38.9210 C.3   266  ASN266      0.1181
    124  CG        -3.8730   54.7030   39.3900 C.2   266  ASN266      0.2629
    125  OD1       -3.2200   55.3840   38.5960 O.2   266  ASN266     -0.2716
    126  ND2       -3.6110   54.6620   40.6960 N.am  266  ASN266     -0.0877
@<TRIPOS>BOND
     1    56    55    2
     2    55    54    1
     3    72    71    2
     4    54    53    1
     5    54    57    1
     6    84    83    2
     7    64    63    2
     8    59    58    1
     9    58    57    1
    10    58    60    1
    11    71    70    1
    12    69    70    1
    13    63    62    1
    14    81    82    1
    15    83    82    1
    16    85    82    1
    17    85    86    1
    18    87    89   ar
    19    87    86   ar
    20    70    73    1
    21    61    62    1
    22    62    65    1
    23    73    74    1
    24   105   104    1
    25    89    91   ar
    26    86    88   ar
    27     4     3    2
    28     3     2    1
    29   114   116   ar
    30   114   112   ar
    31    74    76   ar
    32    74    75   ar
    33   116   117   ar
    34    76    78   ar
    35    65    66    1
    36   110   109    2
    37   104   103    1
    38   104   106    1
    39    91    92    1
    40    91    90   ar
    41     1     2    1
    42    88    90   ar
    43   111   112    1
    44   111   108    1
    45   103   100    1
    46    75    77   ar
    47   112   113   ar
    48   121   122    2
    49   121   120    1
    50     2     5    1
    51   117   118    1
    52   117   115   ar
    53   109   108    1
    54   109   119   am
    55    78    79   ar
    56   107   108    1
    57   107   101   am
    58   120   119    1
    59   120   123    1
    60    66    67    1
    61    77    79   ar
    62   113   115   ar
    63    79    80    1
    64   100    99    1
    65   100   101    1
    66     5     6    1
    67    99    95   am
    68   101   102    2
    69   125   124    2
    70    10    11    1
    71   123   124    1
    72    68    67    1
    73    94    95    1
    74    94    93    1
    75    94    97    1
    76    95    96    2
    77   124   126   am
    78    11    12    1
    79    11    14    1
    80    45    44    2
    81     6     7    1
    82    12    13    2
    83    12    21   am
    84    98    97    1
    85    14    15    1
    86     8     7    2
    87    21    22    1
    88     7     9   am
    89    44    43    1
    90    22    25    1
    91    22    23    1
    92    15    16    1
    93    25    26    1
    94    25    27    1
    95    16    17    1
    96    46    43    1
    97    46    47    1
    98    43    42    1
    99    23    28   am
   100    23    24    2
   101    17    18    2
   102    28    29    1
   103    48    47   ar
   104    48    50   ar
   105    47    49   ar
   106    32    29    1
   107    50    52   ar
   108    18    20    1
   109    18    19    1
   110    29    30    1
   111    49    51   ar
   112    36    35    2
   113    31    30    2
   114    30    33   am
   115    52    51   ar
   116    35    34    1
   117    33    34    1
   118    34    37    1
   119    40    39    2
   120    37    38    1
   121    39    38    1
   122    39    41   am
