@<TRIPOS>MOLECULE
tmp/4g1mA00.pdb
 74 72 0 0 0
SMALL
GASTEIGER

@<TRIPOS>ATOM
      1  N         12.7270   47.4960    2.5930 N.3    14  PRO14      -0.2102
      2  CA        13.7920   46.4870    2.5150 C.3    14  PRO14       0.1504
      3  C         13.4830   45.2960    3.4090 C.2    14  PRO14       0.2576
      4  O         13.0630   45.4990    4.5480 O.2    14  PRO14      -0.2718
      5  CB        15.0170   47.2280    3.0640 C.3    14  PRO14       0.0282
      6  CG        14.7010   48.6700    2.9010 C.3    14  PRO14       0.0208
      7  CD        13.2270   48.7850    3.0990 C.3    14  PRO14       0.0893
      8  N         13.6840   44.0790    2.9150 N.am   15  GLU15      -0.1966
      9  CA        13.3600   42.9010    3.7170 C.3    15  GLU15       0.1733
     10  C         14.2320   42.7950    4.9680 C.2    15  GLU15       0.2617
     11  O         15.4520   42.9670    4.9150 O.2    15  GLU15      -0.2715
     12  CB        13.4150   41.6100    2.8920 C.3    15  GLU15       0.0429
     13  CG        14.8000   41.1910    2.4290 C.3    15  GLU15       0.1163
     14  CD        14.8390   39.7470    1.9660 C.2    15  GLU15       0.3649
     15  OE1       13.8220   39.0400    2.1390 O.co2  15  GLU15      -0.2457
     16  OE2       15.8830   39.3170    1.4320 O.co2  15  GLU15      -0.2457
     17  N         13.5860   42.5300    6.0980 N.am   16  GLY16      -0.1940
     18  CA        14.2820   42.3850    7.3610 C.3    16  GLY16       0.2014
     19  C         14.4220   43.6920    8.1110 C.2    16  GLY16       0.2639
     20  O         14.9040   43.7130    9.2410 O.2    16  GLY16      -0.2714
     21  N         13.9970   44.7850    7.4870 N.am   17  SER17      -0.1949
     22  CA        14.1200   46.1040    8.0970 C.3    17  SER17       0.1924
     23  C         12.9660   46.4070    9.0490 C.2    17  SER17       0.2314
     24  O         12.9460   47.4590    9.6870 O.2    17  SER17      -0.2863
     25  CB        14.1900   47.1870    7.0200 C.3    17  SER17       0.2116
     26  OG        12.9350   47.3480    6.3820 O.3    17  SER17      -0.2180
     27  N         14.9400   48.1740   11.7760 N.3    42  LYS42      -0.1231
     28  CA        16.1160   47.3510   11.5160 C.3    42  LYS42       0.1693
     29  C         16.7650   47.6520   10.1710 C.2    42  LYS42       0.2592
     30  O         17.5630   46.8600    9.6710 O.2    42  LYS42      -0.2718
     31  CB        15.7670   45.8640   11.6050 C.3    42  LYS42       0.0285
     32  CG        15.9010   45.2630   12.9970 C.3    42  LYS42       0.0035
     33  CD        15.7440   43.7500   12.9410 C.3    42  LYS42       0.0206
     34  CE        16.3360   43.0670   14.1610 C.3    42  LYS42       0.1093
     35  NZ        15.4960   43.2510   15.3720 N.3    42  LYS42      -0.1314
     36  N         16.4310   48.8010    9.5950 N.am   43  ALA43      -0.1966
     37  CA        16.9540   49.1710    8.2870 C.3    43  ALA43       0.1728
     38  C         18.4250   49.5790    8.3320 C.2    43  ALA43       0.2616
     39  O         18.8550   50.2960    9.2390 O.2    43  ALA43      -0.2715
     40  CB        16.1170   50.2770    7.6840 C.3    43  ALA43       0.0334
     41  N         19.1870   49.1120    7.3440 N.am   44  ASN44      -0.1972
     42  CA        20.5880   49.4880    7.1930 C.3    44  ASN44       0.1688
     43  C         20.7080   50.8740    6.5800 C.2    44  ASN44       0.2292
     44  O         19.9700   51.2120    5.6550 O.2    44  ASN44      -0.2864
     45  CB        21.3230   48.4730    6.3190 C.3    44  ASN44       0.1181
     46  CG        21.8140   47.2770    7.1030 C.2    44  ASN44       0.2629
     47  OD1       22.2100   47.4000    8.2630 O.2    44  ASN44      -0.2716
     48  ND2       21.8000   46.1090    6.4680 N.am   44  ASN44      -0.0877
     49  N         25.4870   49.3940   11.8830 N.3    51  VAL51      -0.1231
     50  CA        24.6960   48.3000   11.3280 C.3    51  VAL51       0.1692
     51  C         23.2620   48.3340   11.8510 C.2    51  VAL51       0.2591
     52  O         23.0380   48.3930   13.0620 O.2    51  VAL51      -0.2718
     53  CB        25.3130   46.9350   11.6730 C.3    51  VAL51       0.0266
     54  CG1       24.5540   45.8170   10.9810 C.3    51  VAL51       0.0020
     55  CG2       26.7740   46.9060   11.2780 C.3    51  VAL51       0.0020
     56  N         22.3000   48.2920   10.9300 N.am   52  GLU52      -0.1979
     57  CA        20.8780   48.3010   11.2720 C.3    52  GLU52       0.1602
     58  C         20.5050   49.4380   12.2180 C.2    52  GLU52       0.2287
     59  O         19.8770   49.2150   13.2510 O.2    52  GLU52      -0.2864
     60  CB        20.4470   46.9570   11.8690 C.3    52  GLU52       0.0415
     61  CG        20.4720   45.8000   10.8860 C.3    52  GLU52       0.1163
     62  CD        19.8470   44.5380   11.4490 C.2    52  GLU52       0.3649
     63  OE1       19.8500   43.5060   10.7450 O.co2  52  GLU52      -0.2457
     64  OE2       19.3490   44.5770   12.5920 O.co2  52  GLU52      -0.2457
     65  N         21.9820   48.8510   15.8290 N.3    91  HIS91      -0.1241
     66  CA        20.8350   48.1730   16.4230 C.3    91  HIS91       0.1621
     67  C         20.1150   49.0470   17.4460 C.2    91  HIS91       0.2264
     68  O         19.6610   48.5580   18.4790 O.2    91  HIS91      -0.2867
     69  CB        21.2610   46.8480   17.0610 C.3    91  HIS91       0.0745
     70  CG        22.0500   45.9660   16.1470 C.ar   91  HIS91       0.0817
     71  ND1       21.4590   45.1420   15.2110 N.ar   91  HIS91      -0.2268
     72  CD2       23.3850   45.7810   16.0180 C.ar   91  HIS91       0.1154
     73  CE1       22.3950   44.4880   14.5490 C.ar   91  HIS91       0.1986
     74  NE2       23.5730   44.8570   15.0190 N.ar   91  HIS91      -0.2212
@<TRIPOS>BOND
     1    16    14   ar
     2    14    15   ar
     3    14    13    1
     4    13    12    1
     5     2     1    1
     6     2     5    1
     7     2     3    1
     8     1     7    1
     9    12     9    1
    10     6     5    1
    11     6     7    1
    12     8     3   am
    13     8     9    1
    14     3     4    2
    15     9    10    1
    16    11    10    2
    17    10    17   am
    18    44    43    2
    19    17    18    1
    20    45    46    1
    21    45    42    1
    22    26    25    1
    23    48    46   am
    24    43    42    1
    25    25    22    1
    26    46    47    2
    27    42    41    1
    28    41    38   am
    29    18    19    1
    30    21    22    1
    31    21    19   am
    32    40    37    1
    33    22    23    1
    34    19    20    2
    35    37    38    1
    36    37    36    1
    37    38    39    2
    38    23    24    2
    39    36    29   am
    40    30    29    2
    41    29    28    1
    42    63    62   ar
    43    61    62    1
    44    61    60    1
    45    56    57    1
    46    56    51   am
    47    54    53    1
    48    57    60    1
    49    57    58    1
    50    55    53    1
    51    50    53    1
    52    50    51    1
    53    50    49    1
    54    62    64   ar
    55    28    31    1
    56    28    27    1
    57    31    32    1
    58    51    52    2
    59    58    59    2
    60    33    32    1
    61    33    34    1
    62    34    35    1
    63    73    74   ar
    64    73    71   ar
    65    74    72   ar
    66    71    70   ar
    67    65    66    1
    68    72    70   ar
    69    70    69    1
    70    66    69    1
    71    66    67    1
    72    67    68    2
