@<TRIPOS>MOLECULE
tmp/4g1nA00.pdb
 144 137 0 0 0
SMALL
GASTEIGER

@<TRIPOS>ATOM
      1  N         -6.2510  -10.2220   45.9040 N.3    13  PHE13      -0.1227
      2  CA        -5.0810  -10.3870   46.7240 C.3    13  PHE13       0.1736
      3  C         -5.0220   -9.3750   47.8720 C.2    13  PHE13       0.2595
      4  O         -4.7290   -9.7260   49.0170 O.2    13  PHE13      -0.2718
      5  CB        -3.8240  -10.2730   45.8790 C.3    13  PHE13       0.0547
      6  CG        -2.7920  -11.2680   46.2540 C.ar   13  PHE13      -0.0202
      7  CD1       -1.9320  -11.7900   45.3000 C.ar   13  PHE13      -0.0042
      8  CD2       -2.7310  -11.7580   47.5490 C.ar   13  PHE13      -0.0042
      9  CE1       -0.9980  -12.7440   45.6460 C.ar   13  PHE13      -0.0003
     10  CE2       -1.7860  -12.7100   47.9060 C.ar   13  PHE13      -0.0003
     11  CZ        -0.9240  -13.2040   46.9500 C.ar   13  PHE13      -0.0000
     12  N         -5.2790   -8.1110   47.5540 N.am   14  LEU14      -0.1980
     13  CA        -5.2790   -7.0650   48.5650 C.3    14  LEU14       0.1596
     14  C         -6.2540   -7.3940   49.7090 C.2    14  LEU14       0.2287
     15  O         -5.8880   -7.3700   50.8860 O.2    14  LEU14      -0.2864
     16  CB        -5.5540   -5.6820   47.9260 C.3    14  LEU14       0.0297
     17  CG        -5.6110   -4.5340   48.9310 C.3    14  LEU14       0.0022
     18  CD1       -4.3060   -4.4190   49.7300 C.3    14  LEU14       0.0001
     19  CD2       -6.0000   -3.2070   48.2950 C.3    14  LEU14       0.0001
     20  N         -7.3830  -10.2700   50.4770 N.3    16  HIS16      -0.1226
     21  CA        -6.8570  -11.4490   51.1310 C.3    16  HIS16       0.1752
     22  C         -5.8650  -11.0480   52.1870 C.2    16  HIS16       0.2595
     23  O         -5.9390  -11.5490   53.2990 O.2    16  HIS16      -0.2718
     24  CB        -6.1930  -12.3950   50.1240 C.3    16  HIS16       0.0759
     25  CG        -5.4040  -13.4980   50.7650 C.ar   16  HIS16       0.0818
     26  ND1       -5.9820  -14.6690   51.1880 N.ar   16  HIS16      -0.2268
     27  CD2       -4.0860  -13.6030   51.0650 C.ar   16  HIS16       0.1154
     28  CE1       -5.0570  -15.4640   51.6990 C.ar   16  HIS16       0.1986
     29  NE2       -3.8960  -14.8410   51.6330 N.ar   16  HIS16      -0.2212
     30  N         -4.9370  -10.1460   51.8510 N.am   17  MET17      -0.1979
     31  CA        -4.0080   -9.6190   52.8520 C.3    17  MET17       0.1605
     32  C         -4.7290   -8.9570   54.0390 C.2    17  MET17       0.2287
     33  O         -4.3470   -9.1720   55.1720 O.2    17  MET17      -0.2864
     34  CB        -3.0150   -8.6120   52.2530 C.3    17  MET17       0.0413
     35  CG        -2.3300   -9.0220   50.9600 C.3    17  MET17       0.0598
     36  SD        -1.4710  -10.6090   51.0900 S.3    17  MET17      -0.1393
     37  CE        -0.4010  -10.2480   52.4780 C.3    17  MET17       0.0692
     38  N         13.2090  -15.2310   44.2730 N.3   298  LYS298     -0.1245
     39  CA        11.8290  -15.2450   43.7530 C.3   298  LYS298      0.1561
     40  C         11.7080  -15.7970   42.3410 C.2   298  LYS298      0.2260
     41  O         10.7570  -16.5130   42.0210 O.2   298  LYS298     -0.2867
     42  CB        11.1610  -13.8820   43.8880 C.3   298  LYS298      0.0271
     43  CG        10.8030  -13.5670   45.3430 C.3   298  LYS298      0.0035
     44  CD        10.4010  -12.1130   45.5510 C.3   298  LYS298      0.0206
     45  CE        10.3870  -11.7990   47.0410 C.3   298  LYS298      0.1093
     46  NZ         9.1810  -12.2920   47.7810 N.3   298  LYS298     -0.1314
     47  N          9.7280  -19.1390   41.5560 N.3   302  GLY302     -0.1225
     48  CA         8.6970  -19.0800   40.5160 C.3   302  GLY302      0.1811
     49  C          8.8500  -20.1430   39.4080 C.2   302  GLY302      0.2280
     50  O          7.9090  -20.8860   39.0880 O.2   302  GLY302     -0.2866
     51  N          8.2510  -23.7220   40.6200 N.3   305  ASN305     -0.1240
     52  CA         6.8150  -23.9130   40.8400 C.3   305  ASN305      0.1653
     53  C          6.1710  -24.1830   39.4700 C.2   305  ASN305      0.2266
     54  O          5.4350  -25.1760   39.2880 O.2   305  ASN305     -0.2867
     55  CB         6.1550  -22.6740   41.4900 C.3   305  ASN305      0.1155
     56  CG         6.4790  -22.4940   42.9930 C.2   305  ASN305      0.2627
     57  OD1        6.0360  -21.5150   43.5870 O.2   305  ASN305     -0.2716
     58  ND2        7.2160  -23.4190   43.6050 N.am  305  ASN305     -0.0877
     59  N          8.2250  -15.6490   54.2740 N.3   337  ASN337     -0.1240
     60  CA         8.2300  -15.1770   52.9090 C.3   337  ASN337      0.1653
     61  C          8.8030  -16.2000   51.9120 C.2   337  ASN337      0.2266
     62  O          8.4170  -16.2190   50.7350 O.2   337  ASN337     -0.2867
     63  CB         8.9020  -13.8110   52.8260 C.3   337  ASN337      0.1155
     64  CG         7.9270  -12.6850   53.1560 C.2   337  ASN337      0.2627
     65  OD1        6.8200  -12.6050   52.5840 O.2   337  ASN337     -0.2716
     66  ND2        8.3060  -11.8350   54.1000 N.am  337  ASN337     -0.0877
     67  N          8.1950  -19.3430   52.1990 N.3   339  VAL339     -0.1231
     68  CA         7.0220  -20.2040   52.0220 C.3   339  VAL339      0.1692
     69  C          5.9980  -19.5820   51.0800 C.2   339  VAL339      0.2592
     70  O          5.5340  -20.2240   50.1100 O.2   339  VAL339     -0.2718
     71  CB         6.3900  -20.5930   53.3740 C.3   339  VAL339      0.0266
     72  CG1        5.1480  -21.4690   53.1550 C.3   339  VAL339      0.0020
     73  CG2        7.3900  -21.3530   54.2110 C.3   339  VAL339      0.0020
     74  N          5.6610  -18.3200   51.3330 N.am  340  LEU340     -0.1966
     75  CA         4.7060  -17.6260   50.5040 C.3   340  LEU340      0.1728
     76  C          5.2460  -17.5240   49.0860 C.2   340  LEU340      0.2616
     77  O          4.4810  -17.5890   48.1230 O.2   340  LEU340     -0.2715
     78  CB         4.4060  -16.2440   51.0730 C.3   340  LEU340      0.0311
     79  CG         3.7930  -16.2940   52.4820 C.3   340  LEU340      0.0022
     80  CD1        3.6430  -14.8840   53.0350 C.3   340  LEU340      0.0001
     81  CD2        2.4520  -17.0230   52.4720 C.3   340  LEU340      0.0001
     82  N          6.5590  -17.3780   48.9530 N.am  341  ASP341     -0.1957
     83  CA         7.1960  -17.3740   47.6480 C.3   341  ASP341      0.1840
     84  C          6.8860  -18.6590   46.9020 C.2   341  ASP341      0.2622
     85  O          6.7050  -18.6440   45.6890 O.2   341  ASP341     -0.2715
     86  CB         8.7120  -17.2520   47.7810 C.3   341  ASP341      0.1450
     87  CG         9.1780  -15.8320   48.1350 C.2   341  ASP341      0.3671
     88  OD1        8.3590  -14.8690   48.1190 O.co2 341  ASP341     -0.2456
     89  OD2       10.3900  -15.6800   48.4410 O.co2 341  ASP341     -0.2456
     90  N          6.8280  -19.7720   47.6340 N.am  342  GLY342     -0.1954
     91  CA         6.5930  -21.0660   47.0130 C.3   342  GLY342      0.1869
     92  C          7.6540  -22.1250   47.3050 C.2   342  GLY342      0.2309
     93  O          7.6130  -23.1950   46.7100 O.2   342  GLY342     -0.2863
     94  N         -1.6170  -18.8910   55.2620 N.3   375  ALA375     -0.1231
     95  CA        -1.8290  -17.5440   54.7180 C.3   375  ALA375      0.1694
     96  C         -1.7280  -17.4990   53.1970 C.2   375  ALA375      0.2592
     97  O         -1.9170  -16.4400   52.5920 O.2   375  ALA375     -0.2718
     98  CB        -0.8360  -16.5680   55.3170 C.3   375  ALA375      0.0304
     99  N         -1.3970  -18.6360   52.5890 N.am  376  ILE376     -0.1966
    100  CA        -1.2850  -18.7020   51.1590 C.3   376  ILE376      0.1727
    101  C         -2.6510  -18.3730   50.5210 C.2   376  ILE376      0.2616
    102  O         -3.6960  -18.7780   51.0380 O.2   376  ILE376     -0.2715
    103  CB        -0.7700  -20.0790   50.7300 C.3   376  ILE376      0.0290
    104  CG1        0.7440  -20.1580   50.9520 C.3   376  ILE376      0.0022
    105  CG2       -1.1010  -20.3560   49.2730 C.3   376  ILE376      0.0023
    106  CD1        1.2740  -21.5690   50.8070 C.3   376  ILE376      0.0001
    107  N         -2.6350  -17.6260   49.4200 N.am  377  TYR377     -0.1974
    108  CA        -3.8520  -17.2700   48.7130 C.3   377  TYR377      0.1639
    109  C         -4.1210  -18.3240   47.6510 C.2   377  TYR377      0.2290
    110  O         -3.8680  -18.1050   46.4460 O.2   377  TYR377     -0.2864
    111  CB        -3.6980  -15.8700   48.0870 C.3   377  TYR377      0.0560
    112  CG        -4.9350  -15.2850   47.4250 C.ar  377  TYR377     -0.0198
    113  CD1       -6.2270  -15.6240   47.8470 C.ar  377  TYR377     -0.0009
    114  CD2       -4.8050  -14.3500   46.4020 C.ar  377  TYR377     -0.0009
    115  CE1       -7.3480  -15.0680   47.2490 C.ar  377  TYR377      0.0417
    116  CE2       -5.9180  -13.7790   45.7960 C.ar  377  TYR377      0.0417
    117  CZ        -7.1840  -14.1340   46.2210 C.ar  377  TYR377      0.1957
    118  OH        -8.2780  -13.5420   45.6260 O.3   377  TYR377     -0.2866
    119  N         -5.9070  -17.7660   43.9970 N.3   380  GLN380     -0.1231
    120  CA        -5.1110  -17.3020   42.8770 C.3   380  GLN380      0.1698
    121  C         -3.9760  -18.2460   42.4740 C.2   380  GLN380      0.2592
    122  O         -3.6340  -18.3590   41.2930 O.2   380  GLN380     -0.2718
    123  CB        -4.5910  -15.8860   43.1160 C.3   380  GLN380      0.0381
    124  CG        -3.8230  -15.3000   41.9370 C.3   380  GLN380      0.0905
    125  CD        -3.6440  -13.7710   42.0060 C.2   380  GLN380      0.2608
    126  OE1       -2.6910  -13.2240   41.4270 O.2   380  GLN380     -0.2717
    127  NE2       -4.5800  -13.0770   42.6730 N.am  380  GLN380     -0.0878
    128  N         -3.3590  -18.8860   43.4490 N.am  381  LEU381     -0.1980
    129  CA        -2.2450  -19.7700   43.1650 C.3   381  LEU381      0.1596
    130  C         -2.7300  -20.9620   42.3410 C.2   381  LEU381      0.2287
    131  O         -2.1130  -21.3450   41.3760 O.2   381  LEU381     -0.2864
    132  CB        -1.6200  -20.2690   44.4660 C.3   381  LEU381      0.0297
    133  CG        -0.4620  -21.2510   44.3050 C.3   381  LEU381      0.0022
    134  CD1        0.6840  -20.5970   43.5340 C.3   381  LEU381      0.0001
    135  CD2       -0.0110  -21.6890   45.6960 C.3   381  LEU381      0.0001
    136  N         -3.5400  -19.8960   38.7310 N.3   384  GLU384     -0.1245
    137  CA        -2.3700  -19.5810   37.9070 C.3   384  GLU384      0.1567
    138  C         -1.5580  -20.8070   37.5120 C.2   384  GLU384      0.2260
    139  O         -1.0960  -20.9000   36.3590 O.2   384  GLU384     -0.2867
    140  CB        -1.4770  -18.4880   38.5430 C.3   384  GLU384      0.0388
    141  CG        -2.2090  -17.1530   38.6990 C.3   384  GLU384      0.1160
    142  CD        -1.3430  -15.9730   39.1540 C.2   384  GLU384      0.3649
    143  OE1       -0.1430  -16.1580   39.4620 O.co2 384  GLU384     -0.2457
    144  OE2       -1.8690  -14.8290   39.1970 O.co2 384  GLU384     -0.2457
@<TRIPOS>BOND
     1   139   138    2
     2   138   137    1
     3   137   140    1
     4   137   136    1
     5   140   141    1
     6   141   142    1
     7    50    49    2
     8   142   144   ar
     9   142   143   ar
    10    54    53    2
    11    49    48    1
    12    53    52    1
    13    48    47    1
    14    51    52    1
    15    52    55    1
    16   122   121    2
    17   131   130    2
    18   126   125    2
    19    55    56    1
    20   124   125    1
    21   124   123    1
    22   125   127   am
    23    41    40    2
    24   130   129    1
    25    40    39    1
    26   121   120    1
    27   121   128   am
    28   120   123    1
    29   120   119    1
    30    56    57    2
    31    56    58   am
    32   129   128    1
    33   129   132    1
    34   134   133    1
    35    39    42    1
    36    39    38    1
    37    42    43    1
    38   133   132    1
    39   133   135    1
    40     7     9   ar
    41     7     6   ar
    42    43    44    1
    43    44    45    1
    44   118   117    1
    45     9    11   ar
    46    85    84    2
    47   116   117   ar
    48   116   114   ar
    49     5     6    1
    50     5     2    1
    51     1     2    1
    52   117   115   ar
    53     6     8   ar
    54   114   112   ar
    55   110   109    2
    56    93    92    2
    57     2     3    1
    58    84    90   am
    59    84    83    1
    60    11    10   ar
    61    91    92    1
    62    91    90    1
    63    45    46    1
    64   115   113   ar
    65   112   113   ar
    66   112   111    1
    67     8    10   ar
    68    12     3   am
    69    12    13    1
    70    83    86    1
    71    83    82    1
    72   109   108    1
    73    86    87    1
    74     3     4    2
    75    16    13    1
    76    16    17    1
    77   111   108    1
    78    88    87   ar
    79    77    76    2
    80    87    89   ar
    81    19    17    1
    82    13    14    1
    83   108   107    1
    84    17    18    1
    85    82    76   am
    86    76    75    1
    87   105   103    1
    88   107   101   am
    89    14    15    2
    90    70    69    2
    91    24    25    1
    92    24    21    1
    93    20    21    1
    94    75    78    1
    95    75    74    1
    96   101   102    2
    97   101   100    1
    98   103   104    1
    99   103   100    1
   100    62    61    2
   101    25    27   ar
   102    25    26   ar
   103   106   104    1
   104    35    36    1
   105    35    34    1
   106    27    29   ar
   107    78    79    1
   108    69    74   am
   109    69    68    1
   110    36    37    1
   111    21    22    1
   112   100    99    1
   113    26    28   ar
   114    29    28   ar
   115    30    22   am
   116    30    31    1
   117    61    60    1
   118    68    67    1
   119    68    71    1
   120    22    23    2
   121    34    31    1
   122    81    79    1
   123    79    80    1
   124    65    64    2
   125    99    96   am
   126    97    96    2
   127    63    60    1
   128    63    64    1
   129    31    32    1
   130    60    59    1
   131    72    71    1
   132    64    66   am
   133    96    95    1
   134    71    73    1
   135    32    33    2
   136    95    94    1
   137    95    98    1
