@<TRIPOS>MOLECULE
tmp/4g1wA01.pdb
 148 136 0 0 0
SMALL
GASTEIGER

@<TRIPOS>ATOM
      1  N          6.0240   -6.4140   -6.9730 N.3    23  LYS23      -0.1245
      2  CA         4.9360   -7.3320   -7.2840 C.3    23  LYS23       0.1561
      3  C          4.2280   -6.7970   -8.5310 C.2    23  LYS23       0.2260
      4  O          4.1450   -5.5760   -8.7050 O.2    23  LYS23      -0.2867
      5  CB         3.9660   -7.4300   -6.0980 C.3    23  LYS23       0.0271
      6  CG         3.3340   -6.1180   -5.8040 C.3    23  LYS23       0.0035
      7  CD         2.4620   -6.1180   -4.6040 C.3    23  LYS23       0.0206
      8  CE         1.7920   -4.7390   -4.5240 C.3    23  LYS23       0.1093
      9  NZ         0.9110   -4.5980   -3.3210 N.3    23  LYS23      -0.1314
     10  N          1.3720   -5.5030  -11.0450 N.3    25  ILE25      -0.1231
     11  CA         0.0520   -4.8630  -10.8710 C.3    25  ILE25       0.1692
     12  C         -0.7740   -4.7830  -12.1680 C.2    25  ILE25       0.2593
     13  O         -1.9470   -4.4400  -12.1400 O.2    25  ILE25      -0.2718
     14  CB         0.1390   -3.4490  -10.2120 C.3    25  ILE25       0.0266
     15  CG1        1.1870   -2.5940  -10.9180 C.3    25  ILE25       0.0019
     16  CG2        0.4320   -3.5790   -8.7200 C.3    25  ILE25       0.0020
     17  CD1        1.1410   -1.1460  -10.5870 C.3    25  ILE25       0.0001
     18  N         -0.1540   -5.0930  -13.3000 N.am   26  GLY26      -0.1942
     19  CA        -0.8990   -5.2220  -14.5500 C.3    26  GLY26       0.2014
     20  C          0.0540   -5.2120  -15.7270 C.2    26  GLY26       0.2640
     21  O          1.2830   -5.0610  -15.5590 O.2    26  GLY26      -0.2714
     22  N         -0.5080   -5.3900  -16.9240 N.am   27  SER27      -0.1935
     23  CA         0.2820   -5.2890  -18.1460 C.3    27  SER27       0.2055
     24  C         -0.4780   -4.6320  -19.2710 C.2    27  SER27       0.2643
     25  O         -1.7170   -4.6000  -19.2650 O.2    27  SER27      -0.2714
     26  CB         0.8710   -6.6440  -18.5910 C.3    27  SER27       0.2130
     27  OG        -0.0600   -7.7020  -18.4280 O.3    27  SER27      -0.2179
     28  N          0.2910   -4.0850  -20.2130 N.am   28  GLY28      -0.1954
     29  CA        -0.2070   -3.6150  -21.4960 C.3    28  GLY28       0.1869
     30  C          0.6910   -4.2500  -22.5320 C.2    28  GLY28       0.2309
     31  O          1.5460   -5.0860  -22.1970 O.2    28  GLY28      -0.2863
     32  N          4.2880   -4.1390  -15.5380 N.3    33  VAL33      -0.1245
     33  CA         4.3830   -3.0720  -14.5400 C.3    33  VAL33       0.1561
     34  C          4.4110   -3.6430  -13.1130 C.2    33  VAL33       0.2260
     35  O          3.4840   -4.3580  -12.6980 O.2    33  VAL33      -0.2867
     36  CB         3.2130   -2.0490  -14.7030 C.3    33  VAL33       0.0252
     37  CG1        3.2750   -0.9710  -13.6450 C.3    33  VAL33       0.0019
     38  CG2        3.2130   -1.4240  -16.1260 C.3    33  VAL33       0.0019
     39  N          4.6720   -2.8070   -8.8960 N.3    35  ALA35      -0.1245
     40  CA         4.6950   -1.8330   -7.8050 C.3    35  ALA35       0.1562
     41  C          5.9340   -2.1610   -6.9870 C.2    35  ALA35       0.2260
     42  O          6.3350   -3.3250   -6.9130 O.2    35  ALA35      -0.2867
     43  CB         3.4180   -1.9190   -6.9330 C.3    35  ALA35       0.0290
     44  N          6.0650    4.4980   -2.4730 N.3    44  ASN44      -0.1240
     45  CA         5.7650    3.5040   -3.4910 C.3    44  ASN44       0.1653
     46  C          5.8750    4.0650   -4.9100 C.2    44  ASN44       0.2266
     47  O          5.5290    5.2270   -5.1560 O.2    44  ASN44      -0.2867
     48  CB         4.3750    2.9080   -3.2640 C.3    44  ASN44       0.1155
     49  CG         4.2970    2.0900   -1.9940 C.2    44  ASN44       0.2627
     50  OD1        5.2250    1.3600   -1.6410 O.2    44  ASN44      -0.2716
     51  ND2        3.1790    2.2020   -1.3040 N.am   44  ASN44      -0.0877
     52  N          5.9100    2.8840   -9.4410 N.3    46  ALA46      -0.1245
     53  CA         5.6440    1.9210  -10.4930 C.3    46  ALA46       0.1562
     54  C          6.9230    1.7880  -11.2950 C.2    46  ALA46       0.2260
     55  O          7.5740    2.7960  -11.6330 O.2    46  ALA46      -0.2867
     56  CB         4.4950    2.3990  -11.4050 C.3    46  ALA46       0.0290
     57  N          8.2190    0.0850  -14.8460 N.3    48  LYS48      -0.1245
     58  CA         7.7400   -0.4740  -16.0940 C.3    48  LYS48       0.1561
     59  C          8.9590   -0.9050  -16.8380 C.2    48  LYS48       0.2260
     60  O          9.8950   -0.1170  -17.0130 O.2    48  LYS48      -0.2867
     61  CB         6.9720    0.6000  -16.8870 C.3    48  LYS48       0.0271
     62  CG         6.4790    0.1560  -18.2520 C.3    48  LYS48       0.0035
     63  CD         5.8230    1.3300  -18.9370 C.3    48  LYS48       0.0206
     64  CE         5.0980    0.8930  -20.1870 C.3    48  LYS48       0.1093
     65  NZ         4.5630    2.1110  -20.8430 N.3    48  LYS48      -0.1314
     66  N          0.7020   11.3290  -14.5220 N.3    79  ILE79      -0.1245
     67  CA         1.6740   10.4420  -13.8800 C.3    79  ILE79       0.1561
     68  C          3.0720   10.9130  -14.2610 C.2    79  ILE79       0.2260
     69  O          3.3820   11.0310  -15.4430 O.2    79  ILE79      -0.2867
     70  CB         1.4430    8.9280  -14.2480 C.3    79  ILE79       0.0252
     71  CG1        1.4140    8.0450  -13.0060 C.3    79  ILE79       0.0019
     72  CG2        2.5230    8.3930  -15.1610 C.3    79  ILE79       0.0019
     73  CD1        0.1280    8.1170  -12.2410 C.3    79  ILE79       0.0001
     74  N          7.9360    5.3660  -12.2900 N.3   101  MET101     -0.1230
     75  CA         6.9230    6.4150  -12.2670 C.3   101  MET101      0.1702
     76  C          6.1750    6.4560  -10.9310 C.2   101  MET101      0.2592
     77  O          6.2530    5.5280  -10.1420 O.2   101  MET101     -0.2718
     78  CB         5.9200    6.2030  -13.4060 C.3   101  MET101      0.0401
     79  CG         6.5120    6.3710  -14.7910 C.3   101  MET101      0.0596
     80  SD         5.3520    5.7950  -16.0190 S.3   101  MET101     -0.1393
     81  CE         5.6930    4.0560  -16.0340 C.3   101  MET101      0.0692
     82  N          5.4330    7.5310  -10.6960 N.am  102  GLU102     -0.1966
     83  CA         4.5960    7.6280   -9.5120 C.3   102  GLU102      0.1733
     84  C          3.5480    6.5150   -9.5240 C.2   102  GLU102      0.2616
     85  O          3.0450    6.1310  -10.5920 O.2   102  GLU102     -0.2715
     86  CB         3.8800    8.9740   -9.4730 C.3   102  GLU102      0.0429
     87  CG         4.7710   10.1660   -9.6760 C.3   102  GLU102      0.1163
     88  CD         3.9920   11.4760   -9.6970 C.2   102  GLU102      0.3649
     89  OE1        3.1610   11.7030  -10.6080 O.co2 102  GLU102     -0.2457
     90  OE2        4.2270   12.2870   -8.7850 O.co2 102  GLU102     -0.2457
     91  N          3.2350    6.0110   -8.3310 N.am  103  LEU103     -0.1963
     92  CA         2.2380    4.9660   -8.1520 C.3   103  LEU103      0.1728
     93  C          1.0080    5.5530   -7.4660 C.2   103  LEU103      0.2616
     94  O          1.1370    6.2610   -6.4620 O.2   103  LEU103     -0.2715
     95  CB         2.8210    3.8400   -7.2820 C.3   103  LEU103      0.0311
     96  CG         1.8990    2.6310   -7.1000 C.3   103  LEU103      0.0022
     97  CD1        1.7790    1.8220   -8.3790 C.3   103  LEU103      0.0001
     98  CD2        2.3630    1.7540   -5.9570 C.3   103  LEU103      0.0001
     99  N         -0.1790    5.2440   -7.9780 N.am  104  MET104     -0.1963
    100  CA        -1.4230    5.6590   -7.3070 C.3   104  MET104      0.1736
    101  C         -2.0390    4.4800   -6.5190 C.2   104  MET104      0.2616
    102  O         -1.2820    3.6430   -6.0230 O.2   104  MET104     -0.2715
    103  CB        -2.3810    6.3290   -8.2970 C.3   104  MET104      0.0427
    104  CG        -1.7990    7.6390   -8.8730 C.3   104  MET104      0.0599
    105  SD        -1.7280    9.0190   -7.6920 S.3   104  MET104     -0.1393
    106  CE        -3.4090    9.6360   -7.8670 C.3   104  MET104      0.0692
    107  N         -3.3680    4.4030   -6.3760 N.am  105  ASP105     -0.1957
    108  CA        -3.9580    3.3030   -5.5930 C.3   105  ASP105      0.1840
    109  C         -4.9080    2.4010   -6.3760 C.2   105  ASP105      0.2622
    110  O         -5.0250    1.2140   -6.0530 O.2   105  ASP105     -0.2715
    111  CB        -4.6450    3.8260   -4.3260 C.3   105  ASP105      0.1450
    112  CG        -3.6630    4.0930   -3.1980 C.2   105  ASP105      0.3671
    113  OD1       -2.8420    3.2020   -2.8860 O.co2 105  ASP105     -0.2456
    114  OD2       -3.7040    5.1950   -2.6170 O.co2 105  ASP105     -0.2456
    115  N         -5.5740    2.9580   -7.3940 N.am  106  ALA106     -0.1963
    116  CA        -6.5110    2.2100   -8.2400 C.3   106  ALA106      0.1728
    117  C         -6.7340    2.9830   -9.5360 C.2   106  ALA106      0.2616
    118  O         -6.3860    4.1550   -9.6180 O.2   106  ALA106     -0.2715
    119  CB        -7.8510    1.9970   -7.5110 C.3   106  ALA106      0.0334
    120  N         -7.3040    2.3330  -10.5460 N.am  107  ASN107     -0.1972
    121  CA        -7.7470    3.0630  -11.7220 C.3   107  ASN107      0.1688
    122  C         -9.1920    3.4500  -11.4800 C.2   107  ASN107      0.2292
    123  O         -9.7200    3.1690  -10.4040 O.2   107  ASN107     -0.2864
    124  CB        -7.5160    2.2660  -13.0210 C.3   107  ASN107      0.1181
    125  CG        -8.3490    1.0000  -13.1030 C.2   107  ASN107      0.2629
    126  OD1       -9.5140    0.9780  -12.6960 O.2   107  ASN107     -0.2716
    127  ND2       -7.7640   -0.0590  -13.6510 N.am  107  ASN107     -0.0877
    128  N         -9.7660    2.9500  -17.5790 N.3   148  SER148     -0.1217
    129  CA        -8.6340    2.0330  -17.3140 C.3   148  SER148      0.1889
    130  C         -7.2700    2.7140  -17.3010 C.2   148  SER148      0.2288
    131  O         -6.3210    2.1910  -16.7190 O.2   148  SER148     -0.2866
    132  CB        -8.6240    0.8340  -18.2570 C.3   148  SER148      0.2089
    133  OG        -8.2470    1.1900  -19.5780 O.3   148  SER148     -0.2183
    134  N         -5.8920    7.0240  -13.0560 N.3   151  VAL151     -0.1245
    135  CA        -5.6750    6.4760  -11.7170 C.3   151  VAL151      0.1561
    136  C         -5.9360    7.4460  -10.5630 C.2   151  VAL151      0.2260
    137  O         -5.6950    8.6500  -10.6800 O.2   151  VAL151     -0.2867
    138  CB        -4.2860    5.8260  -11.6060 C.3   151  VAL151      0.0252
    139  CG1       -4.2520    4.5400  -12.4450 C.3   151  VAL151      0.0019
    140  CG2       -3.2000    6.7950  -12.0620 C.3   151  VAL151      0.0019
    141  N         -2.8880    8.5200  -16.8310 N.3   161  LEU161     -0.1245
    142  CA        -1.7810    7.5510  -16.8860 C.3   161  LEU161      0.1561
    143  C         -0.7530    7.7620  -17.9860 C.2   161  LEU161      0.2260
    144  O          0.4640    7.6600  -17.7400 O.2   161  LEU161     -0.2867
    145  CB        -2.2990    6.1200  -16.9640 C.3   161  LEU161      0.0270
    146  CG        -2.0210    5.2050  -15.7790 C.3   161  LEU161      0.0019
    147  CD1       -2.1880    3.7770  -16.2390 C.3   161  LEU161      0.0001
    148  CD2       -0.6390    5.4000  -15.2380 C.3   161  LEU161      0.0001
@<TRIPOS>BOND
     1    30    31    2
     2    30    29    1
     3    29    28    1
     4    65    64    1
     5    28    24   am
     6    64    63    1
     7   133   132    1
     8    24    25    2
     9    24    23    1
    10    63    62    1
    11    26    27    1
    12    26    23    1
    13   132   129    1
    14    62    61    1
    15    23    22    1
    16   143   144    2
    17   143   142    1
    18   128   129    1
    19   129   130    1
    20   130   131    2
    21    60    59    2
    22   145   142    1
    23   145   146    1
    24    22    20   am
    25    61    58    1
    26   142   141    1
    27    59    58    1
    28   147   146    1
    29    38    36    1
    30    58    57    1
    31    81    80    1
    32    80    79    1
    33   146   148    1
    34    20    21    2
    35    20    19    1
    36    32    33    1
    37    69    68    2
    38    72    70    1
    39    79    78    1
    40    36    33    1
    41    36    37    1
    42    19    18    1
    43    33    34    1
    44    66    67    1
    45    68    67    1
    46    70    67    1
    47    70    71    1
    48   127   125   am
    49    78    75    1
    50    18    12   am
    51    34    35    2
    52   125   124    1
    53   125   126    2
    54   134   135    1
    55   124   121    1
    56    71    73    1
    57   139   138    1
    58    74    75    1
    59    75    76    1
    60    12    13    2
    61    12    11    1
    62   140   138    1
    63   121   122    1
    64   121   120    1
    65   135   138    1
    66   135   136    1
    67    55    54    2
    68   122   123    2
    69    56    53    1
    70    54    53    1
    71    10    11    1
    72    76    82   am
    73    76    77    2
    74    15    17    1
    75    15    14    1
    76    11    14    1
    77    82    83    1
    78   137   136    2
    79    89    88   ar
    80    85    84    2
    81   120   117   am
    82    53    52    1
    83    14    16    1
    84    88    87    1
    85    88    90   ar
    86    87    86    1
    87   118   117    2
    88   117   116    1
    89    84    83    1
    90    84    91   am
    91    83    86    1
    92    39    40    1
    93   104   103    1
    94   104   105    1
    95     4     3    2
    96     3     2    1
    97    97    96    1
    98    91    92    1
    99   103   100    1
   100   116   119    1
   101   116   115    1
   102    92    93    1
   103    92    95    1
   104    99    93   am
   105    99   100    1
   106   106   105    1
   107    40    41    1
   108    40    43    1
   109    93    94    2
   110   115   109   am
   111   100   101    1
   112     2     1    1
   113     2     5    1
   114    95    96    1
   115    96    98    1
   116    41    42    2
   117   101   107   am
   118   101   102    2
   119   107   108    1
   120   109   110    2
   121   109   108    1
   122     5     6    1
   123     6     7    1
   124   108   111    1
   125    47    46    2
   126    46    45    1
   127     7     8    1
   128     8     9    1
   129   111   112    1
   130    45    48    1
   131    45    44    1
   132    48    49    1
   133   112   113   ar
   134   112   114   ar
   135    49    50    2
   136    49    51   am
