@<TRIPOS>MOLECULE
tmp/4g1xA01.pdb
 125 118 0 0 0
SMALL
GASTEIGER

@<TRIPOS>ATOM
      1  N          1.1570   17.6900   -3.5480 N.3    61  MET61      -0.1245
      2  CA        -0.0600   17.2770   -2.8720 C.3    61  MET61       0.1570
      3  C         -0.9490   16.5970   -3.8500 C.2    61  MET61       0.2261
      4  O         -1.5090   15.5140   -3.5430 O.2    61  MET61      -0.2867
      5  CB        -0.7530   18.5250   -2.2510 C.3    61  MET61       0.0387
      6  CG        -2.1400   18.2270   -1.7030 C.3    61  MET61       0.0595
      7  SD        -3.0270   19.6530   -1.0510 S.3    61  MET61      -0.1393
      8  CE        -2.1590   19.9070    0.4250 C.3    61  MET61       0.0692
      9  N        -10.7420   16.4010   -5.6570 N.3    81  VAL81      -0.1231
     10  CA       -10.8730   17.2980   -4.5110 C.3    81  VAL81       0.1692
     11  C         -9.6090   17.3790   -3.7140 C.2    81  VAL81       0.2591
     12  O         -9.3440   18.3100   -2.9540 O.2    81  VAL81      -0.2718
     13  CB       -12.1090   16.8930   -3.6840 C.3    81  VAL81       0.0266
     14  CG1      -12.2250   17.7590   -2.4010 C.3    81  VAL81       0.0020
     15  CG2      -13.3810   17.0490   -4.4930 C.3    81  VAL81       0.0020
     16  N         -8.6430   16.4530   -3.9390 N.am   82  VAL82      -0.1980
     17  CA        -7.3390   16.5760   -3.3250 C.3    82  VAL82       0.1595
     18  C         -6.6200   17.8350   -3.8690 C.2    82  VAL82       0.2287
     19  O         -5.8110   18.3970   -3.1260 O.2    82  VAL82      -0.2864
     20  CB        -6.5520   15.2620   -3.5520 C.3    82  VAL82       0.0276
     21  CG1       -5.0570   15.3680   -3.0450 C.3    82  VAL82       0.0022
     22  CG2       -7.2670   14.1410   -2.7740 C.3    82  VAL82       0.0022
     23  N         -8.0860   20.7200   -4.2350 N.3    84  ASN84      -0.1225
     24  CA        -9.1470   21.6680   -4.0520 C.3    84  ASN84       0.1784
     25  C         -8.6650   23.1190   -4.2150 C.2    84  ASN84       0.2593
     26  O         -9.2960   23.8790   -5.0020 O.2    84  ASN84      -0.2718
     27  CB        -9.7620   21.4550   -2.6490 C.3    84  ASN84       0.1169
     28  CG       -11.0730   22.1790   -2.4450 C.2    84  ASN84       0.2627
     29  OD1      -11.9590   22.1880   -3.3170 O.2    84  ASN84      -0.2716
     30  ND2      -11.2670   22.7120   -1.2540 N.am   84  ASN84      -0.0877
     31  N         -7.6580   23.5730   -3.4640 N.am   85  MET85      -0.2032
     32  CA        -7.2870   24.9810   -3.5650 C.3    85  MET85       0.1291
     33  C         -6.7330   25.2390   -4.9740 C.3    85  MET85       0.2036
     34  O         -6.9950   26.3830   -5.5050 O.3    85  MET85      -0.2185
     35  CB        -6.2900   25.3160   -2.4190 C.3    85  MET85       0.0360
     36  CG        -6.1650   26.8230   -2.1100 C.3    85  MET85       0.0594
     37  SD        -7.6850   27.5080   -1.3170 S.3    85  MET85      -0.1393
     38  CE        -7.6680   26.5920    0.2240 C.3    85  MET85       0.0692
     39  N        -13.1720   12.8190    8.3890 N.3   167  PHE167     -0.1241
     40  CA       -11.7990   13.0160    8.7000 C.3   167  PHE167      0.1605
     41  C        -11.0990   11.8200    9.3300 C.2   167  PHE167      0.2264
     42  O        -10.0310   11.9050    9.8890 O.2   167  PHE167     -0.2867
     43  CB       -11.5560   14.3230    9.5040 C.3   167  PHE167      0.0534
     44  CG       -11.7170   15.5040    8.5950 C.ar  167  PHE167     -0.0203
     45  CD1      -12.9160   16.0790    8.4430 C.ar  167  PHE167     -0.0042
     46  CD2      -10.6060   16.0430    7.9170 C.ar  167  PHE167     -0.0042
     47  CE1      -13.1070   17.2370    7.5220 C.ar  167  PHE167     -0.0003
     48  CE2      -10.7970   17.1330    7.0170 C.ar  167  PHE167     -0.0003
     49  CZ       -11.9830   17.6510    6.9100 C.ar  167  PHE167     -0.0000
     50  N        -15.9960   21.4830    1.7750 N.3   228  THR228     -0.1203
     51  CA       -14.6030   21.3190    2.1900 C.3   228  THR228      0.1994
     52  C        -14.1640   22.3800    3.1580 C.2   228  THR228      0.2617
     53  O        -13.3980   22.1020    4.1190 O.2   228  THR228     -0.2717
     54  CB       -13.6370   21.3030    1.0090 C.3   228  THR228      0.1784
     55  OG1      -13.8010   22.5020    0.2160 O.3   228  THR228     -0.2211
     56  CG2      -13.8860   20.0410    0.1200 C.3   228  THR228      0.0376
     57  N        -14.5590   23.6480    2.9540 N.am  229  PHE229     -0.1975
     58  CA       -14.1510   24.6990    3.8470 C.3   229  PHE229      0.1639
     59  C        -14.9070   24.5680    5.1760 C.2   229  PHE229      0.2290
     60  O        -14.2520   24.7610    6.2640 O.2   229  PHE229     -0.2864
     61  CB       -14.3040   26.1390    3.2240 C.3   229  PHE229      0.0560
     62  CG       -13.1470   26.4860    2.3500 C.ar  229  PHE229     -0.0200
     63  CD1      -12.7660   25.6860    1.2490 C.ar  229  PHE229     -0.0042
     64  CD2      -12.3930   27.5870    2.6190 C.ar  229  PHE229     -0.0042
     65  CE1      -11.6840   26.0440    0.4820 C.ar  229  PHE229     -0.0003
     66  CE2      -11.2930   27.9450    1.8330 C.ar  229  PHE229     -0.0003
     67  CZ       -10.9500   27.1520    0.7580 C.ar  229  PHE229     -0.0000
     68  N        -13.1100   21.1990    6.8570 N.3   232  ALA232     -0.1231
     69  CA       -11.7090   21.3570    7.2440 C.3   232  ALA232      0.1694
     70  C        -11.5210   22.4590    8.2600 C.2   232  ALA232      0.2592
     71  O        -10.7210   22.3570    9.1920 O.2   232  ALA232     -0.2718
     72  CB       -10.8500   21.5530    6.0160 C.3   232  ALA232      0.0304
     73  N        -12.3020   23.5130    8.1330 N.am  233  GLY233     -0.1957
     74  CA       -12.1580   24.6120    9.0480 C.3   233  GLY233      0.1869
     75  C        -12.6840   24.1890   10.4430 C.2   233  GLY233      0.2309
     76  O        -12.0300   24.4930   11.4610 O.2   233  GLY233     -0.2863
     77  N        -10.3630   21.5640   12.0390 N.3   236  SER236     -0.1217
     78  CA        -9.0470   22.0440   12.3670 C.3   236  SER236      0.1889
     79  C         -9.0800   23.0080   13.5540 C.2   236  SER236      0.2288
     80  O         -8.3000   22.8980   14.5010 O.2   236  SER236     -0.2866
     81  CB        -8.4020   22.7720   11.1830 C.3   236  SER236      0.2089
     82  OG        -8.2220   21.8840   10.0770 O.3   236  SER236     -0.2183
     83  N         -2.4690   17.4340   14.5010 N.3   279  PHE279     -0.1241
     84  CA        -2.3490   16.6010   13.2990 C.3   279  PHE279      0.1605
     85  C         -1.8330   15.2330   13.6040 C.2   279  PHE279      0.2264
     86  O         -0.7810   15.0750   14.1480 O.2   279  PHE279     -0.2867
     87  CB        -1.4640   17.3050   12.2420 C.3   279  PHE279      0.0534
     88  CG        -2.2000   18.3580   11.4980 C.ar  279  PHE279     -0.0203
     89  CD1       -2.6270   19.5110   12.1380 C.ar  279  PHE279     -0.0042
     90  CD2       -2.5760   18.1510   10.1630 C.ar  279  PHE279     -0.0042
     91  CE1       -3.3570   20.4810   11.4010 C.ar  279  PHE279     -0.0003
     92  CE2       -3.3610   19.1540    9.4960 C.ar  279  PHE279     -0.0003
     93  CZ        -3.7520   20.2490   10.1760 C.ar  279  PHE279     -0.0000
     94  N          2.0360   15.4410    6.9790 N.3   283  LEU283     -0.1245
     95  CA         1.3790   15.9190    5.7750 C.3   283  LEU283      0.1561
     96  C          1.9560   15.1400    4.5670 C.2   283  LEU283      0.2260
     97  O          3.1780   15.0720    4.4090 O.2   283  LEU283     -0.2867
     98  CB         1.7100   17.4350    5.5360 C.3   283  LEU283      0.0270
     99  CG         1.3330   18.3630    6.7300 C.3   283  LEU283      0.0019
    100  CD1        1.7010   19.7850    6.3060 C.3   283  LEU283      0.0001
    101  CD2       -0.1440   18.2170    7.0520 C.3   283  LEU283      0.0001
    102  N         -1.9210   27.3080    4.9750 N.3   344  CYS344     -0.1221
    103  CA        -3.3680   27.3760    5.3090 C.3   344  CYS344      0.1794
    104  C         -4.0030   28.7890    5.0080 C.2   344  CYS344      0.2443
    105  O         -3.5030   29.7570    5.6720 O.2   344  CYS344     -0.2733
    106  CB        -3.5170   27.1000    6.8070 C.3   344  CYS344      0.0970
    107  SG        -5.2630   27.0620    7.2840 S.3   344  CYS344     -0.0800
    108  N         -4.9660   28.8680    4.2100 N.am  345  PRO345     -0.2729
    109  CA        -5.5960   30.2230    4.0030 C.3   345  PRO345      0.1401
    110  C         -6.4850   30.5640    5.1390 C.2   345  PRO345      0.2269
    111  O         -6.9930   31.6980    5.2410 O.2   345  PRO345     -0.2865
    112  CB        -6.3990   30.0180    2.6790 C.3   345  PRO345      0.0296
    113  CG        -6.7830   28.5310    2.7620 C.3   345  PRO345      0.0237
    114  CD        -5.5160   27.8270    3.3190 C.3   345  PRO345      0.0939
    115  N         -7.0070   13.9250   12.9950 N.3   385  ARG385     -0.1301
    116  CA        -6.6290   14.7510   14.1180 C.3   385  ARG385      0.1248
    117  C         -6.4630   13.9520   15.3840 C.3   385  ARG385      0.2009
    118  O         -7.1260   12.8430   15.4800 O.3   385  ARG385     -0.2188
    119  CB        -7.6450   15.8900   14.3900 C.3   385  ARG385      0.0254
    120  CG        -7.7970   16.8990   13.2240 C.3   385  ARG385      0.0485
    121  CD        -6.4550   17.6680   12.9460 C.3   385  ARG385      0.2205
    122  NE        -6.6490   18.6920   11.8550 N.pl3 385  ARG385     -0.0865
    123  CZ        -6.6610   18.3680   10.6170 C.cat 385  ARG385      0.5346
    124  NH1       -6.9450   19.3170    9.7010 N.pl3 385  ARG385      0.1354
    125  NH2       -6.3380   17.1140   10.1890 N.pl3 385  ARG385      0.1354
@<TRIPOS>BOND
     1     9    10    1
     2    34    33    1
     3    26    25    2
     4    33    32    1
     5    10    11    1
     6    10    13    1
     7    15    13    1
     8    23    24    1
     9    25    24    1
    10    25    31   am
    11    24    27    1
    12    16    11   am
    13    16    17    1
    14    18    17    1
    15    18    19    2
    16     3     4    2
    17     3     2    1
    18    11    12    2
    19    13    14    1
    20    32    31    1
    21    32    35    1
    22    20    17    1
    23    20    21    1
    24    20    22    1
    25     1     2    1
    26    29    28    2
    27     2     5    1
    28    27    28    1
    29    28    30   am
    30    35    36    1
    31     5     6    1
    32    36    37    1
    33     6     7    1
    34    37    38    1
    35     7     8    1
    36    56    54    1
    37    55    54    1
    38    65    67   ar
    39    65    63   ar
    40    67    66   ar
    41    54    51    1
    42    63    62   ar
    43    50    51    1
    44    66    64   ar
    45    51    52    1
    46    62    64   ar
    47    62    61    1
    48   112   113    1
    49   112   109    1
    50   113   114    1
    51    57    52   am
    52    57    58    1
    53    52    53    2
    54    61    58    1
    55   114   108    1
    56    58    59    1
    57   109   108    1
    58   109   110    1
    59   108   104   am
    60    97    96    2
    61    96    95    1
    62   102   103    1
    63   104   103    1
    64   104   105    2
    65   110   111    2
    66    59    60    2
    67   103   106    1
    68    98    95    1
    69    98    99    1
    70    95    94    1
    71    72    69    1
    72   100    99    1
    73    99   101    1
    74   106   107    1
    75    68    69    1
    76    49    48   ar
    77    49    47   ar
    78    48    46   ar
    79    69    70    1
    80    47    45   ar
    81    46    44   ar
    82    73    70   am
    83    73    74    1
    84    70    71    2
    85    39    40    1
    86    45    44   ar
    87    44    43    1
    88    40    41    1
    89    40    43    1
    90    74    75    1
    91    41    42    2
    92    92    90   ar
    93    92    93   ar
    94   124   123    1
    95    82    81    1
    96    90    88   ar
    97    93    91   ar
    98   125   123    1
    99    75    76    2
   100   123   122    2
   101    81    78    1
   102    91    89   ar
   103    88    89   ar
   104    88    87    1
   105   122   121    1
   106    77    78    1
   107    87    84    1
   108    78    79    1
   109   121   120    1
   110   115   116    1
   111   120   119    1
   112    84    85    1
   113    84    83    1
   114    79    80    2
   115    85    86    2
   116   116   119    1
   117   116   117    1
   118   117   118    1
