@<TRIPOS>MOLECULE
tmp/4g1xA02.pdb
 118 111 0 0 0
SMALL
GASTEIGER

@<TRIPOS>ATOM
      1  N        -11.1530   10.0380    1.3950 N.3    76  THR76      -0.1203
      2  CA       -12.5310   10.1850    1.8440 C.3    76  THR76       0.1994
      3  C        -13.2880   11.2090    1.0030 C.2    76  THR76       0.2617
      4  O        -14.4590   11.4690    1.3050 O.2    76  THR76      -0.2717
      5  CB       -12.6990   10.5320    3.3070 C.3    76  THR76       0.1784
      6  OG1      -12.1120   11.7860    3.5230 O.3    76  THR76      -0.2211
      7  CG2      -11.8390    9.5760    4.1990 C.3    76  THR76       0.0376
      8  N        -12.6160   11.7430   -0.0190 N.am   77  VAL77      -0.1979
      9  CA       -13.2460   12.7040   -0.9680 C.3    77  VAL77       0.1595
     10  C        -12.9540   12.1940   -2.3400 C.2    77  VAL77       0.2287
     11  O        -11.9920   11.4130   -2.5370 O.2    77  VAL77      -0.2864
     12  CB       -12.6760   14.0910   -0.7390 C.3    77  VAL77       0.0276
     13  CG1      -13.0460   14.6530    0.6620 C.3    77  VAL77       0.0022
     14  CG2      -11.1760   14.1620   -0.9440 C.3    77  VAL77       0.0022
     15  N        -10.7420   16.4010   -5.6570 N.3    81  VAL81      -0.1245
     16  CA       -10.8730   17.2980   -4.5110 C.3    81  VAL81       0.1561
     17  C         -9.6090   17.3790   -3.7140 C.2    81  VAL81       0.2260
     18  O         -9.3440   18.3100   -2.9540 O.2    81  VAL81      -0.2867
     19  CB       -12.1090   16.8930   -3.6840 C.3    81  VAL81       0.0252
     20  CG1      -12.2250   17.7590   -2.4010 C.3    81  VAL81       0.0019
     21  CG2      -13.3810   17.0490   -4.4930 C.3    81  VAL81       0.0019
     22  N        -21.0910   14.8060   10.2770 N.3   162  SER162     -0.1202
     23  CA       -20.3680   14.0960    9.2560 C.3   162  SER162      0.2020
     24  C        -18.8740   13.9530    9.6230 C.2   162  SER162      0.2618
     25  O        -18.1660   13.0660    9.0610 O.2   162  SER162     -0.2717
     26  CB       -20.3460   14.8760    7.8900 C.3   162  SER162      0.2103
     27  OG       -21.6360   14.8460    7.3580 O.3   162  SER162     -0.2182
     28  N        -18.3220   14.8090   10.4640 N.am  163  LEU163     -0.1979
     29  CA       -16.9030   14.9460   10.5170 C.3   163  LEU163      0.1596
     30  C        -16.1130   13.8300   11.1760 C.2   163  LEU163      0.2287
     31  O        -14.9410   13.5800   10.8470 O.2   163  LEU163     -0.2864
     32  CB       -16.4680   16.3160   11.0970 C.3   163  LEU163      0.0297
     33  CG       -17.1220   17.5170   10.2980 C.3   163  LEU163      0.0022
     34  CD1      -16.6850   18.8310   11.0060 C.3   163  LEU163      0.0001
     35  CD2      -16.7790   17.5420    8.8550 C.3   163  LEU163      0.0001
     36  N        -15.7140   11.8100    8.0840 N.3   166  ALA166     -0.1231
     37  CA       -15.0320   12.4420    6.9790 C.3   166  ALA166      0.1694
     38  C        -13.5960   12.6420    7.1010 C.2   166  ALA166      0.2592
     39  O        -12.8010   12.5570    6.1820 O.2   166  ALA166     -0.2718
     40  CB       -15.6730   13.8450    6.7300 C.3   166  ALA166      0.0304
     41  N        -13.1720   12.8190    8.3890 N.am  167  PHE167     -0.1976
     42  CA       -11.7990   13.0160    8.7000 C.3   167  PHE167      0.1639
     43  C        -11.0990   11.8200    9.3300 C.2   167  PHE167      0.2290
     44  O        -10.0310   11.9050    9.8890 O.2   167  PHE167     -0.2864
     45  CB       -11.5560   14.3230    9.5040 C.3   167  PHE167      0.0560
     46  CG       -11.7170   15.5040    8.5950 C.ar  167  PHE167     -0.0200
     47  CD1      -12.9160   16.0790    8.4430 C.ar  167  PHE167     -0.0042
     48  CD2      -10.6060   16.0430    7.9170 C.ar  167  PHE167     -0.0042
     49  CE1      -13.1070   17.2370    7.5220 C.ar  167  PHE167     -0.0003
     50  CE2      -10.7970   17.1330    7.0170 C.ar  167  PHE167     -0.0003
     51  CZ       -11.9830   17.6510    6.9100 C.ar  167  PHE167     -0.0000
     52  N        -18.3810    7.6530    4.4900 N.3   177  ALA177     -0.1245
     53  CA       -17.8340    8.9750    4.0430 C.3   177  ALA177      0.1562
     54  C        -18.4570    9.3410    2.7380 C.2   177  ALA177      0.2260
     55  O        -18.7530   10.5640    2.5410 O.2   177  ALA177     -0.2867
     56  CB       -16.3190    8.8730    3.9370 C.3   177  ALA177      0.0290
     57  N        -22.1480   10.6150    3.4280 N.3   180  ASN180     -0.1225
     58  CA       -22.2110   11.9440    4.0090 C.3   180  ASN180      0.1785
     59  C        -21.6770   12.9510    3.0140 C.2   180  ASN180      0.2597
     60  O        -22.2380   14.0910    2.9860 O.2   180  ASN180     -0.2718
     61  CB       -21.3450   11.9910    5.2810 C.3   180  ASN180      0.1169
     62  CG       -21.9120   11.1990    6.4350 C.2   180  ASN180      0.2627
     63  OD1      -23.1250   11.0940    6.5230 O.2   180  ASN180     -0.2716
     64  ND2      -21.0960   10.8870    7.3570 N.am  180  ASN180     -0.0877
     65  N        -20.6600   12.6960    2.2410 N.am  181  TRP181     -0.1976
     66  CA       -20.1450   13.6610    1.2260 C.3   181  TRP181      0.1640
     67  C        -21.2560   13.9450    0.2580 C.2   181  TRP181      0.2290
     68  O        -21.5240   15.1690   -0.0100 O.2   181  TRP181     -0.2864
     69  CB       -18.9720   12.9930    0.5340 C.3   181  TRP181      0.0576
     70  CG       -18.4500   13.8670   -0.6390 C.ar  181  TRP181      0.0006
     71  CD1      -18.8080   13.6850   -1.9670 C.ar  181  TRP181      0.0946
     72  CD2      -17.6080   14.9960   -0.5590 C.ar  181  TRP181      0.0152
     73  NE1      -18.1510   14.6420   -2.7130 N.ar  181  TRP181     -0.2442
     74  CE2      -17.4470   15.4820   -1.8970 C.ar  181  TRP181      0.0810
     75  CE3      -16.8960   15.6020    0.4680 C.ar  181  TRP181      0.0012
     76  CZ2      -16.6190   16.5830   -2.1780 C.ar  181  TRP181      0.0191
     77  CZ3      -16.0810   16.7310    0.1660 C.ar  181  TRP181      0.0001
     78  CH2      -15.9980   17.2020   -1.1720 C.ar  181  TRP181      0.0015
     79  N        -23.8790   16.1600    1.8800 N.3   184  ASP184     -0.1239
     80  CA       -23.4320   17.4900    2.1950 C.3   184  ASP184      0.1674
     81  C        -23.2440   18.2880    0.8990 C.2   184  ASP184      0.2266
     82  O        -23.5230   19.5380    0.9170 O.2   184  ASP184     -0.2867
     83  CB       -22.2010   17.4000    3.0380 C.3   184  ASP184      0.1410
     84  CG       -22.4980   16.8790    4.4680 C.2   184  ASP184      0.3668
     85  OD1      -23.6490   16.7180    4.8680 O.co2 184  ASP184     -0.2456
     86  OD2      -21.4670   16.4800    5.1130 O.co2 184  ASP184     -0.2456
     87  N        -18.5450   22.5390    1.2060 N.3   227  VAL227     -0.1231
     88  CA       -18.4050   21.3230    2.0570 C.3   227  VAL227      0.1692
     89  C        -16.9740   21.2590    2.6100 C.2   227  VAL227      0.2592
     90  O        -16.8080   20.9790    3.8130 O.2   227  VAL227     -0.2718
     91  CB       -18.6840   20.0210    1.2390 C.3   227  VAL227      0.0266
     92  CG1      -18.3600   18.8220    2.1600 C.3   227  VAL227      0.0020
     93  CG2      -20.1320   20.0000    0.7640 C.3   227  VAL227      0.0020
     94  N        -15.9960   21.4830    1.7750 N.am  228  THR228     -0.1953
     95  CA       -14.6030   21.3190    2.1900 C.3   228  THR228      0.1897
     96  C        -14.1640   22.3800    3.1580 C.2   228  THR228      0.2313
     97  O        -13.3980   22.1020    4.1190 O.2   228  THR228     -0.2863
     98  CB       -13.6370   21.3030    1.0090 C.3   228  THR228      0.1794
     99  OG1      -13.8010   22.5020    0.2160 O.3   228  THR228     -0.2208
    100  CG2      -13.8860   20.0410    0.1200 C.3   228  THR228      0.0378
    101  N        -15.8960   21.7230    6.5760 N.3   231  GLY231     -0.1210
    102  CA       -15.3990   20.5610    7.2950 C.3   231  GLY231      0.1956
    103  C        -13.9910   20.7550    7.7180 C.2   231  GLY231      0.2611
    104  O        -13.6430   20.4760    8.9240 O.2   231  GLY231     -0.2717
    105  N        -13.1100   21.1990    6.8570 N.am  232  ALA232     -0.1979
    106  CA       -11.7090   21.3570    7.2440 C.3   232  ALA232      0.1597
    107  C        -11.5210   22.4590    8.2600 C.2   232  ALA232      0.2287
    108  O        -10.7210   22.3570    9.1920 O.2   232  ALA232     -0.2864
    109  CB       -10.8500   21.5530    6.0160 C.3   232  ALA232      0.0319
    110  N         -7.7210   11.8480   11.3740 N.3   384  GLN384     -0.1245
    111  CA        -6.6860   12.7890   10.8760 C.3   384  GLN384      0.1566
    112  C         -6.2780   13.8250   11.9030 C.2   384  GLN384      0.2260
    113  O         -5.3170   14.6020   11.6670 O.2   384  GLN384     -0.2867
    114  CB        -7.1720   13.4830    9.6020 C.3   384  GLN384      0.0367
    115  CG        -7.3600   12.4950    8.4100 C.3   384  GLN384      0.0905
    116  CD        -8.0060   13.1480    7.2130 C.2   384  GLN384      0.2608
    117  OE1       -8.8400   12.4960    6.4660 O.2   384  GLN384     -0.2717
    118  NE2       -7.6630   14.3770    6.8520 N.am  384  GLN384     -0.0878
@<TRIPOS>BOND
     1    15    16    1
     2    16    17    1
     3    16    19    1
     4    21    19    1
     5    17    18    2
     6    19    20    1
     7    73    71   ar
     8    73    74   ar
     9    11    10    2
    10    10     9    1
    11    76    74   ar
    12    76    78   ar
    13    71    70   ar
    14    74    72   ar
    15    78    77   ar
    16     9    12    1
    17     9     8    1
    18    14    12    1
    19    12    13    1
    20    70    72   ar
    21    70    69    1
    22    72    75   ar
    23     8     3   am
    24    68    67    2
    25   100    98    1
    26    77    75   ar
    27    99    98    1
    28    67    66    1
    29    69    66    1
    30    93    91    1
    31    81    82    2
    32    81    80    1
    33     3     4    2
    34     3     2    1
    35    98    95    1
    36    87    88    1
    37    66    65    1
    38    91    88    1
    39    91    92    1
    40     1     2    1
    41    94    95    1
    42    94    89   am
    43     2     5    1
    44    79    80    1
    45    88    89    1
    46    95    96    1
    47    80    83    1
    48    65    59   am
    49    55    54    2
    50    89    90    2
    51    54    53    1
    52    60    59    2
    53    59    58    1
    54    83    84    1
    55    96    97    2
    56     5     6    1
    57     5     7    1
    58    57    58    1
    59    56    53    1
    60    58    61    1
    61    53    52    1
    62    84    85   ar
    63    84    86   ar
    64    61    62    1
    65   109   106    1
    66    39    38    2
    67    62    63    2
    68    62    64   am
    69   117   116    2
    70   101   102    1
    71    40    37    1
    72   118   116   am
    73   105   106    1
    74   105   103   am
    75    51    50   ar
    76    51    49   ar
    77    37    38    1
    78    37    36    1
    79    50    48   ar
    80    38    41   am
    81   116   115    1
    82   106   107    1
    83   102   103    1
    84    27    26    1
    85    49    47   ar
    86   103   104    2
    87    26    23    1
    88    48    46   ar
    89   107   108    2
    90    41    42    1
    91   115   114    1
    92    47    46   ar
    93    46    45    1
    94    42    43    1
    95    42    45    1
    96    35    33    1
    97    25    24    2
    98    23    24    1
    99    23    22    1
   100    43    44    2
   101   114   111    1
   102    24    28   am
   103    33    34    1
   104    33    32    1
   105    28    29    1
   106    29    32    1
   107    29    30    1
   108    31    30    2
   109   111   110    1
   110   111   112    1
   111   113   112    2
