@<TRIPOS>MOLECULE
tmp/4g28B00.pdb
 103 96 0 0 0
SMALL
GASTEIGER

@<TRIPOS>ATOM
      1  N         26.5530   46.4500   54.0160 N.3    18  PHE18      -0.1241
      2  CA        27.6930   45.9080   53.3080 C.3    18  PHE18       0.1605
      3  C         28.0820   44.5430   53.8600 C.2    18  PHE18       0.2264
      4  O         28.3530   43.6170   53.1050 O.2    18  PHE18      -0.2867
      5  CB        28.8760   46.8680   53.3960 C.3    18  PHE18       0.0534
      6  CG        28.6180   48.2170   52.7780 C.ar   18  PHE18      -0.0203
      7  CD1       28.9690   48.4750   51.4550 C.ar   18  PHE18      -0.0042
      8  CD2       28.0500   49.2290   53.5200 C.ar   18  PHE18      -0.0042
      9  CE1       28.7250   49.7220   50.8940 C.ar   18  PHE18      -0.0003
     10  CE2       27.8100   50.4860   52.9600 C.ar   18  PHE18      -0.0003
     11  CZ        28.1530   50.7270   51.6500 C.ar   18  PHE18      -0.0000
     12  N         33.7010   43.2110   55.9270 N.3    26  ILE26      -0.1245
     13  CA        33.3240   43.3180   54.5000 C.3    26  ILE26       0.1561
     14  C         34.4250   42.7860   53.5960 C.2    26  ILE26       0.2260
     15  O         35.5410   43.3270   53.5550 O.2    26  ILE26      -0.2867
     16  CB        33.0350   44.7700   54.0200 C.3    26  ILE26       0.0252
     17  CG1       32.0870   45.4960   54.9700 C.3    26  ILE26       0.0019
     18  CG2       32.4070   44.7370   52.5950 C.3    26  ILE26       0.0019
     19  CD1       32.0050   46.9960   54.7410 C.3    26  ILE26       0.0001
     20  N         31.2120   42.9900   48.7940 N.3    31  LEU31      -0.1245
     21  CA        31.2250   44.2440   48.0700 C.3    31  LEU31       0.1561
     22  C         30.7090   44.0500   46.6150 C.2    31  LEU31       0.2260
     23  O         30.0080   44.9130   46.0790 O.2    31  LEU31      -0.2867
     24  CB        32.6390   44.8020   48.0510 C.3    31  LEU31       0.0270
     25  CG        32.7900   46.2020   47.4930 C.3    31  LEU31       0.0019
     26  CD1       31.8710   47.1590   48.2540 C.3    31  LEU31       0.0001
     27  CD2       34.2430   46.6270   47.6370 C.3    31  LEU31       0.0001
     28  N         39.1280   48.8240   45.7410 N.3    50  MET50      -0.1230
     29  CA        38.2370   49.5380   46.6590 C.3    50  MET50       0.1702
     30  C         38.5200   49.1070   48.1000 C.2    50  MET50       0.2592
     31  O         38.6210   49.9470   48.9860 O.2    50  MET50      -0.2718
     32  CB        36.7680   49.2850   46.2990 C.3    50  MET50       0.0401
     33  CG        36.2370   50.1820   45.2070 C.3    50  MET50       0.0596
     34  SD        34.5130   49.7740   44.8670 S.3    50  MET50      -0.1393
     35  CE        34.6610   48.5540   43.5920 C.3    50  MET50       0.0692
     36  N         38.6390   47.8070   48.3360 N.am   51  ILE51      -0.1980
     37  CA        39.1120   47.3530   49.6740 C.3    51  ILE51       0.1595
     38  C         40.4980   47.8640   50.0320 C.2    51  ILE51       0.2287
     39  O         40.7000   48.3540   51.1520 O.2    51  ILE51      -0.2864
     40  CB        39.0330   45.8400   49.8060 C.3    51  ILE51       0.0276
     41  CG1       37.5650   45.4470   49.9100 C.3    51  ILE51       0.0022
     42  CG2       39.8080   45.3650   51.0650 C.3    51  ILE51       0.0022
     43  CD1       37.3090   44.0210   49.7960 C.3    51  ILE51       0.0001
     44  N         42.0800   50.4540   49.3770 N.3    53  GLU53      -0.1231
     45  CA        42.1230   51.8830   49.6550 C.3    53  GLU53       0.1699
     46  C         41.7680   52.1810   51.1040 C.2    53  GLU53       0.2592
     47  O         42.2740   53.1330   51.6730 O.2    53  GLU53      -0.2718
     48  CB        41.1230   52.6270   48.7590 C.3    53  GLU53       0.0402
     49  CG        41.5480   52.7500   47.3140 C.3    53  GLU53       0.1161
     50  CD        42.4370   53.9550   47.0640 C.2    53  GLU53       0.3649
     51  OE1       42.8970   54.5680   48.0500 O.co2  53  GLU53      -0.2457
     52  OE2       42.6630   54.2910   45.8780 O.co2  53  GLU53      -0.2457
     53  N         40.8610   51.4000   51.6840 N.am   54  VAL54      -0.1980
     54  CA        40.4130   51.6760   53.0460 C.3    54  VAL54       0.1595
     55  C         40.9160   50.6040   54.0280 C.2    54  VAL54       0.2287
     56  O         40.6460   50.6600   55.2420 O.2    54  VAL54      -0.2864
     57  CB        38.8780   51.8450   53.0930 C.3    54  VAL54       0.0276
     58  CG1       38.3170   52.0390   51.6760 C.3    54  VAL54       0.0022
     59  CG2       38.2090   50.6790   53.7290 C.3    54  VAL54       0.0022
     60  N         37.6360   45.0010   55.0400 N.3    62  ILE62      -0.1245
     61  CA        37.4060   46.2690   55.6960 C.3    62  ILE62       0.1561
     62  C         36.6680   46.0740   56.9830 C.2    62  ILE62       0.2260
     63  O         35.6330   45.4090   57.0140 O.2    62  ILE62      -0.2867
     64  CB        36.5340   47.1310   54.8010 C.3    62  ILE62       0.0252
     65  CG1       37.3240   47.5300   53.5680 C.3    62  ILE62       0.0019
     66  CG2       36.0570   48.3510   55.5380 C.3    62  ILE62       0.0019
     67  CD1       36.4520   48.1240   52.4700 C.3    62  ILE62       0.0001
     68  N         36.2410   51.5930   57.7510 N.3    67  PHE67      -0.1241
     69  CA        35.0120   52.0440   57.0480 C.3    67  PHE67       0.1605
     70  C         34.6400   53.4590   57.4900 C.2    67  PHE67       0.2264
     71  O         34.3640   54.3110   56.6520 O.2    67  PHE67      -0.2867
     72  CB        33.8570   51.0530   57.2980 C.3    67  PHE67       0.0534
     73  CG        32.5210   51.4410   56.6650 C.ar   67  PHE67      -0.0203
     74  CD1       31.5890   52.1880   57.3750 C.ar   67  PHE67      -0.0042
     75  CD2       32.1870   50.9860   55.3960 C.ar   67  PHE67      -0.0042
     76  CE1       30.3660   52.5120   56.8180 C.ar   67  PHE67      -0.0003
     77  CE2       30.9590   51.3050   54.8270 C.ar   67  PHE67      -0.0003
     78  CZ        30.0500   52.0570   55.5310 C.ar   67  PHE67      -0.0000
     79  N         37.2280   56.1710   56.8680 N.3    70  MET70      -0.1230
     80  CA        37.1580   56.4740   55.4510 C.3    70  MET70       0.1702
     81  C         35.9960   57.3980   55.0340 C.2    70  MET70       0.2592
     82  O         36.0970   58.1830   54.0820 O.2    70  MET70      -0.2718
     83  CB        37.0030   55.1720   54.6810 C.3    70  MET70       0.0401
     84  CG        36.6020   55.4100   53.2390 C.3    70  MET70       0.0596
     85  SD        37.7620   56.5580   52.4950 S.3    70  MET70      -0.1393
     86  CE        39.3190   55.7320   52.8300 C.3    70  MET70       0.0692
     87  N         34.8670   57.2600   55.7010 N.am   71  MET71      -0.1979
     88  CA        33.7470   58.1480   55.4350 C.3    71  MET71       0.1605
     89  C         34.1940   59.5860   55.7610 C.2    71  MET71       0.2287
     90  O         33.9080   60.5350   55.0180 O.2    71  MET71      -0.2864
     91  CB        32.5490   57.7150   56.2870 C.3    71  MET71       0.0413
     92  CG        31.9440   56.3480   55.9130 C.3    71  MET71       0.0598
     93  SD        31.1550   56.3150   54.2580 S.3    71  MET71      -0.1393
     94  CE        29.8340   57.4970   54.4790 C.3    71  MET71       0.0692
     95  N         35.2920   61.8480   53.1510 N.3    74  LYS74      -0.1245
     96  CA        34.4110   62.0890   52.0070 C.3    74  LYS74       0.1561
     97  C         32.9970   62.5150   52.3910 C.2    74  LYS74       0.2260
     98  O         32.0230   62.1660   51.7080 O.2    74  LYS74      -0.2867
     99  CB        34.3470   60.8490   51.1090 C.3    74  LYS74       0.0271
    100  CG        35.5700   60.6550   50.2290 C.3    74  LYS74       0.0035
    101  CD        35.2580   59.7030   49.0960 C.3    74  LYS74       0.0206
    102  CE        36.1720   59.9180   47.9030 C.3    74  LYS74       0.1093
    103  NZ        36.1710   58.7330   47.0030 N.3    74  LYS74      -0.1314
@<TRIPOS>BOND
     1    35    34    1
     2    34    33    1
     3    33    32    1
     4    28    29    1
     5    52    50   ar
     6    23    22    2
     7    32    29    1
     8    22    21    1
     9    29    30    1
    10   103   102    1
    11    50    49    1
    12    50    51   ar
    13    49    48    1
    14    25    27    1
    15    25    24    1
    16    25    26    1
    17   102   101    1
    18    24    21    1
    19    21    20    1
    20    30    36   am
    21    30    31    2
    22    36    37    1
    23    48    45    1
    24   101   100    1
    25    44    45    1
    26    45    46    1
    27    37    40    1
    28    37    38    1
    29    43    41    1
    30    40    41    1
    31    40    42    1
    32    38    39    2
    33   100    99    1
    34     9     7   ar
    35     9    11   ar
    36    46    47    2
    37    46    53   am
    38    99    96    1
    39     7     6   ar
    40    11    10   ar
    41    58    57    1
    42    53    54    1
    43    98    97    2
    44    96    97    1
    45    96    95    1
    46    67    65    1
    47    85    86    1
    48    85    84    1
    49    18    16    1
    50     6     5    1
    51     6     8   ar
    52    10     8   ar
    53    54    57    1
    54    54    55    1
    55    57    59    1
    56     4     3    2
    57    84    83    1
    58     2     5    1
    59     2     3    1
    60     2     1    1
    61    15    14    2
    62    65    64    1
    63    14    13    1
    64    16    13    1
    65    16    17    1
    66    55    56    2
    67    82    81    2
    68    93    94    1
    69    93    92    1
    70    13    12    1
    71    83    80    1
    72    19    17    1
    73    64    66    1
    74    64    61    1
    75    77    75   ar
    76    77    78   ar
    77    90    89    2
    78    81    80    1
    79    81    87   am
    80    60    61    1
    81    75    73   ar
    82    88    87    1
    83    88    89    1
    84    88    91    1
    85    80    79    1
    86    78    76   ar
    87    61    62    1
    88    92    91    1
    89    71    70    2
    90    73    72    1
    91    73    74   ar
    92    76    74   ar
    93    62    63    2
    94    69    72    1
    95    69    70    1
    96    69    68    1
