@<TRIPOS>MOLECULE
tmp/4g2cB00.pdb
 253 239 0 0 0
SMALL
GASTEIGER

@<TRIPOS>ATOM
      1  N        -22.9660  -41.2150   14.5340 N.3   183  GLU183     -0.1245
      2  CA       -23.4410  -41.6880   13.2530 C.3   183  GLU183      0.1567
      3  C        -22.5130  -41.1170   12.1780 C.2   183  GLU183      0.2260
      4  O        -21.5240  -40.4470   12.5010 O.2   183  GLU183     -0.2867
      5  CB       -24.8970  -41.2770   13.0520 C.3   183  GLU183      0.0388
      6  CG       -25.1740  -39.8510   13.4460 C.3   183  GLU183      0.1160
      7  CD       -24.7020  -38.8730   12.3950 C.2   183  GLU183      0.3649
      8  OE1      -23.9570  -37.9320   12.7430 O.co2 183  GLU183     -0.2457
      9  OE2      -25.0810  -39.0570   11.2130 O.co2 183  GLU183     -0.2457
     10  N        -22.6940  -38.7600    9.7170 N.3   185  PHE185     -0.1241
     11  CA       -22.5090  -37.3290    9.5530 C.3   185  PHE185      0.1605
     12  C        -21.5060  -36.8040   10.5790 C.2   185  PHE185      0.2264
     13  O        -21.0210  -35.6800   10.4610 O.2   185  PHE185     -0.2867
     14  CB       -23.8380  -36.5780    9.6760 C.3   185  PHE185      0.0534
     15  CG       -24.8240  -36.9030    8.5900 C.ar  185  PHE185     -0.0203
     16  CD1      -24.3930  -37.3220    7.3400 C.ar  185  PHE185     -0.0042
     17  CD2      -26.1860  -36.7960    8.8220 C.ar  185  PHE185     -0.0042
     18  CE1      -25.3000  -37.6220    6.3400 C.ar  185  PHE185     -0.0003
     19  CE2      -27.1040  -37.0940    7.8320 C.ar  185  PHE185     -0.0003
     20  CZ       -26.6590  -37.5110    6.5790 C.ar  185  PHE185     -0.0000
     21  N        -22.0480  -36.9290   14.1720 N.3   187  TYR187     -0.1227
     22  CA       -22.6280  -36.4510   15.4220 C.3   187  TYR187      0.1736
     23  C        -22.9500  -37.5650   16.4170 C.2   187  TYR187      0.2595
     24  O        -23.4930  -38.6130   16.0420 O.2   187  TYR187     -0.2718
     25  CB       -23.8940  -35.6640   15.1400 C.3   187  TYR187      0.0548
     26  CG       -23.6540  -34.4030   14.3420 C.ar  187  TYR187     -0.0200
     27  CD1      -23.3840  -34.4670   12.9840 C.ar  187  TYR187     -0.0009
     28  CD2      -23.7050  -33.1500   14.9430 C.ar  187  TYR187     -0.0009
     29  CE1      -23.1820  -33.3290   12.2420 C.ar  187  TYR187      0.0417
     30  CE2      -23.5010  -31.9980   14.2060 C.ar  187  TYR187      0.0417
     31  CZ       -23.2370  -32.0940   12.8550 C.ar  187  TYR187      0.1957
     32  OH       -23.0280  -30.9650   12.1010 O.3   187  TYR187     -0.2866
     33  N        -22.6150  -37.3280   17.6850 N.am  188  VAL188     -0.1966
     34  CA       -23.0430  -38.2140   18.7540 C.3   188  VAL188      0.1727
     35  C        -24.5220  -38.5240   18.5470 C.2   188  VAL188      0.2616
     36  O        -25.3330  -37.6080   18.3690 O.2   188  VAL188     -0.2715
     37  CB       -22.8410  -37.5640   20.1380 C.3   188  VAL188      0.0290
     38  CG1      -23.3780  -38.4910   21.2620 C.3   188  VAL188      0.0023
     39  CG2      -21.3750  -37.2090   20.3550 C.3   188  VAL188      0.0023
     40  N        -24.8740  -39.8060   18.5450 N.am  189  ASP189     -0.1957
     41  CA       -26.2750  -40.1990   18.3490 C.3   189  ASP189      0.1840
     42  C        -26.7600  -41.1230   19.4810 C.2   189  ASP189      0.2623
     43  O        -25.9590  -41.7620   20.1610 O.2   189  ASP189     -0.2715
     44  CB       -26.4860  -40.8280   16.9590 C.3   189  ASP189      0.1450
     45  CG       -25.9970  -42.2670   16.8730 C.2   189  ASP189      0.3671
     46  OD1      -25.0960  -42.6670   17.6480 O.co2 189  ASP189     -0.2456
     47  OD2      -26.5270  -43.0050   16.0180 O.co2 189  ASP189     -0.2456
     48  N        -28.0640  -41.1820   19.7000 N.am  190  GLY190     -0.1940
     49  CA       -28.5850  -41.9860   20.7950 C.3   190  GLY190      0.2014
     50  C        -28.2250  -41.4870   22.1990 C.2   190  GLY190      0.2639
     51  O        -28.1360  -42.2820   23.1420 O.2   190  GLY190     -0.2714
     52  N        -28.0120  -40.1820   22.3590 N.am  191  ARG191     -0.1963
     53  CA       -27.7680  -39.6520   23.6990 C.3   191  ARG191      0.1729
     54  C        -29.0520  -39.6420   24.5350 C.2   191  ARG191      0.2616
     55  O        -29.0490  -40.0460   25.6990 O.2   191  ARG191     -0.2715
     56  CB       -27.1510  -38.2510   23.6470 C.3   191  ARG191      0.0348
     57  CG       -27.0800  -37.5360   25.0120 C.3   191  ARG191      0.0492
     58  CD       -26.4260  -38.4030   26.0760 C.3   191  ARG191      0.2205
     59  NE       -26.2520  -37.6940   27.3430 N.pl3 191  ARG191     -0.0865
     60  CZ       -27.0350  -37.8630   28.4050 C.cat 191  ARG191      0.5346
     61  NH1      -28.0480  -38.7140   28.3400 N.pl3 191  ARG191      0.1354
     62  NH2      -26.8110  -37.1760   29.5260 N.pl3 191  ARG191      0.1354
     63  N        -30.1500  -39.2050   23.9300 N.am  192  SER192     -0.1950
     64  CA       -31.3860  -38.9840   24.6740 C.3   192  SER192      0.1924
     65  C        -32.3600  -40.1320   24.5010 C.2   192  SER192      0.2314
     66  O        -32.8580  -40.3680   23.4070 O.2   192  SER192     -0.2863
     67  CB       -32.0400  -37.6720   24.2450 C.3   192  SER192      0.2116
     68  OG       -33.3650  -37.5850   24.7280 O.3   192  SER192     -0.2180
     69  N        -35.5620  -49.7290    9.7090 N.3   244  ARG244     -0.1245
     70  CA       -35.4150  -49.0150    8.4440 C.3   244  ARG244      0.1563
     71  C        -33.9450  -48.8090    8.1010 C.2   244  ARG244      0.2260
     72  O        -33.1940  -48.2310    8.8900 O.2   244  ARG244     -0.2867
     73  CB       -36.1230  -47.6640    8.5020 C.3   244  ARG244      0.0307
     74  CG       -37.6150  -47.7680    8.7400 C.3   244  ARG244      0.0489
     75  CD       -38.1940  -46.4500    9.2210 C.3   244  ARG244      0.2205
     76  NE       -37.9660  -45.3620    8.2700 N.pl3 244  ARG244     -0.0865
     77  CZ       -38.7280  -45.1150    7.2060 C.cat 244  ARG244      0.5346
     78  NH1      -39.7700  -45.8910    6.9340 N.pl3 244  ARG244      0.1354
     79  NH2      -38.4430  -44.0950    6.4050 N.pl3 244  ARG244      0.1354
     80  N        -31.4380  -46.7120    6.5170 N.3   246  LEU246     -0.1245
     81  CA       -31.3730  -45.3090    6.1090 C.3   246  LEU246      0.1561
     82  C        -29.9730  -44.9730    5.6210 C.2   246  LEU246      0.2260
     83  O        -29.0550  -44.8020    6.4280 O.2   246  LEU246     -0.2867
     84  CB       -31.7670  -44.3900    7.2690 C.3   246  LEU246      0.0270
     85  CG       -33.1290  -44.6640    7.9210 C.3   246  LEU246      0.0019
     86  CD1      -33.3710  -43.7220    9.1030 C.3   246  LEU246      0.0001
     87  CD2      -34.2650  -44.5680    6.9250 C.3   246  LEU246      0.0001
     88  N        -26.8470  -42.8420    4.1510 N.3   248  GLN248     -0.1245
     89  CA       -26.4050  -41.4940    4.4650 C.3   248  GLN248      0.1566
     90  C        -25.4400  -40.9480    3.4190 C.2   248  GLN248      0.2260
     91  O        -24.3630  -41.5030    3.2010 O.2   248  GLN248     -0.2867
     92  CB       -25.7480  -41.4450    5.8500 C.3   248  GLN248      0.0367
     93  CG       -26.6860  -41.7260    7.0130 C.3   248  GLN248      0.0905
     94  CD       -26.0270  -41.4720    8.3610 C.2   248  GLN248      0.2608
     95  OE1      -25.4750  -42.3810    8.9900 O.2   248  GLN248     -0.2717
     96  NE2      -26.0570  -40.2300    8.7920 N.am  248  GLN248     -0.0878
     97  N        -28.8760  -30.4680   13.1680 N.3   279  VAL279     -0.1245
     98  CA       -29.0660  -31.5410   14.1200 C.3   279  VAL279      0.1561
     99  C        -29.7000  -31.0940   15.4450 C.2   279  VAL279      0.2260
    100  O        -30.5910  -31.7680   15.9730 O.2   279  VAL279     -0.2867
    101  CB       -27.7250  -32.1960   14.4230 C.3   279  VAL279      0.0252
    102  CG1      -27.8550  -33.1610   15.6290 C.3   279  VAL279      0.0019
    103  CG2      -27.1900  -32.8810   13.1650 C.3   279  VAL279      0.0019
    104  N        -27.5370  -30.3130   17.8960 N.3   281  ARG281     -0.1245
    105  CA       -26.3640  -30.5240   18.7290 C.3   281  ARG281      0.1563
    106  C        -25.1410  -30.3290   17.8460 C.2   281  ARG281      0.2260
    107  O        -25.1940  -30.6020   16.6460 O.2   281  ARG281     -0.2867
    108  CB       -26.3360  -31.9510   19.2850 C.3   281  ARG281      0.0307
    109  CG       -27.3030  -32.2520   20.4370 C.3   281  ARG281      0.0489
    110  CD       -27.1030  -33.7060   20.9030 C.3   281  ARG281      0.2205
    111  NE       -28.1350  -34.1630   21.8250 N.pl3 281  ARG281     -0.0865
    112  CZ       -28.0050  -34.1700   23.1480 C.cat 281  ARG281      0.5346
    113  NH1      -26.8850  -33.7320   23.7010 N.pl3 281  ARG281      0.1354
    114  NH2      -28.9940  -34.6070   23.9110 N.pl3 281  ARG281      0.1354
    115  N        -33.2480  -31.2360   13.9500 N.3   320  HIS320     -0.1226
    116  CA       -33.7080  -32.6340   14.0750 C.3   320  HIS320      0.1752
    117  C        -34.1570  -33.0140   15.4850 C.2   320  HIS320      0.2595
    118  O        -35.2410  -33.5780   15.6590 O.2   320  HIS320     -0.2718
    119  CB       -32.6190  -33.6120   13.6010 C.3   320  HIS320      0.0759
    120  CG       -32.9700  -35.0620   13.7820 C.ar  320  HIS320      0.0818
    121  ND1      -34.1330  -35.6170   13.2930 N.ar  320  HIS320     -0.2268
    122  CD2      -32.2920  -36.0740   14.3790 C.ar  320  HIS320      0.1154
    123  CE1      -34.1630  -36.9050   13.5910 C.ar  320  HIS320      0.1986
    124  NE2      -33.0600  -37.2080   14.2480 N.ar  320  HIS320     -0.2212
    125  N        -33.3440  -32.7120   16.4950 N.am  321  ILE321     -0.1980
    126  CA       -33.7220  -33.1400   17.8440 C.3   321  ILE321      0.1595
    127  C        -34.9280  -32.3810   18.3850 C.2   321  ILE321      0.2287
    128  O        -35.7000  -32.9310   19.1710 O.2   321  ILE321     -0.2864
    129  CB       -32.5470  -33.1180   18.8600 C.3   321  ILE321      0.0276
    130  CG1      -32.0770  -31.6820   19.1330 C.3   321  ILE321      0.0022
    131  CG2      -31.4150  -34.0250   18.3820 C.3   321  ILE321      0.0022
    132  CD1      -31.3070  -31.5400   20.4500 C.3   321  ILE321      0.0001
    133  N        -38.1300  -33.8030   16.5500 N.3   324  THR324     -0.1203
    134  CA       -38.5010  -35.1130   17.0710 C.3   324  THR324      0.1994
    135  C        -38.7030  -35.1400   18.5960 C.2   324  THR324      0.2617
    136  O        -39.0840  -36.1640   19.1490 O.2   324  THR324     -0.2717
    137  CB       -37.4350  -36.1440   16.7040 C.3   324  THR324      0.1784
    138  OG1      -36.2220  -35.8310   17.3910 O.3   324  THR324     -0.2211
    139  CG2      -37.1650  -36.1120   15.2070 C.3   324  THR324      0.0376
    140  N        -38.4230  -34.0270   19.2740 N.am  325  ASN325     -0.1974
    141  CA       -38.6780  -33.9050   20.7200 C.3   325  ASN325      0.1688
    142  C        -38.5960  -32.4540   21.1450 C.2   325  ASN325      0.2292
    143  O        -37.5440  -32.0010   21.5910 O.2   325  ASN325     -0.2864
    144  CB       -37.6900  -34.7260   21.5610 C.3   325  ASN325      0.1181
    145  CG       -38.0210  -34.6950   23.0590 C.2   325  ASN325      0.2629
    146  OD1      -39.0680  -34.1830   23.4630 O.2   325  ASN325     -0.2716
    147  ND2      -37.1270  -35.2480   23.8820 N.am  325  ASN325     -0.0877
    148  N        -39.6580  -31.2810   23.5580 N.3   327  ARG327     -0.1245
    149  CA       -39.5620  -31.3190   25.0100 C.3   327  ARG327      0.1563
    150  C        -40.5810  -30.4090   25.6830 C.2   327  ARG327      0.2260
    151  O        -40.2550  -29.6980   26.6280 O.2   327  ARG327     -0.2867
    152  CB       -38.1320  -31.0030   25.4810 C.3   327  ARG327      0.0307
    153  CG       -37.1150  -32.0330   25.0110 C.3   327  ARG327      0.0489
    154  CD       -35.7010  -31.7540   25.5050 C.3   327  ARG327      0.2205
    155  NE       -34.7360  -32.6580   24.8910 N.pl3 327  ARG327     -0.0865
    156  CZ       -33.6760  -33.1550   25.5190 C.cat 327  ARG327      0.5346
    157  NH1      -33.4500  -32.8260   26.7810 N.pl3 327  ARG327      0.1354
    158  NH2      -32.8590  -33.9960   24.8940 N.pl3 327  ARG327      0.1354
    159  N        -42.5770  -40.1800   22.1660 N.3   342  LEU342     -0.1231
    160  CA       -41.1470  -40.4980   22.1770 C.3   342  LEU342      0.1693
    161  C        -40.9480  -42.0050   22.3180 C.2   342  LEU342      0.2591
    162  O        -41.8730  -42.7260   22.6850 O.2   342  LEU342     -0.2718
    163  CB       -40.4340  -39.7400   23.3060 C.3   342  LEU342      0.0284
    164  CG       -40.7790  -38.2530   23.4420 C.3   342  LEU342      0.0019
    165  CD1      -40.3630  -37.7100   24.8140 C.3   342  LEU342      0.0001
    166  CD2      -40.1330  -37.4510   22.3250 C.3   342  LEU342      0.0001
    167  N        -39.7450  -42.4810   22.0270 N.am  343  MET343     -0.1979
    168  CA       -39.5290  -43.9090   21.8680 C.3   343  MET343      0.1605
    169  C        -38.1010  -44.3030   22.2000 C.2   343  MET343      0.2287
    170  O        -37.1950  -43.4710   22.1950 O.2   343  MET343     -0.2864
    171  CB       -39.8650  -44.3290   20.4280 C.3   343  MET343      0.0413
    172  CG       -38.7950  -43.9800   19.4010 C.3   343  MET343      0.0598
    173  SD       -39.3740  -43.8500   17.6690 S.3   343  MET343     -0.1393
    174  CE       -40.6990  -42.6490   17.8420 C.3   343  MET343      0.0692
    175  N        -34.7840  -45.7510   21.0520 N.3   345  ARG345     -0.1245
    176  CA       -34.0600  -45.9380   19.7980 C.3   345  ARG345      0.1563
    177  C        -32.9250  -46.9340   20.0230 C.2   345  ARG345      0.2260
    178  O        -32.2110  -46.8560   21.0230 O.2   345  ARG345     -0.2867
    179  CB       -33.5310  -44.5970   19.2560 C.3   345  ARG345      0.0307
    180  CG       -34.6340  -43.5840   18.8930 C.3   345  ARG345      0.0489
    181  CD       -34.0940  -42.1970   18.4620 C.3   345  ARG345      0.2205
    182  NE       -33.4320  -41.4770   19.5510 N.pl3 345  ARG345     -0.0865
    183  CZ       -32.1650  -41.0760   19.5190 C.cat 345  ARG345      0.5346
    184  NH1      -31.4170  -41.3020   18.4510 N.pl3 345  ARG345      0.1354
    185  NH2      -31.6440  -40.4550   20.5590 N.pl3 345  ARG345      0.1354
    186  N        -27.5010  -45.7130    8.5890 N.3   373  LEU373     -0.1245
    187  CA       -28.0540  -46.0970    9.8630 C.3   373  LEU373      0.1561
    188  C        -29.1120  -47.1760    9.7030 C.2   373  LEU373      0.2260
    189  O        -30.1570  -46.9540    9.0890 O.2   373  LEU373     -0.2867
    190  CB       -28.6830  -44.8720   10.5340 C.3   373  LEU373      0.0270
    191  CG       -29.2510  -45.1180   11.9270 C.3   373  LEU373      0.0019
    192  CD1      -28.1230  -45.5310   12.8710 C.3   373  LEU373      0.0001
    193  CD2      -29.9930  -43.8960   12.4490 C.3   373  LEU373      0.0001
    194  N        -31.7550  -47.9870   11.2510 N.3   375  PHE375     -0.1241
    195  CA       -32.6210  -47.3970   12.2650 C.3   375  PHE375      0.1605
    196  C        -33.5360  -48.4210   12.9280 C.2   375  PHE375      0.2264
    197  O        -34.2310  -49.1760   12.2450 O.2   375  PHE375     -0.2867
    198  CB       -33.4710  -46.2740   11.6820 C.3   375  PHE375      0.0534
    199  CG       -34.3380  -45.6150   12.6930 C.ar  375  PHE375     -0.0203
    200  CD1      -33.8130  -44.6730   13.5540 C.ar  375  PHE375     -0.0042
    201  CD2      -35.6800  -45.9460   12.8000 C.ar  375  PHE375     -0.0042
    202  CE1      -34.6120  -44.0590   14.5170 C.ar  375  PHE375     -0.0003
    203  CE2      -36.4890  -45.3530   13.7620 C.ar  375  PHE375     -0.0003
    204  CZ       -35.9500  -44.3970   14.6190 C.ar  375  PHE375     -0.0000
    205  N        -43.1570  -44.0080   16.2870 N.3   386  PHE386     -0.1241
    206  CA       -42.3410  -43.8220   15.0910 C.3   386  PHE386      0.1605
    207  C        -43.0980  -43.0950   13.9720 C.2   386  PHE386      0.2264
    208  O        -42.6330  -42.0650   13.4570 O.2   386  PHE386     -0.2867
    209  CB       -41.7750  -45.1270   14.5330 C.3   386  PHE386      0.0534
    210  CG       -41.3090  -44.9900   13.1150 C.ar  386  PHE386     -0.0203
    211  CD1      -40.1580  -44.2790   12.8210 C.ar  386  PHE386     -0.0042
    212  CD2      -42.0530  -45.5150   12.0680 C.ar  386  PHE386     -0.0042
    213  CE1      -39.7420  -44.1230   11.5160 C.ar  386  PHE386     -0.0003
    214  CE2      -41.6370  -45.3580   10.7640 C.ar  386  PHE386     -0.0003
    215  CZ       -40.4840  -44.6630   10.4870 C.ar  386  PHE386     -0.0000
    216  N        -44.0650  -39.5320   14.9020 N.3   389  THR389     -0.1203
    217  CA       -42.8670  -38.7160   14.8900 C.3   389  THR389      0.1994
    218  C        -42.4880  -38.3830   13.4530 C.2   389  THR389      0.2617
    219  O        -42.1940  -37.2280   13.1260 O.2   389  THR389     -0.2717
    220  CB       -41.7120  -39.4420   15.6100 C.3   389  THR389      0.1784
    221  OG1      -42.0340  -39.5530   16.9990 O.3   389  THR389     -0.2211
    222  CG2      -40.3860  -38.6920   15.4510 C.3   389  THR389      0.0376
    223  N        -42.5080  -39.3940   12.5920 N.am  390  GLN390     -0.1979
    224  CA       -42.0110  -39.2240   11.2300 C.3   390  GLN390      0.1601
    225  C        -42.8980  -38.3290   10.3840 C.2   390  GLN390      0.2287
    226  O        -42.4080  -37.4210    9.7300 O.2   390  GLN390     -0.2864
    227  CB       -41.8270  -40.5750   10.5350 C.3   390  GLN390      0.0394
    228  CG       -41.4070  -40.4760    9.0620 C.3   390  GLN390      0.0908
    229  CD       -39.9720  -40.0200    8.8810 C.2   390  GLN390      0.2608
    230  OE1      -39.0330  -40.7240    9.2590 O.2   390  GLN390     -0.2717
    231  NE2      -39.7920  -38.8310    8.3000 N.am  390  GLN390     -0.0878
    232  N        -32.7970  -33.3560    8.4730 N.3   413  VAL413     -0.1231
    233  CA       -32.0130  -34.5840    8.5510 C.3   413  VAL413      0.1692
    234  C        -32.7700  -35.8050    8.0320 C.2   413  VAL413      0.2591
    235  O        -32.2020  -36.6160    7.3120 O.2   413  VAL413     -0.2718
    236  CB       -31.5620  -34.8550    9.9890 C.3   413  VAL413      0.0266
    237  CG1      -30.8670  -36.2070   10.0790 C.3   413  VAL413      0.0020
    238  CG2      -30.6480  -33.7360   10.4510 C.3   413  VAL413      0.0020
    239  N        -34.0420  -35.9320    8.4080 N.am  414  ILE414     -0.1980
    240  CA       -34.8520  -37.0950    8.0510 C.3   414  ILE414      0.1595
    241  C        -36.1980  -36.6900    7.4400 C.2   414  ILE414      0.2287
    242  O        -37.0400  -37.5460    7.1540 O.2   414  ILE414     -0.2864
    243  CB       -35.1510  -37.9950    9.2770 C.3   414  ILE414      0.0276
    244  CG1      -36.0910  -37.2740   10.2450 C.3   414  ILE414      0.0022
    245  CG2      -33.8590  -38.4330    9.9740 C.3   414  ILE414      0.0022
    246  CD1      -36.4340  -38.0750   11.5070 C.3   414  ILE414      0.0001
    247  N        -30.5900  -38.2090    3.4400 N.3   444  VAL444     -0.1245
    248  CA       -30.9280  -39.4910    4.0400 C.3   444  VAL444      0.1561
    249  C        -31.9870  -40.2020    3.1980 C.2   444  VAL444      0.2260
    250  O        -33.0720  -39.6670    2.9490 O.2   444  VAL444     -0.2867
    251  CB       -31.4050  -39.3290    5.4970 C.3   444  VAL444      0.0252
    252  CG1      -31.8180  -40.6740    6.0680 C.3   444  VAL444      0.0019
    253  CG2      -30.3030  -38.7060    6.3470 C.3   444  VAL444      0.0019
@<TRIPOS>BOND
     1   250   249    2
     2   249   248    1
     3    91    90    2
     4    90    89    1
     5   247   248    1
     6   248   251    1
     7    88    89    1
     8    89    92    1
     9   251   252    1
    10   251   253    1
    11    82    81    1
    12    82    83    2
    13    92    93    1
    14    81    80    1
    15    81    84    1
    16    18    20   ar
    17    18    16   ar
    18    79    77    1
    19    20    19   ar
    20    87    85    1
    21    78    77    1
    22    93    94    1
    23   242   241    2
    24    77    76    2
    25    84    85    1
    26   235   234    2
    27    16    15   ar
    28   241   240    1
    29    19    17   ar
    30    85    86    1
    31   234   239   am
    32   234   233    1
    33   240   239    1
    34   240   243    1
    35    71    70    1
    36    71    72    2
    37    76    75    1
    38   231   229   am
    39    94    96   am
    40    94    95    2
    41    70    73    1
    42    70    69    1
    43   232   233    1
    44    73    74    1
    45   233   236    1
    46   186   187    1
    47    15    17   ar
    48    15    14    1
    49    74    75    1
    50   229   228    1
    51   229   230    2
    52   228   227    1
    53   189   188    2
    54   243   245    1
    55   243   244    1
    56    11    14    1
    57    11    10    1
    58    11    12    1
    59   188   187    1
    60   226   225    2
    61   187   190    1
    62   236   237    1
    63   236   238    1
    64   244   246    1
    65   225   224    1
    66    13    12    2
    67   215   214   ar
    68   215   213   ar
    69   190   191    1
    70   227   224    1
    71   214   212   ar
    72     9     7   ar
    73   224   223    1
    74   194   195    1
    75   213   211   ar
    76   198   195    1
    77   198   199    1
    78   191   193    1
    79   191   192    1
    80   212   210   ar
    81    32    31    1
    82     3     4    2
    83     3     2    1
    84    29    31   ar
    85    29    27   ar
    86   197   196    2
    87   195   196    1
    88     7     8   ar
    89     7     6    1
    90   223   218   am
    91   199   201   ar
    92   199   200   ar
    93   201   203   ar
    94   211   210   ar
    95    31    30   ar
    96    27    26   ar
    97     5     2    1
    98     5     6    1
    99   210   209    1
   100   219   218    2
   101   103   101    1
   102    97    98    1
   103     2     1    1
   104   121   123   ar
   105   121   120   ar
   106   218   217    1
   107   208   207    2
   108   200   202   ar
   109   123   124   ar
   110   119   120    1
   111   119   116    1
   112   203   204   ar
   113   120   122   ar
   114   115   116    1
   115   207   206    1
   116   116   117    1
   117    98   101    1
   118    98    99    1
   119    21    22    1
   120    30    28   ar
   121   124   122   ar
   122    26    28   ar
   123    26    25    1
   124   101   102    1
   125   202   204   ar
   126   209   206    1
   127   217   216    1
   128   217   220    1
   129   206   205    1
   130    25    22    1
   131   139   137    1
   132    22    23    1
   133    99   100    2
   134   222   220    1
   135   117   118    2
   136   117   125   am
   137   220   221    1
   138    47    45   ar
   139    24    23    2
   140    23    33   am
   141   125   126    1
   142   133   134    1
   143   107   106    2
   144   137   134    1
   145   137   138    1
   146    45    44    1
   147    45    46   ar
   148    44    41    1
   149   134   135    1
   150   173   174    1
   151   173   172    1
   152    33    34    1
   153   126   127    1
   154   126   129    1
   155   106   105    1
   156   104   105    1
   157    41    40    1
   158    41    42    1
   159    36    35    2
   160   131   129    1
   161   127   128    2
   162   184   183    1
   163   181   180    1
   164   181   182    1
   165    40    35   am
   166    35    34    1
   167   135   136    2
   168   135   140   am
   169   105   108    1
   170    34    37    1
   171   129   130    1
   172   180   179    1
   173   130   132    1
   174   179   176    1
   175   140   141    1
   176   108   109    1
   177   172   171    1
   178    42    48   am
   179    42    43    2
   180   183   182    2
   181   183   185    1
   182    48    49    1
   183   176   177    1
   184   176   175    1
   185   177   178    2
   186    37    39    1
   187    37    38    1
   188   171   168    1
   189   109   110    1
   190   141   142    1
   191   141   144    1
   192    49    50    1
   193   110   111    1
   194   142   143    2
   195   144   145    1
   196   111   112    2
   197   168   167    1
   198   168   169    1
   199   167   161   am
   200   159   160    1
   201   160   161    1
   202   160   163    1
   203   170   169    2
   204    50    52   am
   205    50    51    2
   206   161   162    2
   207   166   164    1
   208    52    53    1
   209   145   146    2
   210   145   147   am
   211   112   113    1
   212   112   114    1
   213   163   164    1
   214    66    65    2
   215   164   165    1
   216   148   149    1
   217    56    53    1
   218    56    57    1
   219    53    54    1
   220    63    54   am
   221    63    64    1
   222    67    64    1
   223    67    68    1
   224    65    64    1
   225    54    55    2
   226   155   154    1
   227   155   156    2
   228   158   156    1
   229   149   152    1
   230   149   150    1
   231   153   152    1
   232   153   154    1
   233    57    58    1
   234   156   157    1
   235   150   151    2
   236    58    59    1
   237    59    60    2
   238    61    60    1
   239    60    62    1
