@<TRIPOS>MOLECULE
tmp/4g2fA00.pdb
 138 127 0 0 0
SMALL
GASTEIGER

@<TRIPOS>ATOM
      1  N        -15.0350    0.5430   52.5590 N.3    19  VAL19      -0.1231
      2  CA       -13.6100    0.2630   52.4050 C.3    19  VAL19       0.1692
      3  C        -12.7910    0.6440   53.6530 C.2    19  VAL19       0.2593
      4  O        -11.6440    0.2100   53.8280 O.2    19  VAL19      -0.2718
      5  CB       -13.0930    0.9440   51.1010 C.3    19  VAL19       0.0266
      6  CG1      -11.8700    1.8160   51.3430 C.3    19  VAL19       0.0020
      7  CG2      -12.8450   -0.0910   50.0080 C.3    19  VAL19       0.0020
      8  N        -13.4020    1.4280   54.5360 N.am   20  GLY20      -0.1942
      9  CA       -12.7590    1.8250   55.7750 C.3    20  GLY20       0.2014
     10  C        -13.6810    2.6440   56.6540 C.2    20  GLY20       0.2638
     11  O        -14.8050    2.9680   56.2650 O.2    20  GLY20      -0.2714
     12  N        -13.2070    2.9770   57.8500 N.am   21  ALA21      -0.1977
     13  CA       -13.9760    3.8170   58.7580 C.3    21  ALA21       0.1597
     14  C        -13.2270    5.1100   59.0130 C.2    21  ALA21       0.2287
     15  O        -12.1730    5.1080   59.6460 O.2    21  ALA21      -0.2864
     16  CB       -14.2420    3.0940   60.0630 C.3    21  ALA21       0.0319
     17  N        -15.7050    5.1170   54.7900 N.3    27  VAL27      -0.1245
     18  CA       -15.1130    5.4320   53.4980 C.3    27  VAL27       0.1561
     19  C        -15.4620    4.3160   52.5260 C.2    27  VAL27       0.2260
     20  O        -15.3590    3.1320   52.8590 O.2    27  VAL27      -0.2867
     21  CB       -13.5850    5.5880   53.5890 C.3    27  VAL27       0.0252
     22  CG1      -13.0100    6.0440   52.2430 C.3    27  VAL27       0.0019
     23  CG2      -13.2160    6.5690   54.6960 C.3    27  VAL27       0.0019
     24  N        -12.4950    7.3060   45.6360 N.3    43  ALA43      -0.1245
     25  CA       -12.7330    6.9960   47.0290 C.3    43  ALA43       0.1562
     26  C        -13.7830    7.9660   47.5150 C.2    43  ALA43       0.2260
     27  O        -13.8350    9.1210   47.0690 O.2    43  ALA43      -0.2867
     28  CB       -11.4820    7.1500   47.8330 C.3    43  ALA43       0.0290
     29  N        -15.6460    9.5010   50.9300 N.3    45  LYS45      -0.1245
     30  CA       -15.8000    9.6940   52.3710 C.3    45  LYS45       0.1561
     31  C        -17.2490   10.0960   52.5990 C.2    45  LYS45       0.2260
     32  O        -17.7220   11.0400   51.9680 O.2    45  LYS45      -0.2867
     33  CB       -14.8880   10.8180   52.8730 C.3    45  LYS45       0.0271
     34  CG       -13.5240   10.3700   53.4180 C.3    45  LYS45       0.0035
     35  CD       -12.8280   11.5010   54.1880 C.3    45  LYS45       0.0206
     36  CE       -11.4530   11.0660   54.6960 C.3    45  LYS45       0.1093
     37  NZ       -10.7320   12.1600   55.4230 N.3    45  LYS45      -0.1314
     38  N        -12.0960   19.8730   55.3650 N.3    62  GLU62      -0.1245
     39  CA       -11.0090   19.2050   54.6570 C.3    62  GLU62       0.1567
     40  C        -11.0970   19.3900   53.1430 C.2    62  GLU62       0.2260
     41  O        -10.0780   19.6050   52.4800 O.2    62  GLU62      -0.2867
     42  CB       -10.9460   17.7110   54.9850 C.3    62  GLU62       0.0388
     43  CG        -9.9700   16.9900   54.0560 C.3    62  GLU62       0.1160
     44  CD        -9.8000   15.5280   54.3510 C.2    62  GLU62       0.3649
     45  OE1      -10.8060   14.8550   54.6700 O.co2  62  GLU62      -0.2457
     46  OE2       -8.6450   15.0590   54.2500 O.co2  62  GLU62      -0.2457
     47  N         -8.3030   20.6590   50.5930 N.3    66  MET66      -0.1245
     48  CA        -7.8410   19.7770   49.5200 C.3    66  MET66       0.1570
     49  C         -8.0730   20.4050   48.1640 C.2    66  MET66       0.2261
     50  O         -7.2420   20.2690   47.2580 O.2    66  MET66      -0.2867
     51  CB        -8.5970   18.4470   49.5310 C.3    66  MET66       0.0387
     52  CG        -8.3880   17.5830   50.7320 C.3    66  MET66       0.0595
     53  SD        -9.2250   16.0080   50.4600 S.3    66  MET66      -0.1393
     54  CE        -8.8890   15.7820   48.7240 C.3    66  MET66       0.0692
     55  N         -3.4880   14.2500   47.1270 N.3    75  ILE75      -0.1245
     56  CA        -4.7480   13.5800   46.7690 C.3    75  ILE75       0.1561
     57  C         -5.6840   14.5790   46.1120 C.2    75  ILE75       0.2260
     58  O         -5.8990   15.6840   46.6270 O.2    75  ILE75      -0.2867
     59  CB        -5.4280   12.9410   47.9920 C.3    75  ILE75       0.0252
     60  CG1       -4.6010   11.7530   48.4690 C.3    75  ILE75       0.0019
     61  CG2       -6.8000   12.4310   47.6290 C.3    75  ILE75       0.0019
     62  CD1       -4.5970   10.6020   47.4630 C.3    75  ILE75       0.0001
     63  N        -17.4030   13.4250   50.3560 N.3    89  ILE89      -0.1245
     64  CA       -16.2010   13.9910   49.7410 C.3    89  ILE89       0.1561
     65  C        -15.6450   12.9100   48.8070 C.2    89  ILE89       0.2260
     66  O        -15.4250   11.7670   49.2310 O.2    89  ILE89      -0.2867
     67  CB       -15.1430   14.3820   50.7980 C.3    89  ILE89       0.0252
     68  CG1      -15.6460   15.5450   51.6580 C.3    89  ILE89       0.0019
     69  CG2      -13.8320   14.8050   50.1330 C.3    89  ILE89       0.0019
     70  CD1      -14.7850   15.7990   52.8910 C.3    89  ILE89       0.0001
     71  N        -12.7320   11.6480   46.1910 N.3    91  THR91      -0.1203
     72  CA       -11.3370   11.8640   45.8290 C.3    91  THR91       0.1994
     73  C        -10.8530   10.8020   44.8710 C.2    91  THR91       0.2618
     74  O        -11.5260    9.7960   44.6610 O.2    91  THR91      -0.2717
     75  CB       -10.4280   11.8690   47.0730 C.3    91  THR91       0.1784
     76  OG1      -10.4860   10.5860   47.7270 O.3    91  THR91      -0.2211
     77  CG2      -10.8700   12.9510   48.0320 C.3    91  THR91       0.0376
     78  N         -9.6720   11.0030   44.2950 N.am   92  GLU92      -0.1965
     79  CA        -9.1120    9.9660   43.4390 C.3    92  GLU92       0.1733
     80  C         -8.8770    8.7070   44.2670 C.2    92  GLU92       0.2616
     81  O         -8.6110    8.7740   45.4690 O.2    92  GLU92      -0.2715
     82  CB        -7.8050   10.4210   42.7910 C.3    92  GLU92       0.0429
     83  CG        -6.6760   10.5850   43.7680 C.3    92  GLU92       0.1163
     84  CD        -5.3970   11.0740   43.1010 C.2    92  GLU92       0.3649
     85  OE1       -4.8990   10.4080   42.1590 O.co2  92  GLU92      -0.2457
     86  OE2       -4.8890   12.1230   43.5380 O.co2  92  GLU92      -0.2457
     87  N         -9.0010    7.5640   43.6060 N.am   93  TYR93      -0.1960
     88  CA        -8.8720    6.2660   44.2420 C.3    93  TYR93       0.1771
     89  C         -7.4010    5.8670   44.2710 C.2    93  TYR93       0.2619
     90  O         -6.6860    6.0130   43.2760 O.2    93  TYR93      -0.2715
     91  CB        -9.6760    5.2530   43.4270 C.3    93  TYR93       0.0574
     92  CG        -9.6320    3.8470   43.9600 C.ar   93  TYR93      -0.0198
     93  CD1      -10.2080    3.5340   45.1790 C.ar   93  TYR93      -0.0009
     94  CD2       -9.0180    2.8300   43.2330 C.ar   93  TYR93      -0.0009
     95  CE1      -10.1670    2.2400   45.6770 C.ar   93  TYR93       0.0417
     96  CE2       -8.9820    1.5330   43.7140 C.ar   93  TYR93       0.0417
     97  CZ        -9.5590    1.2470   44.9400 C.ar   93  TYR93       0.1957
     98  OH        -9.5280   -0.0400   45.4400 O.3    93  TYR93      -0.2866
     99  N         -6.9560    5.3720   45.4210 N.am   94  MET94      -0.1977
    100  CA        -5.5790    4.9320   45.5960 C.3    94  MET94       0.1605
    101  C         -5.6180    3.4560   45.9770 C.2    94  MET94       0.2287
    102  O         -5.9830    3.0970   47.0980 O.2    94  MET94      -0.2864
    103  CB        -4.9130    5.7770   46.6750 C.3    94  MET94       0.0413
    104  CG        -4.9570    7.2670   46.3510 C.3    94  MET94       0.0598
    105  SD        -3.8560    7.7300   45.0070 S.3    94  MET94      -0.1393
    106  CE        -2.2830    7.6570   45.8680 C.3    94  MET94       0.0692
    107  N         -3.8630    1.8220   49.2070 N.3    97  GLY97      -0.1210
    108  CA        -4.2220    2.2700   50.5450 C.3    97  GLY97       0.1956
    109  C         -3.1800    3.1270   51.2480 C.2    97  GLY97       0.2612
    110  O         -2.3940    3.8110   50.5980 O.2    97  GLY97      -0.2717
    111  N         -3.1840    3.0760   52.5750 N.am   98  SER98      -0.1952
    112  CA        -2.2460    3.8540   53.3740 C.3    98  SER98       0.1924
    113  C         -0.8500    3.2870   53.2170 C.2    98  SER98       0.2314
    114  O         -0.6710    2.0690   53.1060 O.2    98  SER98      -0.2863
    115  CB        -2.6680    3.8530   54.8410 C.3    98  SER98       0.2116
    116  OG        -3.9390    4.4610   54.9790 O.3    98  SER98      -0.2180
    117  N         -1.1240    8.0960   50.8970 N.3   145  LEU145     -0.1245
    118  CA        -1.7900    7.0230   50.1760 C.3   145  LEU145      0.1561
    119  C         -0.9440    6.6220   48.9870 C.2   145  LEU145      0.2260
    120  O         -0.1950    7.4360   48.4490 O.2   145  LEU145     -0.2867
    121  CB        -3.1760    7.4770   49.7220 C.3   145  LEU145      0.0270
    122  CG        -4.1350    7.8120   50.8650 C.3   145  LEU145      0.0019
    123  CD1       -5.4210    8.4070   50.3290 C.3   145  LEU145      0.0001
    124  CD2       -4.4380    6.5770   51.6910 C.3   145  LEU145      0.0001
    125  N         -2.2900   13.0270   52.0030 N.3   155  SER155     -0.1202
    126  CA        -3.7210   13.0220   52.2990 C.3   155  SER155      0.2020
    127  C         -3.9860   13.5910   53.6940 C.2   155  SER155      0.2618
    128  O         -3.0680   14.0780   54.3630 O.2   155  SER155     -0.2717
    129  CB        -4.2520   11.5850   52.2170 C.3   155  SER155      0.2103
    130  OG        -5.6540   11.5580   52.3640 O.3   155  SER155     -0.2182
    131  N         -5.2470   13.5270   54.1160 N.am  156  ASP156     -0.1973
    132  CA        -5.6690   13.9050   55.4700 C.3   156  ASP156      0.1709
    133  C         -5.3580   15.3490   55.8120 C.2   156  ASP156      0.2293
    134  O         -4.3860   15.6530   56.5110 O.2   156  ASP156     -0.2864
    135  CB        -5.0540   12.9870   56.5300 C.3   156  ASP156      0.1436
    136  CG        -5.5190   13.3340   57.9330 C.2   156  ASP156      0.3671
    137  OD1       -6.7480   13.4600   58.1290 O.co2 156  ASP156     -0.2456
    138  OD2       -4.6590   13.5040   58.8280 O.co2 156  ASP156     -0.2456
@<TRIPOS>BOND
     1    85    84   ar
     2    82    79    1
     3    82    83    1
     4    84    86   ar
     5    84    83    1
     6    94    96   ar
     7    94    92   ar
     8    90    89    2
     9    91    92    1
    10    91    88    1
    11    79    80    1
    12    79    78    1
    13    87    88    1
    14    87    80   am
    15    96    97   ar
    16    92    93   ar
    17    88    89    1
    18    80    81    2
    19    89    99   am
    20    78    73   am
    21    74    73    2
    22    73    72    1
    23    97    98    1
    24    97    95   ar
    25   105   106    1
    26   105   104    1
    27    93    95   ar
    28    99   100    1
    29   100   101    1
    30   100   103    1
    31    24    25    1
    32    72    71    1
    33    72    75    1
    34   101   102    2
    35    57    58    2
    36    57    56    1
    37   104   103    1
    38    56    55    1
    39    56    59    1
    40    25    26    1
    41    25    28    1
    42    27    26    2
    43    75    76    1
    44    75    77    1
    45    50    49    2
    46    62    60    1
    47    61    59    1
    48    59    60    1
    49    49    48    1
    50   120   119    2
    51    54    53    1
    52    65    66    2
    53    65    64    1
    54   119   118    1
    55   107   108    1
    56    48    51    1
    57    48    47    1
    58    51    52    1
    59   121   118    1
    60   121   122    1
    61    64    63    1
    62    64    67    1
    63     7     5    1
    64    69    67    1
    65   118   117    1
    66   123   122    1
    67    53    52    1
    68   108   109    1
    69   110   109    2
    70    67    68    1
    71   122   124    1
    72    29    30    1
    73     5     6    1
    74     5     2    1
    75   109   111   am
    76    68    70    1
    77    32    31    2
    78   125   126    1
    79   129   126    1
    80   129   130    1
    81    22    21    1
    82   126   127    1
    83    30    31    1
    84    30    33    1
    85     2     1    1
    86     2     3    1
    87    41    40    2
    88    19    20    2
    89    19    18    1
    90   111   112    1
    91    33    34    1
    92   114   113    2
    93    40    39    1
    94   113   112    1
    95   112   115    1
    96    34    35    1
    97    18    21    1
    98    18    17    1
    99    21    23    1
   100     3     4    2
   101     3     8   am
   102   127   131   am
   103   127   128    2
   104    43    44    1
   105    43    42    1
   106   131   132    1
   107    35    36    1
   108    46    44   ar
   109    44    45   ar
   110     8     9    1
   111    39    42    1
   112    39    38    1
   113    36    37    1
   114   115   116    1
   115   132   133    1
   116   132   135    1
   117     9    10    1
   118   133   134    2
   119    11    10    2
   120   135   136    1
   121    10    12   am
   122    12    13    1
   123   136   137   ar
   124   136   138   ar
   125    13    14    1
   126    13    16    1
   127    14    15    2
