@<TRIPOS>MOLECULE
tmp/4g2gA01.pdb
 136 129 0 0 0
SMALL
GASTEIGER

@<TRIPOS>ATOM
      1  N        -11.1110   10.1320    1.4270 N.3    76  THR76      -0.1203
      2  CA       -12.4750   10.2800    1.9140 C.3    76  THR76       0.1994
      3  C        -13.2420   11.3160    1.0430 C.2    76  THR76       0.2617
      4  O        -14.4420   11.5910    1.2860 O.2    76  THR76      -0.2717
      5  CB       -12.4600   10.7020    3.4020 C.3    76  THR76       0.1784
      6  OG1      -11.9780   12.0460    3.5470 O.3    76  THR76      -0.2211
      7  CG2      -11.4940    9.8380    4.2310 C.3    76  THR76       0.0376
      8  N        -12.5470   11.8790    0.0370 N.am   77  VAL77      -0.1979
      9  CA       -13.1120   12.7930   -0.9830 C.3    77  VAL77       0.1595
     10  C        -12.8430   12.3170   -2.4270 C.2    77  VAL77       0.2287
     11  O        -11.9620   11.4650   -2.6370 O.2    77  VAL77      -0.2864
     12  CB       -12.5620   14.2460   -0.8140 C.3    77  VAL77       0.0276
     13  CG1      -13.0090   14.8790    0.5060 C.3    77  VAL77       0.0022
     14  CG2      -11.0470   14.2970   -0.9280 C.3    77  VAL77       0.0022
     15  N        -10.7340   16.5690   -5.5680 N.3    81  VAL81      -0.1231
     16  CA       -10.8590   17.4540   -4.4160 C.3    81  VAL81       0.1692
     17  C         -9.5310   17.5530   -3.6180 C.2    81  VAL81       0.2591
     18  O         -9.3210   18.4980   -2.8460 O.2    81  VAL81      -0.2718
     19  CB       -12.0930   17.0540   -3.5410 C.3    81  VAL81       0.0266
     20  CG1      -12.2380   17.9120   -2.2890 C.3    81  VAL81       0.0020
     21  CG2      -13.3760   17.1190   -4.3540 C.3    81  VAL81       0.0020
     22  N         -8.6450   16.5650   -3.7800 N.am   82  VAL82      -0.1980
     23  CA        -7.3120   16.6510   -3.2020 C.3    82  VAL82       0.1595
     24  C         -6.5550   17.8900   -3.7300 C.2    82  VAL82       0.2287
     25  O         -5.8070   18.4900   -2.9700 O.2    82  VAL82      -0.2864
     26  CB        -6.4860   15.3480   -3.4500 C.3    82  VAL82       0.0276
     27  CG1       -5.0260   15.5530   -3.0980 C.3    82  VAL82       0.0022
     28  CG2       -7.0150   14.2030   -2.5650 C.3    82  VAL82       0.0022
     29  N         -7.7940   20.7780   -4.1990 N.3    84  ASN84      -0.1240
     30  CA        -8.9040   21.7430   -3.9770 C.3    84  ASN84       0.1653
     31  C         -8.4560   23.2030   -4.2130 C.2    84  ASN84       0.2266
     32  O         -9.0130   23.9210   -5.0590 O.2    84  ASN84      -0.2867
     33  CB        -9.4530   21.5150   -2.5580 C.3    84  ASN84       0.1155
     34  CG       -10.7590   22.2380   -2.2920 C.2    84  ASN84       0.2627
     35  OD1      -11.6260   22.3510   -3.1660 O.2    84  ASN84      -0.2716
     36  ND2      -10.9010   22.7430   -1.0740 N.am   84  ASN84      -0.0877
     37  N        -21.0770   14.8460   10.0250 N.3   162  SER162     -0.1202
     38  CA       -20.2650   14.1550    9.0530 C.3   162  SER162      0.2020
     39  C        -18.8010   14.0120    9.4580 C.2   162  SER162      0.2618
     40  O        -18.1320   13.0750    8.9950 O.2   162  SER162     -0.2717
     41  CB       -20.2840   14.8770    7.7040 C.3   162  SER162      0.2103
     42  OG       -21.5920   14.9650    7.1400 O.3   162  SER162     -0.2182
     43  N        -18.3100   14.9130   10.3200 N.am  163  LEU163     -0.1979
     44  CA       -16.8580   15.1030   10.4860 C.3   163  LEU163      0.1596
     45  C        -16.0740   13.9530   11.1460 C.2   163  LEU163      0.2287
     46  O        -14.9010   13.7520   10.8050 O.2   163  LEU163     -0.2864
     47  CB       -16.5340   16.4500   11.1490 C.3   163  LEU163      0.0297
     48  CG       -17.1160   17.6780   10.4310 C.3   163  LEU163      0.0022
     49  CD1      -16.6850   18.9320   11.1850 C.3   163  LEU163      0.0001
     50  CD2      -16.7290   17.6900    8.9520 C.3   163  LEU163      0.0001
     51  N        -15.7280   11.9430    8.0130 N.3   166  ALA166     -0.1231
     52  CA       -15.0780   12.6450    6.9180 C.3   166  ALA166      0.1694
     53  C        -13.5440   12.7880    7.0660 C.2   166  ALA166      0.2592
     54  O        -12.8050   12.7380    6.0360 O.2   166  ALA166     -0.2718
     55  CB       -15.6950   14.0100    6.7090 C.3   166  ALA166      0.0304
     56  N        -13.0830   12.9860    8.3200 N.am  167  PHE167     -0.1976
     57  CA       -11.6650   13.2030    8.6100 C.3   167  PHE167      0.1639
     58  C        -10.9840   11.9800    9.2150 C.2   167  PHE167      0.2290
     59  O         -9.9380   12.0960    9.8760 O.2   167  PHE167     -0.2864
     60  CB       -11.4840   14.4720    9.4110 C.3   167  PHE167      0.0560
     61  CG       -11.6290   15.6970    8.5400 C.ar  167  PHE167     -0.0200
     62  CD1      -12.8690   16.2810    8.3490 C.ar  167  PHE167     -0.0042
     63  CD2      -10.5410   16.1990    7.8240 C.ar  167  PHE167     -0.0042
     64  CE1      -13.0050   17.3760    7.4720 C.ar  167  PHE167     -0.0003
     65  CE2      -10.6930   17.2970    6.9750 C.ar  167  PHE167     -0.0003
     66  CZ       -11.9310   17.8770    6.7780 C.ar  167  PHE167     -0.0000
     67  N        -18.2950    7.7910    4.2630 N.3   177  ALA177     -0.1245
     68  CA       -17.7210    9.0770    3.8300 C.3   177  ALA177      0.1562
     69  C        -18.3640    9.4940    2.5210 C.2   177  ALA177      0.2260
     70  O        -18.6710   10.6580    2.3440 O.2   177  ALA177     -0.2867
     71  CB       -16.1790    9.0530    3.7070 C.3   177  ALA177      0.0290
     72  N        -20.5530   12.7470    2.1260 N.3   181  TRP181     -0.1241
     73  CA       -20.0520   13.7060    1.1360 C.3   181  TRP181      0.1605
     74  C        -21.1240   14.1400    0.1480 C.2   181  TRP181      0.2264
     75  O        -21.3390   15.3250   -0.0430 O.2   181  TRP181     -0.2867
     76  CB       -18.8450   13.1470    0.3790 C.3   181  TRP181      0.0550
     77  CG       -18.3640   14.0370   -0.7390 C.ar  181  TRP181      0.0003
     78  CD1      -18.6400   13.9430   -2.1150 C.ar  181  TRP181      0.0946
     79  CD2      -17.4990   15.1980   -0.5950 C.ar  181  TRP181      0.0152
     80  NE1      -17.9960   14.9460   -2.8140 N.ar  181  TRP181     -0.2442
     81  CE2      -17.2740   15.7180   -1.9550 C.ar  181  TRP181      0.0810
     82  CE3      -16.8580   15.8110    0.4920 C.ar  181  TRP181      0.0012
     83  CZ2      -16.4890   16.8480   -2.1890 C.ar  181  TRP181      0.0191
     84  CZ3      -16.0560   16.9310    0.2490 C.ar  181  TRP181      0.0001
     85  CH2      -15.8830   17.4360   -1.0740 C.ar  181  TRP181      0.0015
     86  N        -23.7880   16.2760    1.9610 N.3   184  ASP184     -0.1239
     87  CA       -23.3000   17.6340    2.1890 C.3   184  ASP184      0.1674
     88  C        -23.1330   18.4520    0.9360 C.2   184  ASP184      0.2266
     89  O        -23.3750   19.6800    1.0090 O.2   184  ASP184     -0.2867
     90  CB       -21.9930   17.5900    2.9360 C.3   184  ASP184      0.1410
     91  CG       -22.1950   17.0240    4.3030 C.2   184  ASP184      0.3668
     92  OD1      -23.3910   16.9350    4.6970 O.co2 184  ASP184     -0.2456
     93  OD2      -21.1810   16.6480    4.9440 O.co2 184  ASP184     -0.2456
     94  N        -18.4100   22.7200    1.2880 N.3   227  VAL227     -0.1231
     95  CA       -18.2850   21.4980    2.1210 C.3   227  VAL227      0.1692
     96  C        -16.8820   21.4750    2.7360 C.2   227  VAL227      0.2593
     97  O        -16.7570   21.3130    3.9690 O.2   227  VAL227     -0.2718
     98  CB       -18.5820   20.2060    1.2960 C.3   227  VAL227      0.0266
     99  CG1      -18.3910   18.9140    2.1230 C.3   227  VAL227      0.0020
    100  CG2      -19.9820   20.2550    0.6680 C.3   227  VAL227      0.0020
    101  N        -15.8490   21.6090    1.8730 N.am  228  THR228     -0.1939
    102  CA       -14.4490   21.4770    2.2540 C.3   228  THR228      0.2028
    103  C        -14.0190   22.5570    3.2440 C.2   228  THR228      0.2642
    104  O        -13.2910   22.2560    4.1920 O.2   228  THR228     -0.2714
    105  CB       -13.4700   21.4850    1.0690 C.3   228  THR228      0.1808
    106  OG1      -13.6880   22.6360    0.3040 O.3   228  THR228     -0.2208
    107  CG2      -13.5870   20.2280    0.1320 C.3   228  THR228      0.0379
    108  N        -14.4680   23.8100    3.0110 N.am  229  PHE229     -0.1973
    109  CA       -14.0210   24.8970    3.8630 C.3   229  PHE229      0.1639
    110  C        -14.7350   24.7940    5.1750 C.2   229  PHE229      0.2290
    111  O        -14.1240   24.9880    6.1900 O.2   229  PHE229     -0.2864
    112  CB       -14.1640   26.2940    3.2060 C.3   229  PHE229      0.0560
    113  CG       -12.9280   26.6680    2.4260 C.ar  229  PHE229     -0.0200
    114  CD1      -12.5870   25.9620    1.2290 C.ar  229  PHE229     -0.0042
    115  CD2      -12.0290   27.6170    2.9230 C.ar  229  PHE229     -0.0042
    116  CE1      -11.4430   26.2960    0.5170 C.ar  229  PHE229     -0.0003
    117  CE2      -10.8470   27.8970    2.2270 C.ar  229  PHE229     -0.0003
    118  CZ       -10.5730   27.2570    1.0270 C.ar  229  PHE229     -0.0000
    119  N        -15.6810   21.8280    6.5340 N.3   231  GLY231     -0.1210
    120  CA       -15.0780   20.6090    7.1610 C.3   231  GLY231      0.1956
    121  C        -13.6820   20.8330    7.6960 C.2   231  GLY231      0.2611
    122  O        -13.4130   20.6220    8.8820 O.2   231  GLY231     -0.2717
    123  N        -12.8030   21.2980    6.8350 N.am  232  ALA232     -0.1979
    124  CA       -11.4160   21.5940    7.2040 C.3   232  ALA232      0.1597
    125  C        -11.3430   22.6170    8.3560 C.2   232  ALA232      0.2287
    126  O        -10.6550   22.3880    9.3320 O.2   232  ALA232     -0.2864
    127  CB       -10.6730   22.1200    5.9850 C.3   232  ALA232      0.0319
    128  N         -7.6070   12.0140   11.3520 N.3   384  GLN384     -0.1245
    129  CA        -6.6290   12.9400   10.8000 C.3   384  GLN384      0.1566
    130  C         -6.1900   13.9530   11.8420 C.2   384  GLN384      0.2260
    131  O         -5.1880   14.6290   11.6130 O.2   384  GLN384     -0.2867
    132  CB        -7.2120   13.6390    9.5560 C.3   384  GLN384      0.0367
    133  CG        -7.2660   12.6730    8.3730 C.3   384  GLN384      0.0905
    134  CD        -7.8920   13.2290    7.1230 C.2   384  GLN384      0.2608
    135  OE1       -7.6890   14.4170    6.7810 O.2   384  GLN384     -0.2717
    136  NE2       -8.6740   12.3690    6.4030 N.am  384  GLN384     -0.0878
@<TRIPOS>BOND
     1    15    16    1
     2    32    31    2
     3    16    17    1
     4    16    19    1
     5    21    19    1
     6    31    30    1
     7    29    30    1
     8    30    33    1
     9    22    17   am
    10    22    23    1
    11    24    23    1
    12    24    25    2
    13    17    18    2
    14    19    20    1
    15    26    23    1
    16    26    27    1
    17    26    28    1
    18    35    34    2
    19    80    78   ar
    20    80    81   ar
    21    11    10    2
    22    33    34    1
    23    10     9    1
    24    34    36   am
    25    83    81   ar
    26    83    85   ar
    27    78    77   ar
    28    81    79   ar
    29    85    84   ar
    30     9    12    1
    31     9     8    1
    32    14    12    1
    33    12    13    1
    34    77    79   ar
    35    77    76    1
    36    79    82   ar
    37    75    74    2
    38     8     3   am
    39   107   105    1
    40    74    73    1
    41    84    82   ar
    42   106   105    1
    43    76    73    1
    44   116   118   ar
    45   116   114   ar
    46   100    98    1
    47    88    89    2
    48    88    87    1
    49   118   117   ar
    50     3     4    2
    51     3     2    1
    52   105   102    1
    53    73    72    1
    54   114   113   ar
    55    94    95    1
    56    98    95    1
    57    98    99    1
    58     1     2    1
    59   101   102    1
    60   101    96   am
    61     2     5    1
    62    86    87    1
    63    95    96    1
    64    87    90    1
    65   117   115   ar
    66   102   103    1
    67    70    69    2
    68   113   115   ar
    69   113   112    1
    70    69    68    1
    71    96    97    2
    72    90    91    1
    73   108   103   am
    74   108   109    1
    75   112   109    1
    76   103   104    2
    77     5     6    1
    78     5     7    1
    79    71    68    1
    80    68    67    1
    81   109   110    1
    82    91    92   ar
    83    91    93   ar
    84   110   111    2
    85   127   124    1
    86    54    53    2
    87   136   134   am
    88   119   120    1
    89    55    52    1
    90    66    65   ar
    91    66    64   ar
    92   135   134    2
    93   123   124    1
    94   123   121   am
    95    52    53    1
    96    52    51    1
    97    65    63   ar
    98    53    56   am
    99   134   133    1
   100    42    41    1
   101   120   121    1
   102   124   125    1
   103    64    62   ar
   104   121   122    2
   105    41    38    1
   106    63    61   ar
   107    56    57    1
   108    62    61   ar
   109   125   126    2
   110   133   132    1
   111    61    60    1
   112    57    58    1
   113    57    60    1
   114    50    48    1
   115    40    39    2
   116    38    39    1
   117    38    37    1
   118    58    59    2
   119    39    43   am
   120   132   129    1
   121    43    44    1
   122    48    47    1
   123    48    49    1
   124    44    45    1
   125    44    47    1
   126   129   128    1
   127   129   130    1
   128    46    45    2
   129   131   130    2
