@<TRIPOS>MOLECULE
tmp/4g2jB00.pdb
 155 147 0 0 0
SMALL
GASTEIGER

@<TRIPOS>ATOM
      1  N        104.8530   30.1510    8.2220 N.3    74  PHE74      -0.1227
      2  CA       103.4460   29.9340    7.8880 C.3    74  PHE74       0.1736
      3  C        102.5690   31.1740    8.1110 C.2    74  PHE74       0.2595
      4  O        101.9060   31.6060    7.1720 O.2    74  PHE74      -0.2718
      5  CB       102.8820   28.7140    8.6500 C.3    74  PHE74       0.0547
      6  CG       101.4660   28.3300    8.2770 C.ar   74  PHE74      -0.0202
      7  CD1      101.2220   27.3990    7.2720 C.ar   74  PHE74      -0.0042
      8  CD2      100.3750   28.8880    8.9440 C.ar   74  PHE74      -0.0042
      9  CE1       99.9160   27.0320    6.9400 C.ar   74  PHE74      -0.0003
     10  CE2       99.0680   28.5310    8.6000 C.ar   74  PHE74      -0.0003
     11  CZ        98.8490   27.6000    7.6060 C.ar   74  PHE74      -0.0000
     12  N        102.5260   31.7110    9.3490 N.am   75  HIS75      -0.1975
     13  CA       101.6800   32.8580    9.7160 C.3    75  HIS75       0.1656
     14  C        102.2470   34.1940    9.2330 C.2    75  HIS75       0.2291
     15  O        102.6820   35.0390   10.0260 O.2    75  HIS75      -0.2864
     16  CB       101.3480   32.8440   11.2200 C.3    75  HIS75       0.0771
     17  CG       100.4760   31.6990   11.6230 C.ar   75  HIS75       0.0820
     18  ND1      101.0000   30.5760   12.2300 N.ar   75  HIS75      -0.2267
     19  CD2       99.1430   31.5300   11.4670 C.ar   75  HIS75       0.1154
     20  CE1       99.9760   29.7620   12.4280 C.ar   75  HIS75       0.1986
     21  NE2       98.8360   30.2990   11.9950 N.ar   75  HIS75      -0.2212
     22  N        102.2120   29.6060   19.1190 N.3   123  ASN123     -0.1240
     23  CA       100.7820   29.5360   19.4360 C.3   123  ASN123      0.1653
     24  C        100.3880   29.9590   20.8620 C.2   123  ASN123      0.2266
     25  O        101.2630   30.2710   21.6720 O.2   123  ASN123     -0.2867
     26  CB       100.1890   28.1690   19.0310 C.3   123  ASN123      0.1155
     27  CG       100.4910   26.9960   19.9360 C.2   123  ASN123      0.2627
     28  OD1      101.1960   27.0870   20.9490 O.2   123  ASN123     -0.2716
     29  ND2       99.8880   25.8720   19.6330 N.am  123  ASN123     -0.0877
     30  N         88.6030   32.1690   15.1390 N.3   186  THR186     -0.1218
     31  CA        89.6900   31.4360   14.4840 C.3   186  THR186      0.1862
     32  C         90.5490   30.6200   15.4590 C.2   186  THR186      0.2287
     33  O         91.3130   29.7610   15.0150 O.2   186  THR186     -0.2866
     34  CB        90.4970   32.3250   13.5180 C.3   186  THR186      0.1770
     35  OG1       91.1790   33.3380   14.2550 O.3   186  THR186     -0.2211
     36  CG2       89.6400   32.9300   12.4020 C.3   186  THR186      0.0375
     37  N         91.5230   27.7320   17.4420 N.3   188  MET188     -0.1245
     38  CA        91.1930   26.3070   17.3350 C.3   188  MET188      0.1570
     39  C         90.7720   25.6310   18.6330 C.2   188  MET188      0.2261
     40  O         90.1660   24.5600   18.5820 O.2   188  MET188     -0.2867
     41  CB        92.2700   25.5160   16.5820 C.3   188  MET188      0.0387
     42  CG        92.2340   25.7300   15.0690 C.3   188  MET188      0.0595
     43  SD        90.7130   25.1810   14.2480 S.3   188  MET188     -0.1393
     44  CE        90.8630   23.4250   14.4180 C.3   188  MET188      0.0692
     45  N         90.4360   29.9200    6.8190 N.3   225  ASP225     -0.1225
     46  CA        91.6630   29.9050    7.6090 C.3   225  ASP225      0.1805
     47  C         92.4740   28.6200    7.4410 C.2   225  ASP225      0.2597
     48  O         93.6880   28.6890    7.2360 O.2   225  ASP225     -0.2718
     49  CB        91.3560   30.1600    9.0950 C.3   225  ASP225      0.1424
     50  CG        92.5640   30.4830    9.9520 C.2   225  ASP225      0.3668
     51  OD1       93.6270   30.8200    9.3820 O.co2 225  ASP225     -0.2456
     52  OD2       92.4420   30.4250   11.1930 O.co2 225  ASP225     -0.2456
     53  N         91.8080   27.4630    7.5120 N.am  226  ILE226     -0.1980
     54  CA        92.4590   26.1520    7.4180 C.3   226  ILE226      0.1595
     55  C         92.2810   25.4480    6.0490 C.2   226  ILE226      0.2287
     56  O         92.5900   24.2660    5.9200 O.2   226  ILE226     -0.2864
     57  CB        92.0820   25.2690    8.6480 C.3   226  ILE226      0.0276
     58  CG1       90.5750   24.9050    8.6610 C.3   226  ILE226      0.0022
     59  CG2       92.5110   25.9500    9.9660 C.3   226  ILE226      0.0022
     60  CD1       90.1810   23.8260    9.6820 C.3   226  ILE226      0.0001
     61  N         93.9560   25.3660    3.1900 N.3   228  ASN228     -0.1225
     62  CA        95.0950   24.9920    2.3340 C.3   228  ASN228      0.1785
     63  C         94.9260   23.6800    1.5690 C.2   228  ASN228      0.2597
     64  O         95.1200   23.6690    0.3570 O.2   228  ASN228     -0.2718
     65  CB        96.4210   25.0230    3.0910 C.3   228  ASN228      0.1169
     66  CG        96.9260   26.4060    3.4270 C.2   228  ASN228      0.2627
     67  OD1       96.6140   27.4090    2.7670 O.2   228  ASN228     -0.2716
     68  ND2       97.7170   26.4860    4.4840 N.am  228  ASN228     -0.0877
     69  N         94.4750   22.6100    2.2550 N.am  229  GLU229     -0.1979
     70  CA        94.2580   21.2830    1.6680 C.3   229  GLU229      0.1602
     71  C         93.1420   21.1770    0.6090 C.2   229  GLU229      0.2287
     72  O         93.0480   20.1610   -0.0810 O.2   229  GLU229     -0.2864
     73  CB        94.1390   20.2070    2.7630 C.3   229  GLU229      0.0415
     74  CG        95.4610   19.8740    3.4490 C.3   229  GLU229      0.1163
     75  CD        96.6110   19.4050    2.5700 C.2   229  GLU229      0.3649
     76  OE1       97.7780   19.6940    2.9180 O.co2 229  GLU229     -0.2457
     77  OE2       96.3510   18.7640    1.5280 O.co2 229  GLU229     -0.2457
     78  N        102.4120   22.7400    4.1610 N.3   240  VAL240     -0.1245
     79  CA       102.6490   21.7250    5.2060 C.3   240  VAL240      0.1561
     80  C        104.0600   21.8900    5.8030 C.2   240  VAL240      0.2260
     81  O        104.2060   21.9240    7.0260 O.2   240  VAL240     -0.2867
     82  CB       102.3840   20.2730    4.7020 C.3   240  VAL240      0.0252
     83  CG1      102.6400   19.2380    5.7990 C.3   240  VAL240      0.0019
     84  CG2      100.9680   20.1250    4.1480 C.3   240  VAL240      0.0019
     85  N        104.3140   25.1280    7.8700 N.3   243  LEU243     -0.1231
     86  CA       103.7020   24.9610    9.1800 C.3   243  LEU243      0.1693
     87  C        104.5360   24.0940   10.1130 C.2   243  LEU243      0.2591
     88  O        104.6330   24.4130   11.2990 O.2   243  LEU243     -0.2718
     89  CB       102.2710   24.4320    9.0540 C.3   243  LEU243      0.0284
     90  CG       101.3960   24.5220   10.3030 C.3   243  LEU243      0.0019
     91  CD1      101.4330   25.9160   10.9490 C.3   243  LEU243      0.0001
     92  CD2      100.0250   24.1780    9.9650 C.3   243  LEU243      0.0001
     93  N        105.1570   23.0170    9.5830 N.am  244  LEU244     -0.1980
     94  CA       106.0230   22.1500   10.3880 C.3   244  LEU244      0.1596
     95  C        107.2420   22.9360   10.8630 C.2   244  LEU244      0.2287
     96  O        107.6260   22.8080   12.0250 O.2   244  LEU244     -0.2864
     97  CB       106.4450   20.8750    9.6360 C.3   244  LEU244      0.0297
     98  CG       105.3610   19.8180    9.3700 C.3   244  LEU244      0.0022
     99  CD1      105.9420   18.6380    8.6280 C.3   244  LEU244      0.0001
    100  CD2      104.6800   19.3410   10.6630 C.3   244  LEU244      0.0001
    101  N        106.0680   24.9060   13.8090 N.3   247  TYR247     -0.1241
    102  CA       105.8150   23.9550   14.8940 C.3   247  TYR247      0.1605
    103  C        107.1350   23.5330   15.5400 C.2   247  TYR247      0.2264
    104  O        107.2210   23.4670   16.7690 O.2   247  TYR247     -0.2867
    105  CB       105.1160   22.6930   14.3440 C.3   247  TYR247      0.0534
    106  CG       103.6170   22.7710   14.1260 C.ar  247  TYR247     -0.0201
    107  CD1      102.9170   23.9570   14.3370 C.ar  247  TYR247     -0.0009
    108  CD2      102.8980   21.6560   13.7030 C.ar  247  TYR247     -0.0009
    109  CE1      101.5370   24.0280   14.1390 C.ar  247  TYR247      0.0417
    110  CE2      101.5240   21.7180   13.4910 C.ar  247  TYR247      0.0417
    111  CZ       100.8450   22.9050   13.7100 C.ar  247  TYR247      0.1957
    112  OH        99.4880   22.9530   13.5040 O.3   247  TYR247     -0.2866
    113  N        102.2930   16.6800   18.1130 N.3   264  PHE264     -0.1241
    114  CA       102.1540   17.0450   16.6970 C.3   264  PHE264      0.1605
    115  C        103.1750   18.1010   16.2320 C.2   264  PHE264      0.2264
    116  O        103.2500   18.3980   15.0370 O.2   264  PHE264     -0.2867
    117  CB       100.7130   17.4600   16.3600 C.3   264  PHE264      0.0534
    118  CG       100.2250   18.7330   17.0080 C.ar  264  PHE264     -0.0203
    119  CD1      100.4450   19.9680   16.4070 C.ar  264  PHE264     -0.0042
    120  CD2       99.5020   18.6950   18.1920 C.ar  264  PHE264     -0.0042
    121  CE1       99.9710   21.1430   16.9910 C.ar  264  PHE264     -0.0003
    122  CE2       99.0260   19.8710   18.7760 C.ar  264  PHE264     -0.0003
    123  CZ        99.2680   21.0870   18.1740 C.ar  264  PHE264     -0.0000
    124  N        100.6080   14.1790   10.1320 N.3   275  ALA275     -0.1231
    125  CA       100.1920   15.5340   10.4850 C.3   275  ALA275      0.1694
    126  C         98.8900   15.9140    9.7850 C.2   275  ALA275      0.2591
    127  O         98.0340   16.5560   10.4020 O.2   275  ALA275     -0.2718
    128  CB       101.2800   16.5260   10.0990 C.3   275  ALA275      0.0304
    129  N         98.7360   15.4950    8.5090 N.am  276  GLN276     -0.1979
    130  CA        97.5900   15.8220    7.6580 C.3   276  GLN276      0.1601
    131  C         96.3910   14.9020    7.7480 C.2   276  GLN276      0.2287
    132  O         95.2730   15.4100    7.7700 O.2   276  GLN276     -0.2864
    133  CB        98.0100   16.0110    6.1880 C.3   276  GLN276      0.0394
    134  CG        99.0600   17.0920    5.9220 C.3   276  GLN276      0.0908
    135  CD        98.6540   18.4450    6.4360 C.2   276  GLN276      0.2608
    136  OE1       97.8580   19.1680    5.8310 O.2   276  GLN276     -0.2717
    137  NE2       99.2030   18.8140    7.5700 N.am  276  GLN276     -0.0878
    138  N         93.9340   15.6070   10.6700 N.3   279  PHE279     -0.1241
    139  CA        93.4150   16.9600   10.4680 C.3   279  PHE279      0.1605
    140  C         92.4000   17.0590    9.3280 C.2   279  PHE279      0.2264
    141  O         91.3930   17.7490    9.4800 O.2   279  PHE279     -0.2867
    142  CB        94.5610   17.9680   10.2860 C.3   279  PHE279      0.0534
    143  CG        94.1160   19.4100   10.3470 C.ar  279  PHE279     -0.0203
    144  CD1       93.7430   19.9900   11.5560 C.ar  279  PHE279     -0.0042
    145  CD2       94.0660   20.1880    9.1970 C.ar  279  PHE279     -0.0042
    146  CE1       93.3570   21.3320   11.6170 C.ar  279  PHE279     -0.0003
    147  CE2       93.6520   21.5220    9.2560 C.ar  279  PHE279     -0.0003
    148  CZ        93.3110   22.0880   10.4650 C.ar  279  PHE279     -0.0000
    149  N         88.8530   17.1920   11.1600 N.3   283  VAL283     -0.1245
    150  CA        88.6430   18.6370   11.2650 C.3   283  VAL283      0.1561
    151  C         88.1120   19.2260    9.9480 C.2   283  VAL283      0.2260
    152  O         87.0250   19.8030    9.9460 O.2   283  VAL283     -0.2867
    153  CB        89.8760   19.4200   11.8200 C.3   283  VAL283      0.0252
    154  CG1       89.5760   20.9100   11.9380 C.3   283  VAL283      0.0019
    155  CG2       90.3440   18.8660   13.1630 C.3   283  VAL283      0.0019
@<TRIPOS>BOND
     1    72    71    2
     2    64    63    2
     3    71    70    1
     4    77    75   ar
     5    63    69   am
     6    63    62    1
     7    70    69    1
     8    70    73    1
     9    62    65    1
    10    62    61    1
    11    75    76   ar
    12    75    74    1
    13    73    74    1
    14    67    66    2
    15    65    66    1
    16    66    68   am
    17    84    82    1
    18    78    79    1
    19    82    79    1
    20    82    83    1
    21    79    80    1
    22    80    81    2
    23   136   135    2
    24    56    55    2
    25   134   133    1
    26   134   135    1
    27    55    54    1
    28   133   130    1
    29   135   137   am
    30    45    46    1
    31     9     7   ar
    32     9    11   ar
    33     4     3    2
    34    48    47    2
    35     7     6   ar
    36    54    53    1
    37    54    57    1
    38    47    53   am
    39    47    46    1
    40    11    10   ar
    41    46    49    1
    42   130   131    1
    43   130   129    1
    44   131   132    2
    45    85    86    1
    46     2     3    1
    47     2     1    1
    48     2     5    1
    49     3    12   am
    50     6     5    1
    51     6     8   ar
    52   129   126   am
    53    10     8   ar
    54    99    98    1
    55    57    58    1
    56    57    59    1
    57    58    60    1
    58    89    86    1
    59    89    90    1
    60    49    50    1
    61    86    87    1
    62   145   147   ar
    63   145   143   ar
    64    14    13    1
    65    14    15    2
    66   147   148   ar
    67   140   141    2
    68   140   139    1
    69    12    13    1
    70    98    97    1
    71    98   100    1
    72    51    50   ar
    73    93    87   am
    74    93    94    1
    75    97    94    1
    76    13    16    1
    77   126   127    2
    78   126   125    1
    79   152   151    2
    80   151   150    1
    81    50    52   ar
    82    92    90    1
    83   128   125    1
    84    87    88    2
    85   124   125    1
    86   142   143    1
    87   142   139    1
    88    90    91    1
    89   143   144   ar
    90    94    95    1
    91   148   146   ar
    92   139   138    1
    93    95    96    2
    94   149   150    1
    95    16    17    1
    96   150   153    1
    97    19    17   ar
    98    19    21   ar
    99   144   146   ar
   100    17    18   ar
   101   153   154    1
   102   153   155    1
   103    21    20   ar
   104    18    20   ar
   105    36    34    1
   106   110   108   ar
   107   110   111   ar
   108   112   111    1
   109    34    35    1
   110    34    31    1
   111   108   106   ar
   112   111   109   ar
   113   101   102    1
   114   106   107   ar
   115   106   105    1
   116   109   107   ar
   117    43    44    1
   118    43    42    1
   119   105   102    1
   120    31    30    1
   121    31    32    1
   122   102   103    1
   123    33    32    2
   124   116   115    2
   125    42    41    1
   126   103   104    2
   127   115   114    1
   128   117   114    1
   129   117   118    1
   130   119   121   ar
   131   119   118   ar
   132    41    38    1
   133   114   113    1
   134   121   123   ar
   135   118   120   ar
   136    38    37    1
   137    38    39    1
   138   123   122   ar
   139   120   122   ar
   140    40    39    2
   141    26    23    1
   142    26    27    1
   143    22    23    1
   144    23    24    1
   145    29    27   am
   146    27    28    2
   147    24    25    2
