@<TRIPOS>MOLECULE
tmp/4g2lA00.pdb
 151 144 0 0 0
SMALL
GASTEIGER

@<TRIPOS>ATOM
      1  N         86.6380   57.8590   43.6020 N.3    74  PHE74      -0.1227
      2  CA        85.9890   56.6610   44.0940 C.3    74  PHE74       0.1736
      3  C         86.8460   55.4220   43.8710 C.2    74  PHE74       0.2595
      4  O         87.0330   54.6290   44.7850 O.2    74  PHE74      -0.2718
      5  CB        84.6490   56.4980   43.3950 C.3    74  PHE74       0.0547
      6  CG        83.8630   55.3090   43.8430 C.ar   74  PHE74      -0.0202
      7  CD1       82.8420   55.4450   44.7600 C.ar   74  PHE74      -0.0042
      8  CD2       84.1220   54.0610   43.3310 C.ar   74  PHE74      -0.0042
      9  CE1       82.1150   54.3370   45.1610 C.ar   74  PHE74      -0.0003
     10  CE2       83.4000   52.9640   43.7360 C.ar   74  PHE74      -0.0003
     11  CZ        82.3980   53.0980   44.6360 C.ar   74  PHE74      -0.0000
     12  N         87.3420   55.2540   42.6450 N.am   75  HIS75      -0.1975
     13  CA        88.0660   54.0530   42.2450 C.3    75  HIS75       0.1656
     14  C         89.5030   54.1700   42.6070 C.2    75  HIS75       0.2291
     15  O         90.3860   54.2990   41.7530 O.2    75  HIS75      -0.2864
     16  CB        87.9140   53.8290   40.7610 C.3    75  HIS75       0.0771
     17  CG        86.6140   53.2070   40.4110 C.ar   75  HIS75       0.0820
     18  ND1       85.5660   53.9300   39.8930 N.ar   75  HIS75      -0.2267
     19  CD2       86.1720   51.9330   40.5700 C.ar   75  HIS75       0.1154
     20  CE1       84.5410   53.1090   39.7160 C.ar   75  HIS75       0.1986
     21  NE2       84.8810   51.8920   40.1190 N.ar   75  HIS75      -0.2212
     22  N         83.5250   41.2300   37.8370 N.3   186  THR186     -0.1218
     23  CA        83.1250   42.4980   38.4570 C.3   186  THR186      0.1862
     24  C         82.6140   43.5040   37.4190 C.2   186  THR186      0.2287
     25  O         82.0620   44.5090   37.7910 O.2   186  THR186     -0.2866
     26  CB        84.2210   43.1390   39.3120 C.3   186  THR186      0.1770
     27  OG1       85.3650   43.3540   38.5150 O.3   186  THR186     -0.2211
     28  CG2       84.6120   42.2510   40.3980 C.3   186  THR186      0.0375
     29  N         80.0320   45.1160   35.3770 N.3   188  MET188     -0.1245
     30  CA        78.6070   45.1740   35.6260 C.3   188  MET188      0.1570
     31  C         77.8470   44.9370   34.3790 C.2   188  MET188      0.2261
     32  O         76.6750   44.6720   34.4470 O.2   188  MET188     -0.2867
     33  CB        78.2030   46.4970   36.2190 C.3   188  MET188      0.0387
     34  CG        78.4580   46.5970   37.7310 C.3   188  MET188      0.0595
     35  SD        77.2240   45.6810   38.6620 S.3   188  MET188     -0.1393
     36  CE        75.7120   46.5930   38.4620 C.3   188  MET188      0.0692
     37  N         82.0930   44.2740   46.0340 N.3   225  ASP225     -0.1225
     38  CA        82.4490   45.3850   45.1680 C.3   225  ASP225      0.1805
     39  C         81.4210   46.5310   45.1730 C.2   225  ASP225      0.2597
     40  O         81.8080   47.6780   45.0660 O.2   225  ASP225     -0.2718
     41  CB        82.6350   44.8340   43.7600 C.3   225  ASP225      0.1424
     42  CG        83.1290   45.8570   42.7580 C.2   225  ASP225      0.3668
     43  OD1       83.8060   46.8240   43.1500 O.co2 225  ASP225     -0.2456
     44  OD2       82.8450   45.6170   41.5540 O.co2 225  ASP225     -0.2456
     45  N         80.1300   46.2360   45.2830 N.am  226  ILE226     -0.1980
     46  CA        79.1000   47.2780   45.2310 C.3   226  ILE226      0.1595
     47  C         78.3970   47.3480   46.5950 C.2   226  ILE226      0.2287
     48  O         77.2510   47.7690   46.7170 O.2   226  ILE226     -0.2864
     49  CB        78.0910   46.9960   44.0650 C.3   226  ILE226      0.0276
     50  CG1       77.3340   45.6670   44.2970 C.3   226  ILE226      0.0022
     51  CG2       78.8280   46.9350   42.7250 C.3   226  ILE226      0.0022
     52  CD1       76.0310   45.4940   43.5180 C.3   226  ILE226      0.0001
     53  N         78.7790   49.1650   49.3330 N.3   228  ASN228     -0.1225
     54  CA        78.9590   50.3010   50.2500 C.3   228  ASN228      0.1785
     55  C         77.6920   50.5210   51.0670 C.2   228  ASN228      0.2597
     56  O         77.7660   50.6920   52.2730 O.2   228  ASN228     -0.2718
     57  CB        79.3240   51.6480   49.5750 C.3   228  ASN228      0.1169
     58  CG        80.6470   51.6320   48.7860 C.2   228  ASN228      0.2627
     59  OD1       81.7700   51.3430   49.2850 O.2   228  ASN228     -0.2716
     60  ND2       80.5140   52.0320   47.5480 N.am  228  ASN228     -0.0877
     61  N         76.5270   50.4950   50.4200 N.am  229  GLU229     -0.1979
     62  CA        75.2730   50.8100   51.1350 C.3   229  GLU229      0.1602
     63  C         74.8300   49.8110   52.2270 C.2   229  GLU229      0.2287
     64  O         73.9120   50.1190   52.9960 O.2   229  GLU229     -0.2864
     65  CB        74.1410   51.1070   50.1410 C.3   229  GLU229      0.0415
     66  CG        74.3670   52.3960   49.2700 C.3   229  GLU229      0.1163
     67  CD        74.1770   53.6770   50.0260 C.2   229  GLU229      0.3649
     68  OE1       74.9200   54.6520   49.8020 O.co2 229  GLU229     -0.2457
     69  OE2       73.3110   53.6620   50.8860 O.co2 229  GLU229     -0.2457
     70  N         78.8390   57.8120   47.9040 N.3   240  VAL240     -0.1245
     71  CA        77.9420   58.1010   46.8080 C.3   240  VAL240      0.1561
     72  C         78.3320   59.4500   46.1850 C.2   240  VAL240      0.2260
     73  O         78.2910   59.6110   44.9710 O.2   240  VAL240     -0.2867
     74  CB        76.4960   57.9920   47.2760 C.3   240  VAL240      0.0252
     75  CG1       75.5640   58.0490   46.1000 C.3   240  VAL240      0.0019
     76  CG2       76.3300   56.6820   48.0380 C.3   240  VAL240      0.0019
     77  N         81.3210   58.7990   43.9740 N.3   243  LEU243     -0.1231
     78  CA        81.0540   58.0610   42.7520 C.3   243  LEU243      0.1693
     79  C         80.4070   59.0940   41.8100 C.2   243  LEU243      0.2591
     80  O         80.8040   59.1930   40.6570 O.2   243  LEU243     -0.2718
     81  CB        80.2190   56.7660   43.0010 C.3   243  LEU243      0.0284
     82  CG        79.7250   56.0080   41.7480 C.3   243  LEU243      0.0019
     83  CD1       80.8810   55.4420   40.9650 C.3   243  LEU243      0.0001
     84  CD2       78.6530   54.9800   42.0730 C.3   243  LEU243      0.0001
     85  N         79.4860   59.9120   42.3150 N.am  244  LEU244     -0.1980
     86  CA        78.9090   60.9370   41.4610 C.3   244  LEU244      0.1596
     87  C         79.9720   61.9110   40.9230 C.2   244  LEU244      0.2287
     88  O         79.8480   62.4010   39.8040 O.2   244  LEU244     -0.2864
     89  CB        77.7360   61.6590   42.1210 C.3   244  LEU244      0.0297
     90  CG        76.5000   60.8010   42.3740 C.3   244  LEU244      0.0022
     91  CD1       75.3970   61.6500   42.8470 C.3   244  LEU244      0.0001
     92  CD2       76.0690   59.9930   41.1460 C.3   244  LEU244      0.0001
     93  N         81.4370   60.0470   38.0600 N.3   247  TYR247     -0.1241
     94  CA        80.3830   59.9930   37.0560 C.3   247  TYR247      0.1605
     95  C         80.2380   61.3430   36.3030 C.2   247  TYR247      0.2264
     96  O         80.0410   61.3430   35.0820 O.2   247  TYR247     -0.2867
     97  CB        79.0720   59.5870   37.7090 C.3   247  TYR247      0.0534
     98  CG        78.8280   58.1190   37.9070 C.ar  247  TYR247     -0.0201
     99  CD1       79.8510   57.1690   37.9170 C.ar  247  TYR247     -0.0009
    100  CD2       77.5460   57.6830   38.1460 C.ar  247  TYR247     -0.0009
    101  CE1       79.5690   55.8080   38.1330 C.ar  247  TYR247      0.0417
    102  CE2       77.2540   56.3460   38.3660 C.ar  247  TYR247      0.0417
    103  CZ        78.2470   55.4070   38.3440 C.ar  247  TYR247      0.1957
    104  OH        77.8350   54.0880   38.5180 O.3   247  TYR247     -0.2866
    105  N         71.9490   58.2030   33.7750 N.3   264  PHE264     -0.1241
    106  CA        72.3090   57.9070   35.1490 C.3   264  PHE264      0.1605
    107  C         73.5910   58.6100   35.6290 C.2   264  PHE264      0.2264
    108  O         73.7800   58.7190   36.8330 O.2   264  PHE264     -0.2867
    109  CB        72.3470   56.4020   35.4140 C.3   264  PHE264      0.0534
    110  CG        73.6280   55.7010   34.9370 C.ar  264  PHE264     -0.0203
    111  CD1       74.8100   55.7850   35.6530 C.ar  264  PHE264     -0.0042
    112  CD2       73.6290   54.9050   33.7860 C.ar  264  PHE264     -0.0042
    113  CE1       75.9680   55.1110   35.2130 C.ar  264  PHE264     -0.0003
    114  CE2       74.7890   54.2360   33.3480 C.ar  264  PHE264     -0.0003
    115  CZ        75.9460   54.3480   34.0580 C.ar  264  PHE264     -0.0000
    116  N         70.4340   62.7960   37.2650 N.3   270  VAL270     -0.1245
    117  CA        70.6950   62.0050   38.4890 C.3   270  VAL270      0.1561
    118  C         70.6090   63.0170   39.6510 C.2   270  VAL270      0.2260
    119  O         71.0270   64.1790   39.4760 O.2   270  VAL270     -0.2867
    120  CB        72.1390   61.2730   38.4910 C.3   270  VAL270      0.0252
    121  CG1       73.1860   62.0180   39.3640 C.3   270  VAL270      0.0019
    122  CG2       72.0490   59.7720   38.9600 C.3   270  VAL270      0.0019
    123  N         69.4300   58.0620   42.3390 N.3   275  ALA275     -0.1231
    124  CA        70.5150   57.1310   41.9800 C.3   275  ALA275      0.1694
    125  C         70.4630   55.8550   42.8710 C.2   275  ALA275      0.2591
    126  O         70.4170   54.7150   42.3690 O.2   275  ALA275     -0.2718
    127  CB        71.8820   57.8110   42.0550 C.3   275  ALA275      0.0304
    128  N         70.4280   56.0430   44.1870 N.am  276  GLN276     -0.1979
    129  CA        70.5680   54.9210   45.1030 C.3   276  GLN276      0.1601
    130  C         69.2850   54.1380   45.3290 C.2   276  GLN276      0.2287
    131  O         69.3430   52.9210   45.5450 O.2   276  GLN276     -0.2864
    132  CB        71.0760   55.3860   46.4520 C.3   276  GLN276      0.0394
    133  CG        72.3970   56.0690   46.4100 C.3   276  GLN276      0.0908
    134  CD        73.4720   55.1990   45.8570 C.2   276  GLN276      0.2608
    135  OE1       73.5980   55.0830   44.6490 O.2   276  GLN276     -0.2717
    136  NE2       74.2590   54.5740   46.7280 N.am  276  GLN276     -0.0878
    137  N         67.0680   53.1460   43.2110 N.3   278  GLY278     -0.1210
    138  CA        66.9890   52.1220   42.1800 C.3   278  GLY278      0.1956
    139  C         68.0730   51.0750   42.3040 C.2   278  GLY278      0.2611
    140  O         67.8110   49.8590   42.1900 O.2   278  GLY278     -0.2717
    141  N         69.3010   51.5220   42.5270 N.am  279  PHE279     -0.1976
    142  CA        70.4020   50.5740   42.7140 C.3   279  PHE279      0.1639
    143  C         70.1430   49.6250   43.8610 C.2   279  PHE279      0.2290
    144  O         70.4400   48.4480   43.7550 O.2   279  PHE279     -0.2864
    145  CB        71.6570   51.3390   43.0290 C.3   279  PHE279      0.0560
    146  CG        72.9210   50.5670   42.8660 C.ar  279  PHE279     -0.0200
    147  CD1       73.2840   50.0590   41.6420 C.ar  279  PHE279     -0.0042
    148  CD2       73.8110   50.4510   43.9150 C.ar  279  PHE279     -0.0042
    149  CE1       74.5020   49.4140   41.4810 C.ar  279  PHE279     -0.0003
    150  CE2       75.0270   49.7900   43.7620 C.ar  279  PHE279     -0.0003
    151  CZ        75.3720   49.2820   42.5580 C.ar  279  PHE279     -0.0000
@<TRIPOS>BOND
     1   114   112   ar
     2   114   115   ar
     3   105   106    1
     4   112   110   ar
     5   115   113   ar
     6    31    32    2
     7    31    30    1
     8   110   109    1
     9   110   111   ar
    10    96    95    2
    11   106   109    1
    12   106   107    1
    13   113   111   ar
    14    29    30    1
    15    30    33    1
    16   107   108    2
    17    33    34    1
    18    95    94    1
    19    94    97    1
    20    94    93    1
    21   116   117    1
    22    24    25    2
    23    24    23    1
    24    97    98    1
    25    34    35    1
    26    22    23    1
    27    98    99   ar
    28    98   100   ar
    29    99   101   ar
    30   101   103   ar
    31   100   102   ar
    32   103   102   ar
    33   103   104    1
    34    23    26    1
    35    36    35    1
    36   117   120    1
    37   117   118    1
    38   120   122    1
    39   120   121    1
    40    27    26    1
    41    26    28    1
    42   119   118    2
    43    20    18   ar
    44    20    21   ar
    45    88    87    2
    46    18    17   ar
    47    21    19   ar
    48    17    19   ar
    49    17    16    1
    50    80    79    2
    51    16    13    1
    52    87    86    1
    53    83    82    1
    54    92    90    1
    55    86    89    1
    56    86    85    1
    57   149   147   ar
    58   149   151   ar
    59    44    42   ar
    60   147   146   ar
    61    82    84    1
    62    82    81    1
    63    15    14    2
    64    79    85   am
    65    79    78    1
    66   124   127    1
    67   124   123    1
    68   124   125    1
    69    89    90    1
    70   138   139    1
    71   138   137    1
    72   140   139    2
    73    13    14    1
    74    13    12    1
    75   139   141   am
    76   126   125    2
    77    90    91    1
    78   141   142    1
    79   151   150   ar
    80    12     3   am
    81   142   145    1
    82   142   143    1
    83    51    49    1
    84    78    81    1
    85    78    77    1
    86    42    43   ar
    87    42    41    1
    88   146   145    1
    89   146   148   ar
    90   125   128   am
    91     8    10   ar
    92     8     6   ar
    93     5     6    1
    94     5     2    1
    95    52    50    1
    96     1     2    1
    97    10    11   ar
    98   144   143    2
    99    41    38    1
   100   150   148   ar
   101     6     7   ar
   102     3     2    1
   103     3     4    2
   104    49    50    1
   105    49    46    1
   106   128   129    1
   107    11     9   ar
   108   135   134    2
   109     7     9   ar
   110    73    72    2
   111    40    39    2
   112   129   130    1
   113   129   132    1
   114    38    39    1
   115    38    37    1
   116    39    45   am
   117    46    45    1
   118    46    47    1
   119   130   131    2
   120   134   133    1
   121   134   136   am
   122    75    74    1
   123    72    71    1
   124   133   132    1
   125    47    48    2
   126    71    74    1
   127    71    70    1
   128    74    76    1
   129    60    58   am
   130    58    59    2
   131    58    57    1
   132    66    67    1
   133    66    65    1
   134    53    54    1
   135    57    54    1
   136    68    67   ar
   137    67    69   ar
   138    65    62    1
   139    54    55    1
   140    61    55   am
   141    61    62    1
   142    55    56    2
   143    62    63    1
   144    63    64    2
