@<TRIPOS>MOLECULE
tmp/4g2rB03.pdb
 122 114 0 0 0
SMALL
GASTEIGER

@<TRIPOS>ATOM
      1  N        -45.9710  -36.9920   24.0790 N.3   118  VAL118     -0.1245
      2  CA       -44.8960  -37.3280   23.1440 C.3   118  VAL118      0.1561
      3  C        -45.0960  -38.7450   22.6070 C.2   118  VAL118      0.2260
      4  O        -45.0140  -39.7200   23.3640 O.2   118  VAL118     -0.2867
      5  CB       -43.5190  -37.2320   23.8200 C.3   118  VAL118      0.0252
      6  CG1      -42.4040  -37.4640   22.8070 C.3   118  VAL118      0.0019
      7  CG2      -43.3510  -35.8720   24.4750 C.3   118  VAL118      0.0019
      8  N        -38.7190  -36.9040   19.1190 N.3   122  ALA122     -0.1245
      9  CA       -38.7330  -35.4930   19.5210 C.3   122  ALA122      0.1562
     10  C        -37.3100  -34.9650   19.6250 C.2   122  ALA122      0.2260
     11  O        -36.4880  -35.5150   20.3590 O.2   122  ALA122     -0.2867
     12  CB       -39.4480  -35.3100   20.8620 C.3   122  ALA122      0.0290
     13  N        -38.5920  -31.3890   21.5220 N.3   127  ALA127     -0.1231
     14  CA       -38.3750  -32.0460   22.8090 C.3   127  ALA127      0.1694
     15  C        -38.5960  -31.0170   23.9000 C.2   127  ALA127      0.2592
     16  O        -39.1850  -31.2970   24.9580 O.2   127  ALA127     -0.2718
     17  CB       -36.9710  -32.6140   22.9030 C.3   127  ALA127      0.0304
     18  N        -38.1320  -29.8070   23.6290 N.am  128  TYR128     -0.1976
     19  CA       -38.1640  -28.7660   24.6380 C.3   128  TYR128      0.1639
     20  C        -39.5400  -28.1840   24.9590 C.2   128  TYR128      0.2290
     21  O        -39.8190  -27.8740   26.1130 O.2   128  TYR128     -0.2864
     22  CB       -37.2040  -27.6430   24.2660 C.3   128  TYR128      0.0560
     23  CG       -36.6300  -27.0420   25.5040 C.ar  128  TYR128     -0.0198
     24  CD1      -35.6970  -27.7430   26.2570 C.ar  128  TYR128     -0.0009
     25  CD2      -37.0490  -25.8050   25.9520 C.ar  128  TYR128     -0.0009
     26  CE1      -35.1770  -27.2200   27.4220 C.ar  128  TYR128      0.0417
     27  CE2      -36.5330  -25.2600   27.1160 C.ar  128  TYR128      0.0417
     28  CZ       -35.5960  -25.9740   27.8470 C.ar  128  TYR128      0.1957
     29  OH       -35.0800  -25.4460   29.0070 O.3   128  TYR128     -0.2866
     30  N        -42.5520  -29.5360   25.2520 N.3   130  PRO130     -0.2102
     31  CA       -43.1990  -30.2650   26.3540 C.3   130  PRO130      0.1504
     32  C        -42.6320  -29.9030   27.7240 C.2   130  PRO130      0.2575
     33  O        -43.3860  -29.8070   28.6970 O.2   130  PRO130     -0.2718
     34  CB       -42.9120  -31.7250   26.0120 C.3   130  PRO130      0.0282
     35  CG       -42.9940  -31.7310   24.4850 C.3   130  PRO130      0.0208
     36  CD       -42.3500  -30.4000   24.0660 C.3   130  PRO130      0.0893
     37  N        -41.3230  -29.6730   27.7940 N.am  131  ALA131     -0.1980
     38  CA       -40.6830  -29.2870   29.0560 C.3   131  ALA131      0.1597
     39  C        -41.2820  -28.0170   29.6420 C.2   131  ALA131      0.2287
     40  O        -41.1420  -27.7620   30.8370 O.2   131  ALA131     -0.2864
     41  CB       -39.1860  -29.1250   28.8740 C.3   131  ALA131      0.0319
     42  N        -46.2500  -34.1030   31.1960 N.3   136  VAL136     -0.1245
     43  CA       -45.7860  -34.7730   29.9840 C.3   136  VAL136      0.1561
     44  C        -46.0340  -36.2810   30.0660 C.2   136  VAL136      0.2260
     45  O        -45.5100  -36.9600   30.9590 O.2   136  VAL136     -0.2867
     46  CB       -44.2830  -34.5150   29.7610 C.3   136  VAL136      0.0252
     47  CG1      -43.7920  -35.2100   28.4920 C.3   136  VAL136      0.0019
     48  CG2      -43.9960  -33.0060   29.7090 C.3   136  VAL136      0.0019
     49  N        -45.4860  -39.8190   28.0280 N.3   138  MET138     -0.1245
     50  CA       -44.6260  -40.3480   26.9620 C.3   138  MET138      0.1570
     51  C        -45.0420  -41.7400   26.5050 C.2   138  MET138      0.2261
     52  O        -45.1600  -42.6460   27.3220 O.2   138  MET138     -0.2867
     53  CB       -43.1660  -40.3710   27.4140 C.3   138  MET138      0.0387
     54  CG       -42.4660  -39.0220   27.3230 C.3   138  MET138      0.0595
     55  SD       -40.6810  -39.1650   27.5690 S.3   138  MET138     -0.1393
     56  CE       -40.1420  -39.8230   25.9900 C.3   138  MET138      0.0692
     57  N        -36.4770  -39.3660   22.4980 N.3   144  VAL144     -0.1245
     58  CA       -35.9870  -37.9970   22.5550 C.3   144  VAL144      0.1561
     59  C        -34.4950  -37.8880   22.2160 C.2   144  VAL144      0.2260
     60  O        -33.6630  -38.6090   22.7730 O.2   144  VAL144     -0.2867
     61  CB       -36.2760  -37.3580   23.9140 C.3   144  VAL144      0.0252
     62  CG1      -35.6350  -35.9810   23.9970 C.3   144  VAL144      0.0019
     63  CG2      -37.7820  -37.2680   24.1290 C.3   144  VAL144      0.0019
     64  N        -31.4520  -35.2240   22.4320 N.3   146  VAL146     -0.1245
     65  CA       -30.9140  -33.9380   22.8980 C.3   146  VAL146      0.1561
     66  C        -29.3890  -33.8930   22.7210 C.2   146  VAL146      0.2260
     67  O        -28.6930  -34.8760   23.0120 O.2   146  VAL146     -0.2867
     68  CB       -31.2600  -33.6660   24.3840 C.3   146  VAL146      0.0252
     69  CG1      -30.7160  -32.3110   24.8200 C.3   146  VAL146      0.0019
     70  CG2      -32.7590  -33.7060   24.5970 C.3   146  VAL146      0.0019
     71  N        -27.6120  -37.4440   23.7710 N.3   152  SER152     -0.1217
     72  CA       -28.4620  -38.4790   24.3510 C.3   152  SER152      0.1889
     73  C        -29.6190  -38.8230   23.4240 C.2   152  SER152      0.2288
     74  O        -30.3170  -37.9300   22.9420 O.2   152  SER152     -0.2866
     75  CB       -29.0060  -38.0270   25.7070 C.3   152  SER152      0.2089
     76  OG       -29.9170  -38.9810   26.2200 O.3   152  SER152     -0.2183
     77  N        -35.8830  -46.1240   29.1780 N.3   158  THR158     -0.1203
     78  CA       -34.4280  -46.2140   29.3460 C.3   158  THR158      0.1994
     79  C        -33.7730  -44.9160   29.8400 C.2   158  THR158      0.2618
     80  O        -32.6930  -44.9420   30.4370 O.2   158  THR158     -0.2717
     81  CB       -33.7230  -46.7030   28.0390 C.3   158  THR158      0.1784
     82  OG1      -34.0370  -45.8280   26.9420 O.3   158  THR158     -0.2211
     83  CG2      -34.1470  -48.1340   27.6960 C.3   158  THR158      0.0376
     84  N        -34.4320  -43.7860   29.5970 N.am  159  HIS159     -0.1961
     85  CA       -33.8470  -42.4790   29.8980 C.3   159  HIS159      0.1787
     86  C        -34.7580  -41.5920   30.7570 C.2   159  HIS159      0.2620
     87  O        -34.4400  -41.2780   31.9020 O.2   159  HIS159     -0.2715
     88  CB       -33.5120  -41.7230   28.5990 C.3   159  HIS159      0.0785
     89  CG       -32.3640  -42.2970   27.8230 C.ar  159  HIS159      0.0821
     90  ND1      -32.3820  -43.5710   27.2930 N.ar  159  HIS159     -0.2267
     91  CD2      -31.1730  -41.7600   27.4670 C.ar  159  HIS159      0.1154
     92  CE1      -31.2470  -43.7980   26.6570 C.ar  159  HIS159      0.1986
     93  NE2      -30.4950  -42.7130   26.7460 N.ar  159  HIS159     -0.2212
     94  N        -35.9050  -41.2190   30.2000 N.am  160  HIS160     -0.1973
     95  CA       -36.6230  -40.0300   30.6510 C.3   160  HIS160      0.1656
     96  C        -37.5190  -40.1790   31.8790 C.2   160  HIS160      0.2291
     97  O        -37.6920  -39.2150   32.6270 O.2   160  HIS160     -0.2864
     98  CB       -37.3680  -39.4060   29.4690 C.3   160  HIS160      0.0771
     99  CG       -36.5440  -39.3690   28.2240 C.ar  160  HIS160      0.0820
    100  ND1      -36.7290  -40.2550   27.1790 N.ar  160  HIS160     -0.2267
    101  CD2      -35.4870  -38.5980   27.8770 C.ar  160  HIS160      0.1154
    102  CE1      -35.8390  -40.0110   26.2380 C.ar  160  HIS160      0.1986
    103  NE2      -35.0700  -39.0070   26.6370 N.ar  160  HIS160     -0.2212
    104  N        -35.5600  -39.0210   34.7640 N.3   163  SER163     -0.1217
    105  CA       -34.9680  -37.6740   34.7190 C.3   163  SER163      0.1889
    106  C        -35.9030  -36.5160   35.1050 C.2   163  SER163      0.2288
    107  O        -35.4920  -35.3400   35.0690 O.2   163  SER163     -0.2866
    108  CB       -34.4780  -37.3880   33.3210 C.3   163  SER163      0.2089
    109  OG       -35.5660  -36.9060   32.5450 O.3   163  SER163     -0.2183
    110  N        -38.4740  -35.0500   33.7210 N.3   165  VAL165     -0.1231
    111  CA       -39.1010  -34.2060   32.7110 C.3   165  VAL165      0.1692
    112  C        -40.3700  -34.9130   32.2580 C.2   165  VAL165      0.2592
    113  O        -41.4070  -34.2890   32.0110 O.2   165  VAL165     -0.2718
    114  CB       -38.1480  -33.9520   31.5190 C.3   165  VAL165      0.0266
    115  CG1      -38.7410  -32.9520   30.5420 C.3   165  VAL165      0.0020
    116  CG2      -36.8140  -33.4650   32.0250 C.3   165  VAL165      0.0020
    117  N        -40.2790  -36.2340   32.1690 N.am  166  CYS166     -0.1970
    118  CA       -41.4360  -37.0580   31.8630 C.3   166  CYS166      0.1712
    119  C        -42.2140  -37.3880   33.1430 C.2   166  CYS166      0.2296
    120  O        -41.6790  -37.9790   34.0760 O.2   166  CYS166     -0.2864
    121  CB       -40.9960  -38.3510   31.1670 C.3   166  CYS166      0.0983
    122  SG       -42.3300  -39.5330   30.9330 S.3   166  CYS166     -0.0798
@<TRIPOS>BOND
     1     8     9    1
     2     9    10    1
     3     9    12    1
     4    10    11    2
     5    13    14    1
     6    59    58    1
     7    59    60    2
     8    64    65    1
     9    57    58    1
    10    58    61    1
    11     3     2    1
    12     3     4    2
    13    66    65    1
    14    66    67    2
    15     6     5    1
    16    14    17    1
    17    14    15    1
    18    65    68    1
    19    74    73    2
    20     2     5    1
    21     2     1    1
    22    73    72    1
    23    18    15   am
    24    18    19    1
    25    71    72    1
    26     5     7    1
    27    15    16    2
    28    61    62    1
    29    61    63    1
    30    36    35    1
    31    36    30    1
    32    22    19    1
    33    22    23    1
    34    72    75    1
    35    68    70    1
    36    68    69    1
    37    35    34    1
    38    19    20    1
    39    20    21    2
    40    30    31    1
    41    23    25   ar
    42    23    24   ar
    43    75    76    1
    44    25    27   ar
    45    56    55    1
    46    34    31    1
    47   102   103   ar
    48   102   100   ar
    49    24    26   ar
    50    31    32    1
    51    51    50    1
    52    51    52    2
    53   103   101   ar
    54    92    93   ar
    55    92    90   ar
    56    93    91   ar
    57    82    81    1
    58    50    53    1
    59    50    49    1
    60    27    28   ar
    61   100    99   ar
    62    90    89   ar
    63    54    53    1
    64    54    55    1
    65    26    28   ar
    66    91    89   ar
    67    83    81    1
    68    32    37   am
    69    32    33    2
    70    37    38    1
    71    89    88    1
    72    28    29    1
    73   101    99   ar
    74    81    78    1
    75    99    98    1
    76    47    46    1
    77    88    85    1
    78    41    38    1
    79    38    39    1
    80    77    78    1
    81    78    79    1
    82    98    95    1
    83    84    79   am
    84    84    85    1
    85    39    40    2
    86    48    46    1
    87    46    43    1
    88    79    80    2
    89    85    86    1
    90    43    44    1
    91    43    42    1
    92    44    45    2
    93    94    95    1
    94    94    86   am
    95   115   114    1
    96    95    96    1
    97    86    87    2
    98   122   121    1
    99   121   118    1
   100   114   116    1
   101   114   111    1
   102   118   117    1
   103   118   119    1
   104    96    97    2
   105   113   112    2
   106   117   112   am
   107   112   111    1
   108   109   108    1
   109   111   110    1
   110   119   120    2
   111   108   105    1
   112   105   104    1
   113   105   106    1
   114   107   106    2
