@<TRIPOS>MOLECULE
tmp/4g2rB00.pdb
 114 107 0 0 0
SMALL
GASTEIGER

@<TRIPOS>ATOM
      1  N        -35.8310  -35.6620   52.5940 N.3   270  LEU270     -0.1245
      2  CA       -35.7840  -34.6650   51.5240 C.3   270  LEU270      0.1561
      3  C        -34.3500  -34.5460   50.9900 C.2   270  LEU270      0.2260
      4  O        -33.3700  -34.8400   51.6960 O.2   270  LEU270     -0.2867
      5  CB       -36.2870  -33.3100   52.0270 C.3   270  LEU270      0.0270
      6  CG       -37.8110  -33.2030   52.0530 C.3   270  LEU270      0.0019
      7  CD1      -38.2820  -31.9590   52.8260 C.3   270  LEU270      0.0001
      8  CD2      -38.3380  -33.1860   50.6170 C.3   270  LEU270      0.0001
      9  N        -37.0600  -32.2620   46.7840 N.3   275  ALA275     -0.1245
     10  CA       -37.5550  -30.9020   47.1010 C.3   275  ALA275      0.1562
     11  C        -38.0780  -30.2330   45.8270 C.2   275  ALA275      0.2260
     12  O        -39.1410  -29.5910   45.8140 O.2   275  ALA275     -0.2867
     13  CB       -36.4620  -30.0380   47.7590 C.3   275  ALA275      0.0290
     14  N        -32.9300  -34.1160   55.8500 N.3   301  TYR301     -0.1241
     15  CA       -32.6290  -33.8890   54.4330 C.3   301  TYR301      0.1605
     16  C        -31.1990  -34.3380   54.1140 C.2   301  TYR301      0.2264
     17  O        -30.3620  -34.4310   55.0090 O.2   301  TYR301     -0.2867
     18  CB       -32.8560  -32.4080   54.0590 C.3   301  TYR301      0.0534
     19  CG       -32.2670  -31.4790   55.0910 C.ar  301  TYR301     -0.0201
     20  CD1      -30.9360  -31.0790   55.0190 C.ar  301  TYR301     -0.0009
     21  CD2      -33.0290  -31.0380   56.1650 C.ar  301  TYR301     -0.0009
     22  CE1      -30.3850  -30.2490   55.9840 C.ar  301  TYR301      0.0417
     23  CE2      -32.4880  -30.2150   57.1380 C.ar  301  TYR301      0.0417
     24  CZ       -31.1650  -29.8220   57.0380 C.ar  301  TYR301      0.1957
     25  OH       -30.6210  -28.9980   57.9980 O.3   301  TYR301     -0.2866
     26  N        -24.1890  -29.6580   49.1130 N.3   309  TRP309     -0.1241
     27  CA       -25.3810  -29.1370   49.7880 C.3   309  TRP309      0.1605
     28  C        -26.1570  -28.0880   48.9820 C.2   309  TRP309      0.2264
     29  O        -27.3280  -27.8100   49.2770 O.2   309  TRP309     -0.2867
     30  CB       -25.0080  -28.5540   51.1540 C.3   309  TRP309      0.0550
     31  CG       -24.6420  -29.5980   52.1570 C.ar  309  TRP309      0.0003
     32  CD1      -23.3800  -30.0120   52.4900 C.ar  309  TRP309      0.0946
     33  CD2      -25.5440  -30.3750   52.9630 C.ar  309  TRP309      0.0152
     34  NE1      -23.4450  -30.9940   53.4510 N.ar  309  TRP309     -0.2442
     35  CE2      -24.7600  -31.2350   53.7590 C.ar  309  TRP309      0.0810
     36  CE3      -26.9380  -30.4270   53.0820 C.ar  309  TRP309      0.0012
     37  CZ2      -25.3240  -32.1380   54.6680 C.ar  309  TRP309      0.0191
     38  CZ3      -27.4960  -31.3260   53.9810 C.ar  309  TRP309      0.0001
     39  CH2      -26.6900  -32.1660   54.7640 C.ar  309  TRP309      0.0015
     40  N        -29.9370  -29.0300   47.5880 N.3   312  VAL312     -0.1231
     41  CA       -31.0230  -29.2120   48.5330 C.3   312  VAL312      0.1692
     42  C        -31.3370  -27.8820   49.2540 C.2   312  VAL312      0.2591
     43  O        -32.5060  -27.5930   49.5760 O.2   312  VAL312     -0.2718
     44  CB       -30.7250  -30.3860   49.5080 C.3   312  VAL312      0.0266
     45  CG1      -29.4690  -30.0860   50.3590 C.3   312  VAL312      0.0020
     46  CG2      -31.9380  -30.6700   50.3940 C.3   312  VAL312      0.0020
     47  N        -30.3100  -27.0570   49.4700 N.am  313  VAL313     -0.1980
     48  CA       -30.5310  -25.7320   50.0690 C.3   313  VAL313      0.1595
     49  C        -31.3990  -24.8340   49.1810 C.2   313  VAL313      0.2287
     50  O        -32.3460  -24.1780   49.6550 O.2   313  VAL313     -0.2864
     51  CB       -29.2120  -25.0180   50.4130 C.3   313  VAL313      0.0276
     52  CG1      -29.4670  -23.5560   50.7770 C.3   313  VAL313      0.0022
     53  CG2      -28.5150  -25.7310   51.5680 C.3   313  VAL313      0.0022
     54  N        -34.8670  -26.6910   48.3930 N.3   316  GLY316     -0.1225
     55  CA       -35.5910  -26.5850   49.6490 C.3   316  GLY316      0.1811
     56  C        -36.2800  -25.2370   49.7770 C.2   316  GLY316      0.2280
     57  O        -37.4300  -25.1550   50.2190 O.2   316  GLY316     -0.2866
     58  N        -39.2700  -25.1470   47.8700 N.3   319  LEU319     -0.1231
     59  CA       -40.3240  -25.9240   48.5100 C.3   319  LEU319      0.1693
     60  C        -40.9900  -25.0760   49.5880 C.2   319  LEU319      0.2591
     61  O        -42.2230  -24.9980   49.6510 O.2   319  LEU319     -0.2718
     62  CB       -39.7690  -27.2310   49.0930 C.3   319  LEU319      0.0284
     63  CG       -40.8380  -28.0880   49.7540 C.3   319  LEU319      0.0019
     64  CD1      -42.0610  -28.2040   48.8140 C.3   319  LEU319      0.0001
     65  CD2      -40.2710  -29.4640   50.1270 C.3   319  LEU319      0.0001
     66  N        -40.1760  -24.4240   50.4200 N.am  320  LEU320     -0.1980
     67  CA       -40.7030  -23.5000   51.4340 C.3   320  LEU320      0.1596
     68  C        -41.5600  -22.3810   50.8260 C.2   320  LEU320      0.2287
     69  O        -42.6860  -22.1290   51.2880 O.2   320  LEU320     -0.2864
     70  CB       -39.5690  -22.9010   52.2590 C.3   320  LEU320      0.0297
     71  CG       -38.9210  -23.7810   53.3320 C.3   320  LEU320      0.0022
     72  CD1      -37.6830  -23.0780   53.8570 C.3   320  LEU320      0.0001
     73  CD2      -39.8790  -23.9940   54.4710 C.3   320  LEU320      0.0001
     74  N        -37.2290  -31.1890   62.5880 N.3   340  GLY340     -0.1210
     75  CA       -36.4450  -30.0280   62.1750 C.3   340  GLY340      0.1956
     76  C        -36.8830  -29.2650   60.9320 C.2   340  GLY340      0.2612
     77  O        -38.0900  -29.1130   60.6610 O.2   340  GLY340     -0.2717
     78  N        -35.8940  -28.7810   60.1790 N.am  341  GLY341     -0.1942
     79  CA       -36.1370  -27.9690   58.9920 C.3   341  GLY341      0.2014
     80  C        -37.0180  -28.7130   58.0000 C.2   341  GLY341      0.2638
     81  O        -37.9390  -28.1290   57.4200 O.2   341  GLY341     -0.2714
     82  N        -36.7530  -30.0090   57.8320 N.am  342  ALA342     -0.1977
     83  CA       -37.5940  -30.8600   57.0030 C.3   342  ALA342      0.1597
     84  C        -39.0480  -30.7770   57.4800 C.2   342  ALA342      0.2287
     85  O        -39.9900  -30.6720   56.6710 O.2   342  ALA342     -0.2864
     86  CB       -37.0850  -32.3160   57.0230 C.3   342  ALA342      0.0319
     87  N        -40.4000  -28.3090   58.9280 N.3   344  ILE344     -0.1231
     88  CA       -40.9120  -27.0000   58.5450 C.3   344  ILE344      0.1692
     89  C        -41.3470  -27.0140   57.0790 C.2   344  ILE344      0.2591
     90  O        -42.4470  -26.5640   56.7610 O.2   344  ILE344     -0.2718
     91  CB       -39.8910  -25.8670   58.8010 C.3   344  ILE344      0.0266
     92  CG1      -39.5740  -25.7870   60.3010 C.3   344  ILE344      0.0019
     93  CG2      -40.4430  -24.5160   58.3110 C.3   344  ILE344      0.0020
     94  CD1      -38.4810  -24.7750   60.6450 C.3   344  ILE344      0.0001
     95  N        -40.5010  -27.5610   56.2030 N.am  345  ALA345     -0.1980
     96  CA       -40.7800  -27.5690   54.7700 C.3   345  ALA345      0.1597
     97  C        -42.0500  -28.3520   54.4290 C.2   345  ALA345      0.2287
     98  O        -42.7810  -27.9750   53.5110 O.2   345  ALA345     -0.2864
     99  CB       -39.5790  -28.1210   53.9760 C.3   345  ALA345      0.0319
    100  N        -37.6060  -31.1800   67.0400 N.3   366  VAL366     -0.1231
    101  CA       -36.5120  -30.5960   66.2690 C.3   366  VAL366      0.1692
    102  C        -35.5320  -31.6780   65.7980 C.2   366  VAL366      0.2591
    103  O        -34.9090  -31.5280   64.7470 O.2   366  VAL366     -0.2718
    104  CB       -35.8130  -29.3760   66.9370 C.3   366  VAL366      0.0266
    105  CG1      -36.5500  -28.9120   68.1740 C.3   366  VAL366      0.0020
    106  CG2      -34.3500  -29.6510   67.2020 C.3   366  VAL366      0.0020
    107  N        -35.4420  -32.7730   66.5580 N.am  367  MET367     -0.1979
    108  CA       -34.6290  -33.9360   66.1760 C.3   367  MET367      0.1605
    109  C        -34.9830  -35.1520   67.0430 C.2   367  MET367      0.2287
    110  O        -35.8250  -35.0470   67.9460 O.2   367  MET367     -0.2864
    111  CB       -33.1340  -33.6130   66.2750 C.3   367  MET367      0.0413
    112  CG       -32.7240  -33.1680   67.6550 C.3   367  MET367      0.0598
    113  SD       -30.9810  -32.6800   67.7200 S.3   367  MET367     -0.1393
    114  CE       -31.0400  -31.0140   67.0440 C.3   367  MET367      0.0692
@<TRIPOS>BOND
     1    12    11    2
     2    11    10    1
     3     9    10    1
     4    10    13    1
     5    40    41    1
     6    58    59    1
     7    54    55    1
     8    59    62    1
     9    59    60    1
    10    41    42    1
    11    41    44    1
    12    64    63    1
    13    28    29    2
    14    28    27    1
    15    62    63    1
    16    26    27    1
    17    49    50    2
    18    49    48    1
    19    42    47   am
    20    42    43    2
    21    47    48    1
    22    44    45    1
    23    44    46    1
    24    60    61    2
    25    60    66   am
    26    55    56    1
    27    63    65    1
    28    56    57    2
    29    27    30    1
    30    48    51    1
    31    51    52    1
    32    51    53    1
    33    66    67    1
    34     8     6    1
    35    68    69    2
    36    68    67    1
    37     3     2    1
    38     3     4    2
    39    30    31    1
    40    67    70    1
    41     2     5    1
    42     2     1    1
    43     5     6    1
    44     6     7    1
    45    31    32   ar
    46    31    33   ar
    47    70    71    1
    48    32    34   ar
    49    33    36   ar
    50    33    35   ar
    51    36    38   ar
    52    71    72    1
    53    71    73    1
    54    34    35   ar
    55    98    97    2
    56    35    37   ar
    57    99    96    1
    58    38    39   ar
    59    18    15    1
    60    18    19    1
    61    16    15    1
    62    16    17    2
    63    97    96    1
    64    15    14    1
    65    37    39   ar
    66    96    95    1
    67    20    19   ar
    68    20    22   ar
    69    19    21   ar
    70    22    24   ar
    71    21    23   ar
    72    95    89   am
    73    85    84    2
    74    90    89    2
    75    83    86    1
    76    83    84    1
    77    83    82    1
    78    24    23   ar
    79    24    25    1
    80    89    88    1
    81    81    80    2
    82    82    80   am
    83    80    79    1
    84    93    91    1
    85    88    91    1
    86    88    87    1
    87    91    92    1
    88    79    78    1
    89    78    76   am
    90    92    94    1
    91    77    76    2
    92    76    75    1
    93    75    74    1
    94   103   102    2
    95   102   101    1
    96   102   107   am
    97   108   111    1
    98   108   107    1
    99   108   109    1
   100   101   104    1
   101   101   100    1
   102   111   112    1
   103   104   106    1
   104   104   105    1
   105   109   110    2
   106   114   113    1
   107   112   113    1
