@<TRIPOS>MOLECULE
tmp/4g2tA00.pdb
 190 186 0 0 0
SMALL
GASTEIGER

@<TRIPOS>ATOM
      1  N          0.7210  -32.4020   -8.3430 N.3    10  SER10      -0.1202
      2  CA         0.5200  -33.7350   -7.7790 C.3    10  SER10       0.2020
      3  C         -0.9180  -34.1970   -7.9990 C.2    10  SER10       0.2619
      4  O         -1.8020  -33.3820   -8.2620 O.2    10  SER10      -0.2717
      5  CB         0.8990  -33.7820   -6.2960 C.3    10  SER10       0.2103
      6  OG         0.1000  -32.9030   -5.5300 O.3    10  SER10      -0.2182
      7  N         -1.1360  -35.5060   -7.8970 N.am   11  GLU11      -0.1965
      8  CA        -2.4170  -36.1250   -8.2460 C.3    11  GLU11       0.1733
      9  C         -3.6260  -35.4970   -7.5560 C.2    11  GLU11       0.2616
     10  O         -4.7050  -35.4090   -8.1420 O.2    11  GLU11      -0.2715
     11  CB        -2.3850  -37.6290   -7.9550 C.3    11  GLU11       0.0429
     12  CG        -1.3960  -38.4240   -8.7980 C.3    11  GLU11       0.1163
     13  CD         0.0020  -38.4440   -8.2080 C.2    11  GLU11       0.3649
     14  OE1        0.3110  -37.5810   -7.3590 O.co2  11  GLU11      -0.2457
     15  OE2        0.7940  -39.3310   -8.5900 O.co2  11  GLU11      -0.2457
     16  N         -3.4400  -35.0600   -6.3150 N.am   12  GLY12      -0.1955
     17  CA        -4.5230  -34.4900   -5.5340 C.3    12  GLY12       0.1869
     18  C         -5.0490  -33.1740   -6.0730 C.2    12  GLY12       0.2309
     19  O         -6.1620  -32.7630   -5.7450 O.2    12  GLY12      -0.2863
     20  N         -9.3670  -34.1510   -9.0820 N.3    15  PRO15      -0.2116
     21  CA       -10.7060  -33.5900   -8.8530 C.3    15  PRO15       0.1372
     22  C        -11.1810  -32.6140   -9.9340 C.2    15  PRO15       0.2244
     23  O        -12.3300  -32.1750   -9.8830 O.2    15  PRO15      -0.2868
     24  CB       -10.5570  -32.8650   -7.5100 C.3    15  PRO15       0.0268
     25  CG        -9.1030  -32.5800   -7.3930 C.3    15  PRO15       0.0207
     26  CD        -8.4230  -33.7490   -8.0220 C.3    15  PRO15       0.0892
     27  N        -19.8850  -33.6930   -5.5910 N.3   181  TYR181     -0.1241
     28  CA       -18.5340  -34.1930   -5.8000 C.3   181  TYR181      0.1605
     29  C        -18.5490  -35.5810   -6.4290 C.2   181  TYR181      0.2264
     30  O        -18.7470  -36.5830   -5.7420 O.2   181  TYR181     -0.2867
     31  CB       -17.7530  -34.2230   -4.4850 C.3   181  TYR181      0.0534
     32  CG       -16.2900  -34.5690   -4.6570 C.ar  181  TYR181     -0.0201
     33  CD1      -15.3560  -33.5860   -4.9560 C.ar  181  TYR181     -0.0009
     34  CD2      -15.8440  -35.8790   -4.5230 C.ar  181  TYR181     -0.0009
     35  CE1      -14.0180  -33.8960   -5.1170 C.ar  181  TYR181      0.0417
     36  CE2      -14.5080  -36.1980   -4.6820 C.ar  181  TYR181      0.0417
     37  CZ       -13.6000  -35.2030   -4.9780 C.ar  181  TYR181      0.1957
     38  OH       -12.2690  -35.5140   -5.1360 O.3   181  TYR181     -0.2866
     39  N        -13.1220  -38.8800   -8.9280 N.3   184  TYR184     -0.1227
     40  CA       -12.2000  -39.5840   -9.8120 C.3   184  TYR184      0.1736
     41  C        -10.8950  -39.8260   -9.0620 C.2   184  TYR184      0.2595
     42  O        -10.2550  -38.8830   -8.5970 O.2   184  TYR184     -0.2718
     43  CB       -11.9360  -38.8000  -11.0980 C.3   184  TYR184      0.0548
     44  CG       -10.9270  -39.4820  -11.9940 C.ar  184  TYR184     -0.0200
     45  CD1      -11.2720  -40.6140  -12.7210 C.ar  184  TYR184     -0.0009
     46  CD2       -9.6260  -39.0060  -12.1010 C.ar  184  TYR184     -0.0009
     47  CE1      -10.3530  -41.2490  -13.5340 C.ar  184  TYR184      0.0417
     48  CE2       -8.7000  -39.6350  -12.9130 C.ar  184  TYR184      0.0417
     49  CZ        -9.0700  -40.7550  -13.6270 C.ar  184  TYR184      0.1957
     50  OH        -8.1530  -41.3860  -14.4350 O.3   184  TYR184     -0.2866
     51  N        -10.5030  -41.0900   -8.9490 N.am  185  ASN185     -0.1974
     52  CA        -9.3780  -41.4560   -8.0960 C.3   185  ASN185      0.1688
     53  C         -8.2190  -42.1240   -8.8290 C.2   185  ASN185      0.2292
     54  O         -7.4050  -42.8140   -8.2160 O.2   185  ASN185     -0.2864
     55  CB        -9.8570  -42.3560   -6.9570 C.3   185  ASN185      0.1181
     56  CG       -11.0490  -41.7780   -6.2250 C.2   185  ASN185      0.2629
     57  OD1      -12.1140  -42.3900   -6.1760 O.2   185  ASN185     -0.2716
     58  ND2      -10.8770  -40.5910   -5.6550 N.am  185  ASN185     -0.0877
     59  N         -5.3640  -46.0940    3.4110 N.3   207  THR207     -0.1218
     60  CA        -4.6770  -45.3260    2.3780 C.3   207  THR207      0.1862
     61  C         -4.1420  -44.0020    2.9140 C.2   207  THR207      0.2287
     62  O         -4.7920  -43.3450    3.7210 O.2   207  THR207     -0.2866
     63  CB        -5.6020  -45.0510    1.1730 C.3   207  THR207      0.1770
     64  OG1       -4.9350  -44.1920    0.2400 O.3   207  THR207     -0.2211
     65  CG2       -6.9010  -44.3960    1.6250 C.3   207  THR207      0.0375
     66  N         -2.6510  -41.7240    0.5570 N.3   209  GLY209     -0.1210
     67  CA        -2.5560  -40.8470   -0.5960 C.3   209  GLY209      0.1956
     68  C         -1.3290  -41.0810   -1.4560 C.2   209  GLY209      0.2613
     69  O         -0.7940  -42.1880   -1.5060 O.2   209  GLY209     -0.2717
     70  N         -0.8810  -40.0270   -2.1320 N.am  210  THR210     -0.1938
     71  CA         0.2290  -40.1300   -3.0720 C.3   210  THR210      0.2028
     72  C          1.4600  -39.3640   -2.5980 C.2   210  THR210      0.2642
     73  O          2.5320  -39.4660   -3.1950 O.2   210  THR210     -0.2714
     74  CB        -0.1710  -39.5970   -4.4610 C.3   210  THR210      0.1808
     75  OG1       -0.4150  -38.1870   -4.3810 O.3   210  THR210     -0.2208
     76  CG2       -1.4260  -40.2970   -4.9590 C.3   210  THR210      0.0379
     77  N          1.3020  -38.5990   -1.5230 N.am  211  ARG211     -0.1963
     78  CA         2.3820  -37.7580   -1.0180 C.3   211  ARG211      0.1729
     79  C          2.8920  -38.2460    0.3350 C.2   211  ARG211      0.2616
     80  O          4.0980  -38.4040    0.5310 O.2   211  ARG211     -0.2715
     81  CB         1.9080  -36.3090   -0.9100 C.3   211  ARG211      0.0348
     82  CG         1.3420  -35.7570   -2.2060 C.3   211  ARG211      0.0492
     83  CD         0.3500  -34.6370   -1.9450 C.3   211  ARG211      0.2205
     84  NE         0.9880  -33.4450   -1.3960 N.pl3 211  ARG211     -0.0865
     85  CZ         0.3240  -32.3780   -0.9620 C.cat 211  ARG211      0.5346
     86  NH1       -1.0010  -32.3590   -1.0040 N.pl3 211  ARG211      0.1354
     87  NH2        0.9840  -31.3350   -0.4790 N.pl3 211  ARG211      0.1354
     88  N          1.9680  -38.4760    1.2640 N.am  212  VAL212     -0.1977
     89  CA         2.3110  -38.9780    2.5960 C.3   212  VAL212      0.1596
     90  C          3.1180  -40.2880    2.5730 C.2   212  VAL212      0.2287
     91  O          4.1010  -40.4140    3.3070 O.2   212  VAL212     -0.2864
     92  CB         1.0610  -39.0980    3.5090 C.3   212  VAL212      0.0276
     93  CG1        1.3910  -39.8500    4.7890 C.3   212  VAL212      0.0022
     94  CG2        0.4990  -37.7180    3.8230 C.3   212  VAL212      0.0022
     95  N         -4.7260  -49.1640   -0.0470 N.3   233  ALA233     -0.1231
     96  CA        -4.6230  -48.4030   -1.2850 C.3   233  ALA233      0.1694
     97  C         -3.3750  -47.5270   -1.2570 C.2   233  ALA233      0.2592
     98  O         -3.3600  -46.4680   -0.6330 O.2   233  ALA233     -0.2718
     99  CB        -5.8680  -47.5570   -1.4990 C.3   233  ALA233      0.0304
    100  N         -2.3300  -47.9820   -1.9390 N.am  234  VAL234     -0.1966
    101  CA        -1.0460  -47.2950   -1.9340 C.3   234  VAL234      0.1727
    102  C         -0.3400  -47.5880   -3.2550 C.2   234  VAL234      0.2616
    103  O         -0.7280  -48.5110   -3.9680 O.2   234  VAL234     -0.2715
    104  CB        -0.1810  -47.7640   -0.7390 C.3   234  VAL234      0.0290
    105  CG1        0.3340  -49.1770   -0.9730 C.3   234  VAL234      0.0023
    106  CG2        0.9700  -46.7980   -0.4720 C.3   234  VAL234      0.0023
    107  N          0.6750  -46.7960   -3.5900 N.am  235  SER235     -0.1950
    108  CA         1.4310  -46.9900   -4.8250 C.3   235  SER235      0.1924
    109  C          1.9420  -48.4230   -4.9560 C.2   235  SER235      0.2314
    110  O          2.3640  -49.0320   -3.9720 O.2   235  SER235     -0.2863
    111  CB         2.6020  -46.0070   -4.8960 C.3   235  SER235      0.2116
    112  OG         3.3510  -46.1930   -6.0850 O.3   235  SER235     -0.2180
    113  N         -2.4240  -50.1230   -5.9320 N.3   248  GLN248     -0.1231
    114  CA        -3.1490  -48.9670   -6.4450 C.3   248  GLN248      0.1698
    115  C         -4.6040  -49.3000   -6.7480 C.2   248  GLN248      0.2592
    116  O         -4.9030  -50.0110   -7.7070 O.2   248  GLN248     -0.2718
    117  CB        -2.4660  -48.4200   -7.7010 C.3   248  GLN248      0.0381
    118  CG        -1.6060  -47.1890   -7.4610 C.3   248  GLN248      0.0905
    119  CD        -2.4250  -45.9170   -7.3430 C.2   248  GLN248      0.2608
    120  OE1       -3.6300  -45.9140   -7.5950 O.2   248  GLN248     -0.2717
    121  NE2       -1.7700  -44.8250   -6.9630 N.am  248  GLN248     -0.0878
    122  N         -5.5050  -48.7830   -5.9200 N.am  249  PHE249     -0.1963
    123  CA        -6.9340  -48.9480   -6.1490 C.3   249  PHE249      0.1756
    124  C         -7.6410  -47.6030   -6.0680 C.2   249  PHE249      0.2461
    125  O         -7.6760  -46.9850   -5.0030 O.2   249  PHE249     -0.2730
    126  CB        -7.5470  -49.9070   -5.1260 C.3   249  PHE249      0.0574
    127  CG        -6.8540  -51.2360   -5.0420 C.ar  249  PHE249     -0.0200
    128  CD1       -6.9220  -52.1370   -6.0910 C.ar  249  PHE249     -0.0042
    129  CD2       -6.1490  -51.5910   -3.9040 C.ar  249  PHE249     -0.0042
    130  CE1       -6.2870  -53.3630   -6.0110 C.ar  249  PHE249     -0.0003
    131  CE2       -5.5130  -52.8140   -3.8180 C.ar  249  PHE249     -0.0003
    132  CZ        -5.5830  -53.7010   -4.8730 C.ar  249  PHE249     -0.0000
    133  N         -8.1910  -47.1380   -7.2000 N.am  250  PRO250     -0.2716
    134  CA        -9.0490  -45.9520   -7.2110 C.3   250  PRO250      0.1536
    135  C        -10.1800  -46.1500   -6.2140 C.2   250  PRO250      0.2598
    136  O        -10.9440  -47.1060   -6.3450 O.2   250  PRO250     -0.2715
    137  CB        -9.5930  -45.9330   -8.6400 C.3   250  PRO250      0.0310
    138  CG        -8.5330  -46.6020   -9.4420 C.3   250  PRO250      0.0237
    139  CD        -7.9840  -47.6810   -8.5520 C.3   250  PRO250      0.0939
    140  N        -10.2640  -45.2650   -5.2260 N.am  251  LEU251     -0.1978
    141  CA       -11.1740  -45.4400   -4.0980 C.3   251  LEU251      0.1596
    142  C        -12.6290  -45.6520   -4.5080 C.2   251  LEU251      0.2287
    143  O        -13.3050  -46.5230   -3.9650 O.2   251  LEU251     -0.2864
    144  CB       -11.0510  -44.2640   -3.1260 C.3   251  LEU251      0.0297
    145  CG        -9.6650  -44.0860   -2.5020 C.3   251  LEU251      0.0022
    146  CD1       -9.6760  -42.9760   -1.4630 C.3   251  LEU251      0.0001
    147  CD2       -9.1730  -45.3920   -1.8920 C.3   251  LEU251      0.0001
    148  N         -5.0870  -40.1790    5.6850 N.3   263  HIS263     -0.1241
    149  CA        -4.2090  -39.0910    6.0990 C.3   263  HIS263      0.1621
    150  C         -4.9090  -37.7380    6.0590 C.2   263  HIS263      0.2264
    151  O         -4.2600  -36.6940    6.1310 O.2   263  HIS263     -0.2867
    152  CB        -2.9830  -39.0450    5.1890 C.3   263  HIS263      0.0745
    153  CG        -3.2990  -38.6730    3.7750 C.ar  263  HIS263      0.0817
    154  ND1       -4.1540  -39.4120    2.9820 N.ar  263  HIS263     -0.2268
    155  CD2       -2.8810  -37.6380    3.0070 C.ar  263  HIS263      0.1154
    156  CE1       -4.2460  -38.8490    1.7920 C.ar  263  HIS263      0.1986
    157  NE2       -3.4820  -37.7700    1.7800 N.ar  263  HIS263     -0.2212
    158  N         -6.4490  -36.5700    3.5170 N.3   265  GLY265     -0.1210
    159  CA        -6.3390  -36.0360    2.1700 C.3   265  GLY265      0.1956
    160  C         -7.6670  -35.5460    1.6280 C.2   265  GLY265      0.2612
    161  O         -8.6930  -36.2060    1.7970 O.2   265  GLY265     -0.2717
    162  N         -7.6440  -34.3820    0.9830 N.am  266  HIS266     -0.1961
    163  CA        -8.8570  -33.7440    0.4760 C.3   266  HIS266      0.1787
    164  C         -9.6640  -34.6520   -0.4480 C.2   266  HIS266      0.2621
    165  O        -10.8660  -34.8340   -0.2530 O.2   266  HIS266     -0.2715
    166  CB        -8.5140  -32.4370   -0.2420 C.3   266  HIS266      0.0785
    167  CG        -8.1620  -31.3140    0.6820 C.ar  266  HIS266      0.0821
    168  ND1       -7.0820  -30.4830    0.4670 N.ar  266  HIS266     -0.2267
    169  CD2       -8.7510  -30.8760    1.8200 C.ar  266  HIS266      0.1154
    170  CE1       -7.0190  -29.5870    1.4370 C.ar  266  HIS266      0.1986
    171  NE2       -8.0220  -29.8030    2.2690 N.ar  266  HIS266     -0.2212
    172  N         -8.9980  -35.2190   -1.4480 N.am  267  GLY267     -0.1940
    173  CA        -9.6520  -36.1050   -2.3920 C.3   267  GLY267      0.2014
    174  C        -10.1390  -37.3830   -1.7400 C.2   267  GLY267      0.2639
    175  O        -11.2300  -37.8660   -2.0390 O.2   267  GLY267     -0.2714
    176  N         -9.3250  -37.9280   -0.8420 N.am  268  THR268     -0.1950
    177  CA        -9.6730  -39.1510   -0.1290 C.3   268  THR268      0.1897
    178  C        -10.8860  -38.9350    0.7710 C.2   268  THR268      0.2313
    179  O        -11.7760  -39.7820    0.8420 O.2   268  THR268     -0.2863
    180  CB        -8.4880  -39.6590    0.7170 C.3   268  THR268      0.1794
    181  OG1       -7.3680  -39.9250   -0.1370 O.3   268  THR268     -0.2208
    182  CG2       -8.8630  -40.9310    1.4630 C.3   268  THR268      0.0378
    183  N         -1.1360  -32.9640    6.5960 N.3   285  ILE285     -0.1245
    184  CA        -0.8550  -31.6510    6.0230 C.3   285  ILE285      0.1561
    185  C         -1.7620  -30.5760    6.6240 C.2   285  ILE285      0.2260
    186  O         -2.9310  -30.8270    6.9090 O.2   285  ILE285     -0.2867
    187  CB        -0.9810  -31.6850    4.4850 C.3   285  ILE285      0.0252
    188  CG1       -0.0690  -32.7740    3.9150 C.3   285  ILE285      0.0019
    189  CG2       -0.6370  -30.3350    3.8730 C.3   285  ILE285      0.0019
    190  CD1       -0.0710  -32.8510    2.4100 C.3   285  ILE285      0.0001
@<TRIPOS>BOND
     1    50    49    1
     2    49    47   ar
     3    49    48   ar
     4    47    45   ar
     5    48    46   ar
     6    45    44   ar
     7    46    44   ar
     8    44    43    1
     9    43    40    1
    10    22    23    2
    11    22    21    1
    12    40    41    1
    13    40    39    1
    14   138   137    1
    15   138   139    1
    16    20    21    1
    17    20    26    1
    18    41    51   am
    19    41    42    2
    20    51    52    1
    21    21    24    1
    22    53    54    2
    23    53    52    1
    24    12    13    1
    25    12    11    1
    26   137   134    1
    27    15    13   ar
    28   139   133    1
    29     1     2    1
    30     4     3    2
    31     8    11    1
    32     8     7    1
    33     8     9    1
    34    13    14   ar
    35    10     9    2
    36    52    55    1
    37    26    25    1
    38     3     7   am
    39     3     2    1
    40     2     5    1
    41   116   115    2
    42   117   118    1
    43   117   114    1
    44   120   119    2
    45     9    16   am
    46    24    25    1
    47   118   119    1
    48   119   121   am
    49   134   133    1
    50   134   135    1
    51   133   124   am
    52    55    56    1
    53   115   114    1
    54   115   122   am
    55   114   113    1
    56    29    28    1
    57    29    30    2
    58   136   135    2
    59    16    17    1
    60     5     6    1
    61    56    57    2
    62    56    58   am
    63   135   140   am
    64   123   124    1
    65   123   122    1
    66   123   126    1
    67   128   130   ar
    68   128   127   ar
    69   112   111    1
    70    18    19    2
    71    18    17    1
    72   124   125    2
    73   130   132   ar
    74    28    27    1
    75    28    31    1
    76   140   141    1
    77    38    37    1
    78   126   127    1
    79    35    37   ar
    80    35    33   ar
    81   127   129   ar
    82    37    36   ar
    83    76    74    1
    84   109   108    1
    85   109   110    2
    86    33    32   ar
    87   111   108    1
    88   132   131   ar
    89   108   107    1
    90    36    34   ar
    91    32    34   ar
    92    32    31    1
    93   142   141    1
    94   142   143    2
    95    74    75    1
    96    74    71    1
    97   141   144    1
    98   103   102    2
    99   129   131   ar
   100   107   102   am
   101   102   101    1
   102    73    72    2
   103   144   145    1
   104    71    72    1
   105    71    70    1
   106    72    77   am
   107   145   147    1
   108   145   146    1
   109   173   174    1
   110   173   172    1
   111    82    83    1
   112    82    81    1
   113    70    68   am
   114   175   174    2
   115    83    84    1
   116   100   101    1
   117   100    97   am
   118   101   104    1
   119   174   176   am
   120    77    78    1
   121    69    68    2
   122    99    96    1
   123    68    67    1
   124   172   164   am
   125    84    85    2
   126    96    97    1
   127    96    95    1
   128    97    98    2
   129    78    81    1
   130    78    79    1
   131    86    85    1
   132   105   104    1
   133    85    87    1
   134   176   177    1
   135   104   106    1
   136    67    66    1
   137   164   165    2
   138   164   163    1
   139   166   163    1
   140   166   167    1
   141   181   180    1
   142   177   180    1
   143   177   178    1
   144    64    63    1
   145    79    80    2
   146    79    88   am
   147   168   167   ar
   148   168   170   ar
   149   163   162    1
   150   167   169   ar
   151   180   182    1
   152   178   179    2
   153   162   160   am
   154    63    65    1
   155    63    60    1
   156    88    89    1
   157   170   171   ar
   158   160   161    2
   159   160   159    1
   160   157   156   ar
   161   157   155   ar
   162   156   154   ar
   163   169   171   ar
   164   159   158    1
   165    60    61    1
   166    60    59    1
   167   190   188    1
   168    90    89    1
   169    90    91    2
   170    89    92    1
   171    61    62    2
   172   154   153   ar
   173   155   153   ar
   174    92    94    1
   175    92    93    1
   176   153   152    1
   177   189   187    1
   178   188   187    1
   179   187   184    1
   180   152   149    1
   181   148   149    1
   182   184   183    1
   183   184   185    1
   184   150   149    1
   185   150   151    2
   186   185   186    2
