@<TRIPOS>MOLECULE
tmp/4g2wA00.pdb
 162 154 0 0 0
SMALL
GASTEIGER

@<TRIPOS>ATOM
      1  N         22.7160  -12.1330   10.9610 N.3    76  TYR76      -0.1227
      2  CA        23.8690  -12.9670   10.6870 C.3    76  TYR76       0.1736
      3  C         23.4910  -14.1350    9.7800 C.2    76  TYR76       0.2595
      4  O         24.1770  -14.4040    8.7930 O.2    76  TYR76      -0.2718
      5  CB        24.5220  -13.4520   12.0010 C.3    76  TYR76       0.0548
      6  CG        25.6110  -14.5020   11.8240 C.ar   76  TYR76      -0.0200
      7  CD1       25.3990  -15.8200   12.2070 C.ar   76  TYR76      -0.0009
      8  CD2       26.8490  -14.1730   11.2700 C.ar   76  TYR76      -0.0009
      9  CE1       26.4010  -16.8000   12.0500 C.ar   76  TYR76       0.0417
     10  CE2       27.8540  -15.1370   11.1180 C.ar   76  TYR76       0.0417
     11  CZ        27.6180  -16.4540   11.5100 C.ar   76  TYR76       0.1957
     12  OH        28.6040  -17.4200   11.3510 O.3    76  TYR76      -0.2866
     13  N         22.4020  -14.8250   10.1040 N.am   77  HIS77      -0.1975
     14  CA        22.0250  -16.0090    9.3280 C.3    77  HIS77       0.1656
     15  C         21.3310  -15.6340    8.0260 C.2    77  HIS77       0.2291
     16  O         20.1160  -15.7950    7.8660 O.2    77  HIS77      -0.2864
     17  CB        21.2040  -16.9910   10.1650 C.3    77  HIS77       0.0771
     18  CG        22.0290  -17.7500   11.1600 C.ar   77  HIS77       0.0820
     19  ND1       21.9650  -17.5160   12.5160 N.ar   77  HIS77      -0.2267
     20  CD2       22.9690  -18.7100   10.9890 C.ar   77  HIS77       0.1154
     21  CE1       22.8250  -18.3010   13.1390 C.ar   77  HIS77       0.1986
     22  NE2       23.4430  -19.0390   12.2360 N.ar   77  HIS77      -0.2212
     23  N         18.0910  -17.0360   15.1570 N.3   124  VAL124     -0.1245
     24  CA        18.0900  -17.9540   16.2990 C.3   124  VAL124      0.1561
     25  C         16.9090  -17.7210   17.2530 C.2   124  VAL124      0.2260
     26  O         16.3630  -18.6750   17.8050 O.2   124  VAL124     -0.2867
     27  CB        19.4130  -17.8980   17.0840 C.3   124  VAL124      0.0252
     28  CG1       20.5670  -18.3780   16.2180 C.3   124  VAL124      0.0019
     29  CG2       19.6520  -16.4880   17.6090 C.3   124  VAL124      0.0019
     30  N         24.9820  -27.8850   15.7380 N.3   174  LEU174     -0.1245
     31  CA        26.1070  -27.9200   16.6630 C.3   174  LEU174      0.1561
     32  C         25.9880  -29.0860   17.6490 C.2   174  LEU174      0.2260
     33  O         26.9940  -29.6050   18.1210 O.2   174  LEU174     -0.2867
     34  CB        26.2880  -26.5800   17.3840 C.3   174  LEU174      0.0270
     35  CG        27.0400  -25.4940   16.5980 C.3   174  LEU174      0.0019
     36  CD1       27.1100  -24.2250   17.4160 C.3   174  LEU174      0.0001
     37  CD2       28.4500  -25.9490   16.2090 C.3   174  LEU174      0.0001
     38  N         31.7330  -22.0700   10.9420 N.3   214  LEU214     -0.1245
     39  CA        32.1280  -21.2230   12.0700 C.3   214  LEU214      0.1561
     40  C         33.3140  -20.3270   11.7000 C.2   214  LEU214      0.2260
     41  O         33.9350  -19.7110   12.5720 O.2   214  LEU214     -0.2867
     42  CB        32.5060  -22.0920   13.2870 C.3   214  LEU214      0.0270
     43  CG        31.5030  -23.1140   13.8650 C.3   214  LEU214      0.0019
     44  CD1       32.1590  -23.8550   15.0210 C.3   214  LEU214      0.0001
     45  CD2       30.1680  -22.5130   14.3130 C.3   214  LEU214      0.0001
     46  N         34.0430  -17.5420   10.5310 N.3   216  ALA216     -0.1231
     47  CA        34.1200  -16.1500   10.9390 C.3   216  ALA216      0.1694
     48  C         34.9970  -15.9960   12.1850 C.2   216  ALA216      0.2591
     49  O         35.6080  -14.9480   12.3960 O.2   216  ALA216     -0.2718
     50  CB        32.7430  -15.6270   11.2310 C.3   216  ALA216      0.0304
     51  N         35.0340  -17.0340   13.0160 N.am  217  ILE217     -0.1980
     52  CA        35.7750  -16.9810   14.2680 C.3   217  ILE217      0.1595
     53  C         37.2800  -16.9960   13.9870 C.2   217  ILE217      0.2287
     54  O         38.0960  -16.7540   14.8810 O.2   217  ILE217     -0.2864
     55  CB        35.3830  -18.1620   15.2170 C.3   217  ILE217      0.0276
     56  CG1       35.6640  -17.8010   16.6720 C.3   217  ILE217      0.0022
     57  CG2       36.0990  -19.4550   14.8290 C.3   217  ILE217      0.0022
     58  CD1       34.8640  -16.5950   17.1680 C.3   217  ILE217      0.0001
     59  N         36.5020  -10.2080   12.2490 N.3   224  GLN224     -0.1245
     60  CA        35.8390  -10.9270   13.3470 C.3   224  GLN224      0.1566
     61  C         35.0150  -10.0070   14.2630 C.2   224  GLN224      0.2260
     62  O         33.8580  -10.3000   14.5750 O.2   224  GLN224     -0.2867
     63  CB        36.8570  -11.7520   14.1490 C.3   224  GLN224      0.0367
     64  CG        36.4920  -12.0000   15.6110 C.3   224  GLN224      0.0905
     65  CD        35.2090  -12.7980   15.8280 C.2   224  GLN224      0.2608
     66  OE1       34.6610  -12.7810   16.9260 O.2   224  GLN224     -0.2717
     67  NE2       34.7370  -13.5040   14.8000 N.am  224  GLN224     -0.0878
     68  N         31.7860   -9.2440   12.4560 N.3   227  ILE227     -0.1231
     69  CA        30.8260  -10.3360   12.3380 C.3   227  ILE227      0.1692
     70  C         30.2300  -10.6470   13.7030 C.2   227  ILE227      0.2591
     71  O         29.0290  -10.8470   13.8270 O.2   227  ILE227     -0.2718
     72  CB        31.4680  -11.5700   11.6890 C.3   227  ILE227      0.0266
     73  CG1       31.8410  -11.2300   10.2370 C.3   227  ILE227      0.0019
     74  CG2       30.5250  -12.7400   11.7210 C.3   227  ILE227      0.0020
     75  CD1       32.7700  -12.2110    9.6010 C.3   227  ILE227      0.0001
     76  N         31.0650  -10.6220   14.7390 N.am  228  ALA228     -0.1980
     77  CA        30.5880  -10.8550   16.1010 C.3   228  ALA228      0.1597
     78  C         29.4760   -9.8690   16.4100 C.2   228  ALA228      0.2287
     79  O         28.5290  -10.1720   17.1220 O.2   228  ALA228     -0.2864
     80  CB        31.7210  -10.7010   17.0890 C.3   228  ALA228      0.0319
     81  N         26.3340  -11.2580   14.7980 N.3   231  VAL231     -0.1231
     82  CA        25.8820  -12.3590   15.6280 C.3   231  VAL231      0.1692
     83  C         25.1790  -11.8470   16.8870 C.2   231  VAL231      0.2591
     84  O         24.1190  -12.3470   17.2560 O.2   231  VAL231     -0.2718
     85  CB        27.0730  -13.2460   16.0490 C.3   231  VAL231      0.0266
     86  CG1       26.6200  -14.3170   17.0300 C.3   231  VAL231      0.0020
     87  CG2       27.7340  -13.8620   14.8320 C.3   231  VAL231      0.0020
     88  N         25.7770  -10.8530   17.5490 N.am  232  ALA232     -0.1980
     89  CA        25.1960  -10.2860   18.7740 C.3   232  ALA232      0.1597
     90  C         23.8820   -9.5750   18.4720 C.2   232  ALA232      0.2287
     91  O         22.9380   -9.6510   19.2570 O.2   232  ALA232     -0.2864
     92  CB        26.1830   -9.3220   19.4750 C.3   232  ALA232      0.0319
     93  N         21.4050  -12.4170   18.0920 N.3   235  PHE235     -0.1227
     94  CA        21.1640  -13.0620   19.3860 C.3   235  PHE235      0.1736
     95  C         20.3350  -12.2220   20.3540 C.2   235  PHE235      0.2595
     96  O         19.4900  -12.7530   21.0540 O.2   235  PHE235     -0.2718
     97  CB        22.4780  -13.4320   20.0690 C.3   235  PHE235      0.0547
     98  CG        23.1200  -14.6780   19.5260 C.ar  235  PHE235     -0.0202
     99  CD1       22.6860  -15.2400   18.3340 C.ar  235  PHE235     -0.0042
    100  CD2       24.1520  -15.2910   20.2160 C.ar  235  PHE235     -0.0042
    101  CE1       23.2720  -16.3800   17.8300 C.ar  235  PHE235     -0.0003
    102  CE2       24.7440  -16.4360   19.7220 C.ar  235  PHE235     -0.0003
    103  CZ        24.3030  -16.9870   18.5310 C.ar  235  PHE235     -0.0000
    104  N         20.5750  -10.9160   20.3960 N.am  236  PHE236     -0.1976
    105  CA        20.0260  -10.0920   21.4730 C.3   236  PHE236      0.1639
    106  C         19.1000   -8.9790   20.9930 C.2   236  PHE236      0.2290
    107  O         18.1350   -8.6270   21.6800 O.2   236  PHE236     -0.2864
    108  CB        21.1620   -9.5040   22.3250 C.3   236  PHE236      0.0560
    109  CG        22.1970  -10.5180   22.7410 C.ar  236  PHE236     -0.0200
    110  CD1       21.8670  -11.5590   23.6020 C.ar  236  PHE236     -0.0042
    111  CD2       23.5000  -10.4390   22.2650 C.ar  236  PHE236     -0.0042
    112  CE1       22.8220  -12.5040   23.9940 C.ar  236  PHE236     -0.0003
    113  CE2       24.4670  -11.3850   22.6440 C.ar  236  PHE236     -0.0003
    114  CZ        24.1260  -12.4150   23.5090 C.ar  236  PHE236     -0.0000
    115  N         29.9890  -10.1600   26.2000 N.3   241  ILE241     -0.1245
    116  CA        30.2780  -10.7370   24.8960 C.3   241  ILE241      0.1561
    117  C         31.7150  -11.2550   24.7490 C.2   241  ILE241      0.2260
    118  O         31.9350  -12.3340   24.2080 O.2   241  ILE241     -0.2867
    119  CB        29.9070   -9.7580   23.7640 C.3   241  ILE241      0.0252
    120  CG1       28.3820   -9.6770   23.6420 C.3   241  ILE241      0.0019
    121  CG2       30.5320  -10.1840   22.4320 C.3   241  ILE241      0.0019
    122  CD1       27.9030   -8.5690   22.7090 C.3   241  ILE241      0.0001
    123  N         31.9590  -14.5620   26.5330 N.3   244  MET244     -0.1230
    124  CA        31.2030  -15.5100   25.7120 C.3   244  MET244      0.1702
    125  C         31.9930  -16.0040   24.4770 C.2   244  MET244      0.2592
    126  O         32.0230  -17.2110   24.1670 O.2   244  MET244     -0.2718
    127  CB        29.8570  -14.9030   25.2990 C.3   244  MET244      0.0401
    128  CG        28.8840  -14.7580   26.4770 C.3   244  MET244      0.0596
    129  SD        27.1740  -14.3830   26.0120 S.3   244  MET244     -0.1393
    130  CE        27.3670  -12.7940   25.2420 C.3   244  MET244      0.0692
    131  N         32.6370  -15.0820   23.7730 N.am  245  GLN245     -0.1979
    132  CA        33.4000  -15.4790   22.5930 C.3   245  GLN245      0.1601
    133  C         34.5210  -16.4190   22.9780 C.2   245  GLN245      0.2287
    134  O         34.7690  -17.4070   22.2810 O.2   245  GLN245     -0.2864
    135  CB        33.9390  -14.2600   21.8350 C.3   245  GLN245      0.0394
    136  CG        32.8440  -13.5230   21.0880 C.3   245  GLN245      0.0908
    137  CD        32.1470  -14.4220   20.0680 C.2   245  GLN245      0.2608
    138  OE1       31.1770  -15.1090   20.3890 O.2   245  GLN245     -0.2717
    139  NE2       32.6380  -14.4130   18.8390 N.am  245  GLN245     -0.0878
    140  N         34.6090  -18.4080   25.5970 N.3   247  GLY247     -0.1210
    141  CA        33.9950  -19.6800   25.9500 C.3   247  GLY247      0.1956
    142  C         33.6640  -20.5110   24.7210 C.2   247  GLY247      0.2611
    143  O         33.8730  -21.7340   24.6830 O.2   247  GLY247     -0.2717
    144  N         33.1580  -19.8230   23.7020 N.am  248  PHE248     -0.1976
    145  CA        32.7890  -20.4370   22.4420 C.3   248  PHE248      0.1639
    146  C         34.0340  -20.9410   21.7240 C.2   248  PHE248      0.2290
    147  O         34.0790  -22.0740   21.2330 O.2   248  PHE248     -0.2864
    148  CB        31.9930  -19.4160   21.6110 C.3   248  PHE248      0.0560
    149  CG        31.8810  -19.7510   20.1580 C.ar  248  PHE248     -0.0200
    150  CD1       31.1810  -20.8660   19.7400 C.ar  248  PHE248     -0.0042
    151  CD2       32.4470  -18.9160   19.2000 C.ar  248  PHE248     -0.0042
    152  CE1       31.0720  -21.1640   18.3790 C.ar  248  PHE248     -0.0003
    153  CE2       32.3340  -19.1990   17.8510 C.ar  248  PHE248     -0.0003
    154  CZ        31.6510  -20.3280   17.4330 C.ar  248  PHE248     -0.0000
    155  N         34.1040  -24.9160   21.5110 N.3   252  ILE252     -0.1245
    156  CA        33.7120  -25.4290   20.1970 C.3   252  ILE252      0.1561
    157  C         34.8050  -25.3970   19.1310 C.2   252  ILE252      0.2260
    158  O         34.9930  -26.3830   18.4050 O.2   252  ILE252     -0.2867
    159  CB        32.4330  -24.7280   19.6730 C.3   252  ILE252      0.0252
    160  CG1       31.2320  -25.0980   20.5380 C.3   252  ILE252      0.0019
    161  CG2       32.1390  -25.1180   18.2280 C.3   252  ILE252      0.0019
    162  CD1       30.7730  -23.9650   21.4190 C.3   252  ILE252      0.0001
@<TRIPOS>BOND
     1    16    15    2
     2    15    14    1
     3     4     3    2
     4    14    13    1
     5    14    17    1
     6    75    73    1
     7     3    13   am
     8     3     2    1
     9    17    18    1
    10    73    72    1
    11    46    47    1
    12     2     1    1
    13     2     5    1
    14    47    50    1
    15    47    48    1
    16    38    39    1
    17    20    18   ar
    18    20    22   ar
    19    10     8   ar
    20    10    11   ar
    21    18    19   ar
    22     8     6   ar
    23    12    11    1
    24    11     9   ar
    25    72    74    1
    26    72    69    1
    27    40    39    1
    28    40    41    2
    29     6     5    1
    30     6     7   ar
    31     9     7   ar
    32    39    42    1
    33    48    49    2
    34    48    51   am
    35    22    21   ar
    36    59    60    1
    37    69    68    1
    38    69    70    1
    39    19    21   ar
    40    51    52    1
    41    42    43    1
    42    60    63    1
    43    60    61    1
    44    70    71    2
    45    70    76   am
    46    43    45    1
    47    43    44    1
    48    53    52    1
    49    53    54    2
    50    63    64    1
    51    61    62    2
    52    52    55    1
    53    76    77    1
    54    81    82    1
    55    67    65   am
    56    57    55    1
    57    87    85    1
    58    23    24    1
    59    55    56    1
    60    64    65    1
    61    82    85    1
    62    82    83    1
    63    30    31    1
    64    65    66    2
    65    85    86    1
    66    77    78    1
    67    77    80    1
    68    37    35    1
    69    28    27    1
    70    24    27    1
    71    24    25    1
    72    78    79    2
    73    35    34    1
    74    35    36    1
    75    31    34    1
    76    31    32    1
    77    56    58    1
    78    83    84    2
    79    83    88   am
    80    27    29    1
    81    25    26    2
    82   154   153   ar
    83   154   152   ar
    84    88    89    1
    85    32    33    2
    86   101    99   ar
    87   101   103   ar
    88   153   151   ar
    89    93    94    1
    90   161   159    1
    91    99    98   ar
    92   152   150   ar
    93   158   157    2
    94    90    89    1
    95    90    91    2
    96   103   102   ar
    97    89    92    1
    98   139   137   am
    99   157   156    1
   100   151   149   ar
   101    94    97    1
   102    94    95    1
   103    98    97    1
   104    98   100   ar
   105   159   156    1
   106   159   160    1
   107   102   100   ar
   108   150   149   ar
   109   137   138    2
   110   137   136    1
   111   149   148    1
   112   156   155    1
   113    95   104   am
   114    95    96    2
   115   104   105    1
   116   160   162    1
   117   106   105    1
   118   106   107    2
   119   136   135    1
   120   147   146    2
   121   105   108    1
   122   148   145    1
   123   146   145    1
   124   135   132    1
   125   111   113   ar
   126   111   109   ar
   127   134   133    2
   128   108   109    1
   129   121   119    1
   130   145   144    1
   131   132   133    1
   132   132   131    1
   133   113   114   ar
   134   122   120    1
   135   109   110   ar
   136   114   112   ar
   137   110   112   ar
   138   120   119    1
   139   144   142   am
   140   119   116    1
   141   131   125   am
   142   126   125    2
   143   118   117    2
   144   125   124    1
   145   143   142    2
   146   142   141    1
   147   117   116    1
   148   116   115    1
   149   130   129    1
   150   127   124    1
   151   127   128    1
   152   140   141    1
   153   124   123    1
   154   129   128    1
