@<TRIPOS>MOLECULE
tmp/4g2yA01.pdb
 153 145 0 0 0
SMALL
GASTEIGER

@<TRIPOS>ATOM
      1  N         38.0360  -38.7930  -33.2480 N.3    79  TYR79      -0.1241
      2  CA        37.8850  -37.3720  -32.9830 C.3    79  TYR79       0.1605
      3  C         36.6750  -37.0530  -32.1080 C.2    79  TYR79       0.2264
      4  O         36.7970  -36.2960  -31.1460 O.2    79  TYR79      -0.2867
      5  CB        37.8770  -36.5550  -34.2820 C.3    79  TYR79       0.0534
      6  CG        37.5810  -35.0800  -34.0840 C.ar   79  TYR79      -0.0201
      7  CD1       36.3580  -34.5500  -34.4440 C.ar   79  TYR79      -0.0009
      8  CD2       38.5160  -34.2250  -33.5200 C.ar   79  TYR79      -0.0009
      9  CE1       36.0710  -33.2130  -34.2610 C.ar   79  TYR79       0.0417
     10  CE2       38.2380  -32.8760  -33.3300 C.ar   79  TYR79       0.0417
     11  CZ        37.0100  -32.3770  -33.7090 C.ar   79  TYR79       0.1957
     12  OH        36.7040  -31.0370  -33.5440 O.3    79  TYR79      -0.2866
     13  N         25.4700  -28.5100  -37.8990 N.3   185  LEU185     -0.1245
     14  CA        25.9460  -27.5110  -38.8520 C.3   185  LEU185      0.1561
     15  C         24.8380  -26.9930  -39.7680 C.2   185  LEU185      0.2260
     16  O         24.7990  -25.8030  -40.0990 O.2   185  LEU185     -0.2867
     17  CB        27.1240  -28.0480  -39.6630 C.3   185  LEU185      0.0270
     18  CG        28.4410  -28.0340  -38.8830 C.3   185  LEU185      0.0019
     19  CD1       29.5610  -28.7070  -39.6470 C.3   185  LEU185      0.0001
     20  CD2       28.8110  -26.6090  -38.5490 C.3   185  LEU185      0.0001
     21  N         32.5130  -25.4450  -30.7890 N.3   224  ASP224     -0.1225
     22  CA        32.4850  -26.7730  -31.3710 C.3   224  ASP224      0.1805
     23  C         33.5600  -26.8970  -32.4550 C.2   224  ASP224      0.2597
     24  O         34.1590  -27.9560  -32.6400 O.2   224  ASP224     -0.2718
     25  CB        31.0890  -26.9840  -31.9700 C.3   224  ASP224      0.1424
     26  CG        30.7980  -28.4220  -32.3400 C.2   224  ASP224      0.3668
     27  OD1       31.5930  -29.3350  -32.0290 O.co2 224  ASP224     -0.2456
     28  OD2       29.7240  -28.6360  -32.9360 O.co2 224  ASP224     -0.2456
     29  N         33.8100  -25.8040  -33.1640 N.am  225  LEU225     -0.1979
     30  CA        34.7590  -25.8310  -34.2730 C.3   225  LEU225      0.1596
     31  C         36.1650  -25.3160  -33.9070 C.2   225  LEU225      0.2287
     32  O         37.0450  -25.2960  -34.7680 O.2   225  LEU225     -0.2864
     33  CB        34.2120  -25.0040  -35.4520 C.3   225  LEU225      0.0297
     34  CG        32.9010  -25.4370  -36.1320 C.3   225  LEU225      0.0022
     35  CD1       32.5090  -24.4720  -37.2400 C.3   225  LEU225      0.0001
     36  CD2       32.9630  -26.8470  -36.6730 C.3   225  LEU225      0.0001
     37  N         38.9140  -26.1140  -32.7400 N.3   227  ALA227     -0.1231
     38  CA        40.1690  -26.7620  -33.0830 C.3   227  ALA227      0.1694
     39  C         40.7910  -26.0760  -34.3030 C.2   227  ALA227      0.2591
     40  O         42.0230  -26.0570  -34.4540 O.2   227  ALA227     -0.2718
     41  CB        39.9730  -28.2510  -33.3450 C.3   227  ALA227      0.0304
     42  N         39.9390  -25.5010  -35.1580 N.am  228  ILE228     -0.1980
     43  CA        40.4000  -24.9240  -36.4080 C.3   228  ILE228      0.1595
     44  C         41.1730  -23.6330  -36.1240 C.2   228  ILE228      0.2287
     45  O         41.8300  -23.0770  -37.0110 O.2   228  ILE228     -0.2864
     46  CB        39.2220  -24.6840  -37.4130 C.3   228  ILE228      0.0276
     47  CG1       39.7320  -24.5630  -38.8530 C.3   228  ILE228      0.0022
     48  CG2       38.4430  -23.4370  -37.0440 C.3   228  ILE228      0.0022
     49  CD1       40.6260  -25.7090  -39.3020 C.3   228  ILE228      0.0001
     50  N         46.8750  -27.6710  -34.4610 N.3   235  GLN235     -0.1245
     51  CA        45.8780  -27.8550  -35.5200 C.3   235  GLN235      0.1566
     52  C         46.2310  -28.9920  -36.4930 C.2   235  GLN235      0.2260
     53  O         45.3610  -29.7880  -36.8480 O.2   235  GLN235     -0.2867
     54  CB        45.5870  -26.5380  -36.2460 C.3   235  GLN235      0.0367
     55  CG        45.1820  -26.6670  -37.6910 C.3   235  GLN235      0.0905
     56  CD        43.8500  -27.3490  -37.9180 C.2   235  GLN235      0.2608
     57  OE1       43.5820  -27.8170  -39.0160 O.2   235  GLN235     -0.2717
     58  NE2       43.0080  -27.4000  -36.8990 N.am  235  GLN235     -0.0878
     59  N         45.2650  -32.1370  -34.6980 N.3   238  ILE238     -0.1231
     60  CA        43.8310  -32.3940  -34.6280 C.3   238  ILE238      0.1692
     61  C         43.2950  -32.7660  -36.0040 C.2   238  ILE238      0.2591
     62  O         42.5380  -33.7180  -36.1460 O.2   238  ILE238     -0.2718
     63  CB        43.0730  -31.2160  -34.0080 C.3   238  ILE238      0.0266
     64  CG1       43.4090  -31.1430  -32.5110 C.3   238  ILE238      0.0019
     65  CG2       41.5880  -31.4090  -34.1630 C.3   238  ILE238      0.0020
     66  CD1       43.1400  -29.8040  -31.8720 C.3   238  ILE238      0.0001
     67  N         43.7330  -32.0540  -37.0350 N.am  239  ALA239     -0.1980
     68  CA        43.3650  -32.4380  -38.3900 C.3   239  ALA239      0.1597
     69  C         43.6570  -33.9160  -38.6270 C.2   239  ALA239      0.2287
     70  O         42.9180  -34.6070  -39.3190 O.2   239  ALA239     -0.2864
     71  CB        44.0750  -31.5730  -39.4160 C.3   239  ALA239      0.0319
     72  N         40.7910  -35.9680  -37.1910 N.3   242  VAL242     -0.1231
     73  CA        39.5780  -35.8210  -37.9910 C.3   242  VAL242      0.1692
     74  C         39.6710  -36.6750  -39.2490 C.2   242  VAL242      0.2591
     75  O         38.7400  -37.3940  -39.5840 O.2   242  VAL242     -0.2718
     76  CB        39.3450  -34.3520  -38.3960 C.3   242  VAL242      0.0266
     77  CG1       38.1820  -34.2460  -39.3600 C.3   242  VAL242      0.0020
     78  CG2       39.1210  -33.4850  -37.1720 C.3   242  VAL242      0.0020
     79  N         40.8050  -36.5930  -39.9400 N.am  243  ALA243     -0.1980
     80  CA        41.0440  -37.4080  -41.1310 C.3   243  ALA243      0.1597
     81  C         40.9280  -38.8940  -40.8220 C.2   243  ALA243      0.2287
     82  O         40.3730  -39.6590  -41.6040 O.2   243  ALA243     -0.2864
     83  CB        42.4200  -37.0990  -41.7320 C.3   243  ALA243      0.0319
     84  N         37.1480  -39.4580  -40.5380 N.3   246  PHE246     -0.1227
     85  CA        36.4720  -39.2830  -41.8180 C.3   246  PHE246      0.1736
     86  C         36.7400  -40.3940  -42.8150 C.2   246  PHE246      0.2595
     87  O         35.9440  -40.6030  -43.7090 O.2   246  PHE246     -0.2718
     88  CB        36.9010  -37.9850  -42.4850 C.3   246  PHE246      0.0547
     89  CG        36.2650  -36.7710  -41.9110 C.ar  246  PHE246     -0.0202
     90  CD1       35.6350  -36.8150  -40.6860 C.ar  246  PHE246     -0.0042
     91  CD2       36.2790  -35.5790  -42.6130 C.ar  246  PHE246     -0.0042
     92  CE1       35.0490  -35.6910  -40.1570 C.ar  246  PHE246     -0.0003
     93  CE2       35.6910  -34.4530  -42.0950 C.ar  246  PHE246     -0.0003
     94  CZ        35.0740  -34.5060  -40.8660 C.ar  246  PHE246     -0.0000
     95  N         37.8690  -41.0800  -42.6870 N.am  247  PHE247     -0.1976
     96  CA        38.2640  -42.0570  -43.6990 C.3   247  PHE247      0.1639
     97  C         38.3550  -43.5010  -43.1960 C.2   247  PHE247      0.2290
     98  O         38.5450  -44.4240  -43.9920 O.2   247  PHE247     -0.2864
     99  CB        39.5460  -41.6010  -44.4060 C.3   247  PHE247      0.0560
    100  CG        39.4700  -40.1800  -44.8970 C.ar  247  PHE247     -0.0200
    101  CD1       38.5260  -39.8130  -45.8450 C.ar  247  PHE247     -0.0042
    102  CD2       40.3000  -39.2040  -44.3830 C.ar  247  PHE247     -0.0042
    103  CE1       38.4240  -38.4970  -46.2890 C.ar  247  PHE247     -0.0003
    104  CE2       40.2030  -37.8770  -44.8170 C.ar  247  PHE247     -0.0003
    105  CZ        39.2680  -37.5250  -45.7700 C.ar  247  PHE247     -0.0000
    106  N         43.6010  -33.1770  -48.6090 N.3   252  ILE252     -0.1245
    107  CA        43.2210  -32.6380  -47.3040 C.3   252  ILE252      0.1561
    108  C         43.4480  -31.1240  -47.1620 C.2   252  ILE252      0.2260
    109  O         42.5860  -30.4130  -46.6580 O.2   252  ILE252     -0.2867
    110  CB        43.8760  -33.4170  -46.1390 C.3   252  ILE252      0.0252
    111  CG1       43.1420  -34.7450  -45.9070 C.3   252  ILE252      0.0019
    112  CG2       43.8620  -32.5960  -44.8590 C.3   252  ILE252      0.0019
    113  CD1       43.9170  -35.7220  -45.0350 C.3   252  ILE252      0.0001
    114  N         40.7110  -29.2050  -48.7940 N.3   255  MET255     -0.1230
    115  CA        39.5180  -29.4130  -47.9600 C.3   255  MET255      0.1702
    116  C         39.5010  -28.4780  -46.7370 C.2   255  MET255      0.2592
    117  O         38.4880  -27.8370  -46.4370 O.2   255  MET255     -0.2718
    118  CB        39.3760  -30.8790  -47.5310 C.3   255  MET255      0.0401
    119  CG        39.0280  -31.8410  -48.6790 C.3   255  MET255      0.0596
    120  SD        38.5620  -33.5280  -48.1530 S.3   255  MET255     -0.1393
    121  CE        40.0320  -34.0870  -47.3090 C.3   255  MET255      0.0692
    122  N         40.6300  -28.3840  -46.0490 N.am  256  GLN256     -0.1979
    123  CA        40.7330  -27.5070  -44.8910 C.3   256  GLN256      0.1601
    124  C         40.4720  -26.0520  -45.2560 C.2   256  GLN256      0.2287
    125  O         39.8040  -25.3250  -44.5100 O.2   256  GLN256     -0.2864
    126  CB        42.1110  -27.6580  -44.2380 C.3   256  GLN256      0.0394
    127  CG        42.2950  -29.0220  -43.6120 C.3   256  GLN256      0.0908
    128  CD        41.2980  -29.2650  -42.4870 C.2   256  GLN256      0.2608
    129  OE1       40.2060  -29.7730  -42.7070 O.2   256  GLN256     -0.2717
    130  NE2       41.6700  -28.8870  -41.2830 N.am  256  GLN256     -0.0878
    131  N         38.6760  -24.9950  -47.7950 N.3   258  GLY258     -0.1210
    132  CA        37.2550  -24.9310  -48.1020 C.3   258  GLY258      0.1956
    133  C         36.4160  -24.7820  -46.8490 C.2   258  GLY258      0.2611
    134  O         35.5480  -23.9070  -46.7490 O.2   258  GLY258     -0.2717
    135  N         36.6960  -25.6300  -45.8710 N.am  259  PHE259     -0.1976
    136  CA        36.0140  -25.5700  -44.5920 C.3   259  PHE259      0.1639
    137  C         36.2120  -24.2150  -43.9020 C.2   259  PHE259      0.2290
    138  O         35.2720  -23.6340  -43.3590 O.2   259  PHE259     -0.2864
    139  CB        36.5080  -26.7290  -43.7340 C.3   259  PHE259      0.0560
    140  CG        36.2060  -26.5960  -42.2800 C.ar  259  PHE259     -0.0200
    141  CD1       34.9040  -26.5770  -41.8290 C.ar  259  PHE259     -0.0042
    142  CD2       37.2390  -26.5370  -41.3540 C.ar  259  PHE259     -0.0042
    143  CE1       34.6300  -26.4660  -40.4670 C.ar  259  PHE259     -0.0003
    144  CE2       36.9730  -26.4340  -39.9950 C.ar  259  PHE259     -0.0003
    145  CZ        35.6720  -26.3990  -39.5490 C.ar  259  PHE259     -0.0000
    146  N         32.8260  -21.9620  -43.6470 N.3   263  ILE263     -0.1245
    147  CA        32.1980  -21.9620  -42.3310 C.3   263  ILE263      0.1561
    148  C         32.8690  -21.0590  -41.3000 C.2   263  ILE263      0.2260
    149  O         32.2080  -20.2230  -40.6680 O.2   263  ILE263     -0.2867
    150  CB        32.0780  -23.3960  -41.7690 C.3   263  ILE263      0.0252
    151  CG1       31.1410  -24.2340  -42.6370 C.3   263  ILE263      0.0019
    152  CG2       31.5390  -23.3760  -40.3620 C.3   263  ILE263      0.0019
    153  CD1       31.8470  -25.3130  -43.4150 C.3   263  ILE263      0.0001
@<TRIPOS>BOND
     1   114   115    1
     2   119   120    1
     3   119   118    1
     4   106   107    1
     5   120   121    1
     6   132   131    1
     7   132   133    1
     8   115   118    1
     9   115   116    1
    10   107   108    1
    11   107   110    1
    12   108   109    2
    13   133   134    2
    14   133   135   am
    15   116   117    2
    16   116   122   am
    17   103   101   ar
    18   103   105   ar
    19   110   111    1
    20   110   112    1
    21   122   123    1
    22   111   113    1
    23   135   136    1
    24   101   100   ar
    25   105   104   ar
    26   124   123    1
    27   124   125    2
    28   100    99    1
    29   100   102   ar
    30   123   126    1
    31   104   102   ar
    32   136   137    1
    33   136   139    1
    34    99    96    1
    35   126   127    1
    36    98    97    2
    37   137   138    2
    38   139   140    1
    39    87    86    2
    40    96    97    1
    41    96    95    1
    42   146   147    1
    43   127   128    1
    44   153   151    1
    45    86    95   am
    46    86    85    1
    47   129   128    2
    48   151   150    1
    49    91    93   ar
    50    91    89   ar
    51   128   130   am
    52    88    89    1
    53    88    85    1
    54   147   150    1
    55   147   148    1
    56   140   141   ar
    57   140   142   ar
    58    93    94   ar
    59    89    90   ar
    60   141   143   ar
    61    85    84    1
    62   150   152    1
    63    83    80    1
    64    82    81    2
    65   142   144   ar
    66   148   149    2
    67    80    81    1
    68    80    79    1
    69    94    92   ar
    70    90    92   ar
    71   143   145   ar
    72    16    15    2
    73   144   145   ar
    74    79    74   am
    75    15    14    1
    76    17    18    1
    77    17    14    1
    78    19    18    1
    79    75    74    2
    80    71    68    1
    81    77    76    1
    82    70    69    2
    83    49    47    1
    84    74    73    1
    85    57    56    2
    86    18    20    1
    87    47    46    1
    88    14    13    1
    89    69    68    1
    90    76    73    1
    91    76    78    1
    92    68    67    1
    93    73    72    1
    94    56    55    1
    95    56    58   am
    96    55    54    1
    97    46    48    1
    98    46    43    1
    99    35    34    1
   100    67    61   am
   101    45    44    2
   102    53    52    2
   103    36    34    1
   104    52    51    1
   105    43    44    1
   106    43    42    1
   107    54    51    1
   108    62    61    2
   109    34    33    1
   110    61    60    1
   111    51    50    1
   112    33    30    1
   113    42    39   am
   114    32    31    2
   115    59    60    1
   116    60    63    1
   117    40    39    2
   118     7     9   ar
   119     7     6   ar
   120    39    38    1
   121     5     6    1
   122     5     2    1
   123    30    31    1
   124    30    29    1
   125     9    11   ar
   126    65    63    1
   127     6     8   ar
   128    63    64    1
   129    11    12    1
   130    11    10   ar
   131     8    10   ar
   132    41    38    1
   133     1     2    1
   134    29    23   am
   135    38    37    1
   136     2     3    1
   137    28    26   ar
   138    24    23    2
   139    64    66    1
   140    23    22    1
   141    26    27   ar
   142    26    25    1
   143     3     4    2
   144    25    22    1
   145    22    21    1
