@<TRIPOS>MOLECULE
tmp/4g2yA00.pdb
 96 91 0 0 0
SMALL
GASTEIGER

@<TRIPOS>ATOM
      1  N         35.5150  -37.6270  -32.4290 N.3    80  HIS80      -0.1241
      2  CA        34.3070  -37.3510  -31.6540 C.3    80  HIS80       0.1621
      3  C         34.2740  -38.1460  -30.3560 C.2    80  HIS80       0.2264
      4  O         33.4620  -39.0640  -30.1930 O.2    80  HIS80      -0.2867
      5  CB        33.0510  -37.5740  -32.4940 C.3    80  HIS80       0.0745
      6  CG        32.8070  -36.4770  -33.4760 C.ar   80  HIS80       0.0817
      7  ND1       32.9890  -36.6380  -34.8320 N.ar   80  HIS80      -0.2268
      8  CD2       32.4630  -35.1800  -33.2910 C.ar   80  HIS80       0.1154
      9  CE1       32.7500  -35.4900  -35.4440 C.ar   80  HIS80       0.1986
     10  NE2       32.4290  -34.5890  -34.5310 N.ar   80  HIS80      -0.2212
     11  N         28.1200  -34.0170  -27.7860 N.3   121  ASP121     -0.1239
     12  CA        28.3660  -35.1240  -28.6980 C.3   121  ASP121      0.1674
     13  C         28.2870  -36.4820  -28.0130 C.2   121  ASP121      0.2266
     14  O         28.8100  -37.4590  -28.5370 O.2   121  ASP121     -0.2867
     15  CB        29.7260  -34.9790  -29.3760 C.3   121  ASP121      0.1410
     16  CG        29.6610  -34.1470  -30.6410 C.2   121  ASP121      0.3668
     17  OD1       28.5740  -34.0770  -31.2360 O.co2 121  ASP121     -0.2456
     18  OD2       30.6860  -33.5660  -31.0390 O.co2 121  ASP121     -0.2456
     19  N         28.5490  -40.3400  -29.5010 N.3   124  HIS124     -0.1241
     20  CA        28.8690  -40.2810  -30.9390 C.3   124  HIS124      0.1621
     21  C         29.6000  -41.5640  -31.3820 C.2   124  HIS124      0.2264
     22  O         30.4830  -42.0620  -30.6840 O.2   124  HIS124     -0.2867
     23  CB        29.7590  -39.0590  -31.2070 C.3   124  HIS124      0.0745
     24  CG        29.7470  -38.5750  -32.6270 C.ar  124  HIS124      0.0817
     25  ND1       30.1460  -39.3580  -33.6920 N.ar  124  HIS124     -0.2268
     26  CD2       29.4260  -37.3660  -33.1500 C.ar  124  HIS124      0.1154
     27  CE1       30.0450  -38.6590  -34.8090 C.ar  124  HIS124      0.1986
     28  NE2       29.6200  -37.4450  -34.5070 N.ar  124  HIS124     -0.2212
     29  N         31.4570  -40.1400  -37.6260 N.3   127  VAL127     -0.1245
     30  CA        30.6270  -39.6110  -38.7090 C.3   127  VAL127      0.1561
     31  C         30.2230  -40.6740  -39.7390 C.2   127  VAL127      0.2260
     32  O         29.2170  -40.5120  -40.4330 O.2   127  VAL127     -0.2867
     33  CB        31.2920  -38.4230  -39.4360 C.3   127  VAL127      0.0252
     34  CG1       31.7040  -37.3550  -38.4330 C.3   127  VAL127      0.0019
     35  CG2       32.4780  -38.8910  -40.2620 C.3   127  VAL127      0.0019
     36  N         17.9510  -32.9830  -37.2550 N.3   139  SER139     -0.1217
     37  CA        18.9610  -33.1140  -36.2000 C.3   139  SER139      0.1889
     38  C         18.7560  -34.3410  -35.3260 C.2   139  SER139      0.2288
     39  O         18.8230  -34.2620  -34.1020 O.2   139  SER139     -0.2866
     40  CB        18.9650  -31.8770  -35.3060 C.3   139  SER139      0.2089
     41  OG        18.7780  -30.6980  -36.0670 O.3   139  SER139     -0.2183
     42  N         20.6400  -36.7670  -34.8310 N.3   141  MET141     -0.1230
     43  CA        21.8610  -37.0560  -34.1110 C.3   141  MET141      0.1702
     44  C         21.9200  -36.2220  -32.8290 C.2   141  MET141      0.2592
     45  O         22.1970  -36.7280  -31.7410 O.2   141  MET141     -0.2718
     46  CB        23.0400  -36.7070  -35.0070 C.3   141  MET141      0.0401
     47  CG        24.3420  -37.2240  -34.4970 C.3   141  MET141      0.0596
     48  SD        24.4380  -38.9860  -34.7980 S.3   141  MET141     -0.1393
     49  CE        26.1450  -39.2890  -34.2870 C.3   141  MET141      0.0692
     50  N         21.6370  -34.9350  -32.9640 N.am  142  GLU142     -0.1979
     51  CA        21.6830  -34.0470  -31.8190 C.3   142  GLU142      0.1602
     52  C         20.5780  -34.3400  -30.8170 C.2   142  GLU142      0.2287
     53  O         20.7560  -34.1200  -29.6170 O.2   142  GLU142     -0.2864
     54  CB        21.6490  -32.5900  -32.2600 C.3   142  GLU142      0.0415
     55  CG        22.9270  -32.1460  -32.9690 C.3   142  GLU142      0.1163
     56  CD        22.9990  -32.6460  -34.4070 C.2   142  GLU142      0.3649
     57  OE1       21.9940  -33.2150  -34.8970 O.co2 142  GLU142     -0.2457
     58  OE2       24.0540  -32.4650  -35.0480 O.co2 142  GLU142     -0.2457
     59  N         22.1020  -36.9720  -28.6750 N.3   145  HIS145     -0.1241
     60  CA        23.1020  -36.4680  -27.7470 C.3   145  HIS145      0.1621
     61  C         22.4040  -35.8220  -26.5630 C.2   145  HIS145      0.2264
     62  O         22.7900  -36.0290  -25.4110 O.2   145  HIS145     -0.2867
     63  CB        24.0450  -35.4700  -28.4340 C.3   145  HIS145      0.0745
     64  CG        24.8450  -36.0730  -29.5510 C.ar  145  HIS145      0.0817
     65  ND1       25.5310  -37.2640  -29.4170 N.ar  145  HIS145     -0.2268
     66  CD2       25.0680  -35.6520  -30.8190 C.ar  145  HIS145      0.1154
     67  CE1       26.1410  -37.5500  -30.5530 C.ar  145  HIS145      0.1986
     68  NE2       25.8750  -36.5890  -31.4200 N.ar  145  HIS145     -0.2212
     69  N         24.4840  -27.3370  -32.3800 N.3   183  THR183     -0.1203
     70  CA        25.7450  -27.9100  -32.8900 C.3   183  THR183      0.1994
     71  C         25.5830  -28.7300  -34.1880 C.2   183  THR183      0.2618
     72  O         26.5310  -29.3820  -34.6780 O.2   183  THR183     -0.2717
     73  CB        26.4490  -28.7720  -31.8300 C.3   183  THR183      0.1784
     74  OG1       25.7050  -29.9740  -31.6130 O.3   183  THR183     -0.2211
     75  CG2       26.5600  -28.0200  -30.5350 C.3   183  THR183      0.0376
     76  N         24.3710  -28.7160  -34.7290 N.am  184  ASP184     -0.1959
     77  CA        24.1050  -29.3060  -36.0350 C.3   184  ASP184      0.1840
     78  C         24.4620  -28.2400  -37.0790 C.2   184  ASP184      0.2622
     79  O         23.8630  -27.1660  -37.1120 O.2   184  ASP184     -0.2715
     80  CB        22.6330  -29.7120  -36.1150 C.3   184  ASP184      0.1450
     81  CG        22.2120  -30.1790  -37.5050 C.2   184  ASP184      0.3671
     82  OD1       20.9890  -30.1920  -37.7660 O.co2 184  ASP184     -0.2456
     83  OD2       23.0860  -30.5410  -38.3300 O.co2 184  ASP184     -0.2456
     84  N         25.4700  -28.5100  -37.8990 N.am  185  LEU185     -0.1963
     85  CA        25.9460  -27.5110  -38.8520 C.3   185  LEU185      0.1728
     86  C         24.8380  -26.9930  -39.7680 C.2   185  LEU185      0.2616
     87  O         24.7990  -25.8030  -40.0990 O.2   185  LEU185     -0.2715
     88  CB        27.1240  -28.0480  -39.6630 C.3   185  LEU185      0.0311
     89  CG        28.4410  -28.0340  -38.8830 C.3   185  LEU185      0.0022
     90  CD1       29.5610  -28.7070  -39.6470 C.3   185  LEU185      0.0001
     91  CD2       28.8110  -26.6090  -38.5490 C.3   185  LEU185      0.0001
     92  N         23.9220  -27.8770  -40.1480 N.am  186  ALA186     -0.1977
     93  CA        22.7840  -27.4700  -40.9770 C.3   186  ALA186      0.1597
     94  C         22.0040  -26.3310  -40.3200 C.2   186  ALA186      0.2287
     95  O         21.7450  -25.3010  -40.9390 O.2   186  ALA186     -0.2864
     96  CB        21.8830  -28.6500  -41.2570 C.3   186  ALA186      0.0319
@<TRIPOS>BOND
     1    96    93    1
     2    93    94    1
     3    93    92    1
     4    95    94    2
     5    32    31    2
     6    35    33    1
     7    92    86   am
     8    87    86    2
     9    86    85    1
    10    31    30    1
    11    88    89    1
    12    88    85    1
    13    90    89    1
    14    33    30    1
    15    33    34    1
    16    89    91    1
    17    85    84    1
    18    30    29    1
    19    83    81   ar
    20    84    78   am
    21    82    81   ar
    22    81    80    1
    23    36    37    1
    24    79    78    2
    25    78    77    1
    26    37    38    1
    27    37    40    1
    28    80    77    1
    29    41    40    1
    30    77    76    1
    31     9     7   ar
    32     9    10   ar
    33    38    39    2
    34    58    56   ar
    35    46    47    1
    36    46    43    1
    37    57    56   ar
    38     7     6   ar
    39    42    43    1
    40    27    28   ar
    41    27    25   ar
    42    48    47    1
    43    48    49    1
    44    76    71   am
    45    72    71    2
    46    10     8   ar
    47    28    26   ar
    48    56    55    1
    49    71    70    1
    50    43    44    1
    51    25    24   ar
    52     6     8   ar
    53     6     5    1
    54    26    24   ar
    55    55    54    1
    56    50    44   am
    57    50    51    1
    58    70    69    1
    59    70    73    1
    60    44    45    2
    61    24    23    1
    62     5     2    1
    63     1     2    1
    64    54    51    1
    65    73    74    1
    66    73    75    1
    67    51    52    1
    68     2     3    1
    69    68    66   ar
    70    68    67   ar
    71    21    20    1
    72    21    22    2
    73    17    16   ar
    74    23    20    1
    75    18    16   ar
    76    20    19    1
    77    66    64   ar
    78    52    53    2
    79    16    15    1
    80    67    65   ar
    81     3     4    2
    82    64    65   ar
    83    64    63    1
    84    15    12    1
    85    12    13    1
    86    12    11    1
    87    59    60    1
    88    14    13    2
    89    63    60    1
    90    60    61    1
    91    61    62    2
