@<TRIPOS>MOLECULE
tmp/4g2zA04.pdb
 103 102 0 0 0
SMALL
GASTEIGER

@<TRIPOS>ATOM
      1  N        -12.8980   16.1500   10.5260 N.3    89  THR89      -0.1203
      2  CA       -13.3120   14.7640   10.2440 C.3    89  THR89       0.1994
      3  C        -14.7630   14.7430    9.7280 C.2    89  THR89       0.2618
      4  O        -15.5180   15.6710    9.9940 O.2    89  THR89      -0.2717
      5  CB       -13.2010   13.8590   11.4780 C.3    89  THR89       0.1784
      6  OG1      -14.1140   14.3120   12.4810 O.3    89  THR89      -0.2211
      7  CG2      -11.7380   13.8390   12.0340 C.3    89  THR89       0.0376
      8  N        -15.1310   13.7090    8.9730 N.am   90  GLU90      -0.1965
      9  CA       -16.4630   13.6240    8.3790 C.3    90  GLU90       0.1733
     10  C        -17.4090   12.5090    8.8980 C.2    90  GLU90       0.2616
     11  O        -18.5710   12.4490    8.4980 O.2    90  GLU90      -0.2715
     12  CB       -16.3550   13.4860    6.8530 C.3    90  GLU90       0.0429
     13  CG       -15.9000   14.7960    6.1870 C.3    90  GLU90       0.1163
     14  CD       -15.3670   14.5390    4.7970 C.2    90  GLU90       0.3649
     15  OE1      -16.0980   13.8710    4.0130 O.co2  90  GLU90      -0.2457
     16  OE2      -14.2160   14.9700    4.5150 O.co2  90  GLU90      -0.2457
     17  N        -16.9540   11.6430    9.7550 N.am   91  GLY91      -0.1955
     18  CA       -17.8980   10.6420   10.3770 C.3    91  GLY91       0.1869
     19  C        -18.0970    9.5140    9.3650 C.2    91  GLY91       0.2309
     20  O        -17.9720    9.7250    8.1570 O.2    91  GLY91      -0.2863
     21  N        -24.8390    8.4330   10.9690 N.3   250  VAL250     -0.1231
     22  CA       -23.4730    8.8860   10.7720 C.3   250  VAL250      0.1692
     23  C        -22.7520    8.7810   12.1640 C.2   250  VAL250      0.2592
     24  O        -23.2100    9.3010   13.1620 O.2   250  VAL250     -0.2718
     25  CB       -23.3970   10.3330   10.3040 C.3   250  VAL250      0.0266
     26  CG1      -21.9080   10.7560   10.2090 C.3   250  VAL250      0.0020
     27  CG2      -24.1040   10.5130    8.9390 C.3   250  VAL250      0.0020
     28  N        -21.6440    8.0620   12.2110 N.am  251  ALA251     -0.1966
     29  CA       -20.8800    7.8080   13.4800 C.3   251  ALA251      0.1713
     30  C        -19.7140    8.7660   13.5640 C.2   251  ALA251      0.2458
     31  O        -19.0890    9.0660   12.5370 O.2   251  ALA251     -0.2730
     32  CB       -20.2940    6.4140   13.3830 C.3   251  ALA251      0.0333
     33  N        -19.3360    9.1860   14.8010 N.am  252  PRO252     -0.2716
     34  CA       -18.1540    9.9690   14.9610 C.3   252  PRO252      0.1536
     35  C        -16.9150    9.0840   14.7740 C.2   252  PRO252      0.2598
     36  O        -16.8980    7.9140   15.1750 O.2   252  PRO252     -0.2715
     37  CB       -18.2250   10.4660   16.4470 C.3   252  PRO252      0.0310
     38  CG       -19.0520    9.4030   17.1630 C.3   252  PRO252      0.0237
     39  CD       -20.0460    8.8930   16.0720 C.3   252  PRO252      0.0939
     40  N        -15.8940    9.6040   14.1160 N.am  253  ASN253     -0.1973
     41  CA       -14.7570    8.7050   13.8410 C.3   253  ASN253      0.1688
     42  C        -14.0920    8.2010   15.1470 C.2   253  ASN253      0.2292
     43  O        -14.1720    8.8290   16.2430 O.2   253  ASN253     -0.2864
     44  CB       -13.6960    9.5020   13.0660 C.3   253  ASN253      0.1181
     45  CG       -14.0960    9.7350   11.5990 C.2   253  ASN253      0.2629
     46  OD1      -14.6970    8.8890   10.9810 O.2   253  ASN253     -0.2716
     47  ND2      -13.6490   10.8200   11.0330 N.am  253  ASN253     -0.0877
     48  N        -12.5300   19.5320   22.3770 N.3   314  PRO314     -0.2116
     49  CA       -13.8550   19.0810   22.7640 C.3   314  PRO314      0.1372
     50  C        -13.8310   18.1370   23.9460 C.2   314  PRO314      0.2244
     51  O        -12.9070   17.2770   24.0490 O.2   314  PRO314     -0.2868
     52  CB       -14.3570   18.2980   21.5370 C.3   314  PRO314      0.0268
     53  CG       -13.0940   17.8340   20.8720 C.3   314  PRO314      0.0207
     54  CD       -12.0840   18.9640   21.0910 C.3   314  PRO314      0.0892
     55  N        -18.9960   16.6020   23.4840 N.3   318  GLU318     -0.1231
     56  CA       -18.8540   17.4200   22.3000 C.3   318  GLU318      0.1699
     57  C        -18.3530   16.6110   21.1070 C.2   318  GLU318      0.2592
     58  O        -18.8630   16.7960   19.9600 O.2   318  GLU318     -0.2718
     59  CB       -17.9730   18.6740   22.4990 C.3   318  GLU318      0.0402
     60  CG       -18.7100   19.6400   23.4760 C.3   318  GLU318      0.1161
     61  CD       -17.7760   20.7700   23.8280 C.2   318  GLU318      0.3649
     62  OE1      -16.6310   20.4850   24.1180 O.co2 318  GLU318     -0.2457
     63  OE2      -18.1550   21.9590   23.6800 O.co2 318  GLU318     -0.2457
     64  N        -17.3680   15.7460   21.3480 N.am  319  TYR319     -0.1962
     65  CA       -16.7850   14.9830   20.2490 C.3   319  TYR319      0.1771
     66  C        -17.8460   13.9690   19.6760 C.2   319  TYR319      0.2619
     67  O        -18.0170   13.8410   18.4390 O.2   319  TYR319     -0.2715
     68  CB       -15.4840   14.2800   20.6970 C.3   319  TYR319      0.0574
     69  CG       -14.8890   13.4500   19.5650 C.ar  319  TYR319     -0.0198
     70  CD1      -14.2120   14.0640   18.5270 C.ar  319  TYR319     -0.0009
     71  CD2      -15.1720   12.0320   19.4590 C.ar  319  TYR319     -0.0009
     72  CE1      -13.7590   13.3430   17.4130 C.ar  319  TYR319      0.0417
     73  CE2      -14.7350   11.3190   18.3540 C.ar  319  TYR319      0.0417
     74  CZ       -14.0010   11.9860   17.3590 C.ar  319  TYR319      0.1957
     75  OH       -13.5300   11.3390   16.2590 O.3   319  TYR319     -0.2866
     76  N        -18.5260   13.2630   20.5580 N.am  320  LEU320     -0.1963
     77  CA       -19.4910   12.2530   20.1320 C.3   320  LEU320      0.1728
     78  C        -20.7420   12.9350   19.5370 C.2   320  LEU320      0.2617
     79  O        -21.3470   12.3950   18.6110 O.2   320  LEU320     -0.2715
     80  CB       -19.9530   11.4140   21.2890 C.3   320  LEU320      0.0311
     81  CG       -18.8150   10.4960   21.7850 C.3   320  LEU320      0.0022
     82  CD1      -19.4050    9.6410   22.9580 C.3   320  LEU320      0.0001
     83  CD2      -18.3620    9.5420   20.6430 C.3   320  LEU320      0.0001
     84  N        -21.0940   14.0890   20.1180 N.am  321  GLY321     -0.1940
     85  CA       -22.2170   14.9030   19.6930 C.3   321  GLY321      0.2014
     86  C        -23.4400   14.5260   20.4870 C.2   321  GLY321      0.2640
     87  O        -23.6650   13.3630   20.8290 O.2   321  GLY321     -0.2714
     88  N        -24.3270   15.4940   20.6860 N.am  322  THR322     -0.1936
     89  CA       -25.3820   15.3700   21.7320 C.3   322  THR322      0.2028
     90  C        -26.3890   14.3190   21.3820 C.2   322  THR322      0.2642
     91  O        -26.8150   13.6090   22.2500 O.2   322  THR322     -0.2714
     92  CB       -26.1610   16.7100   21.9070 C.3   322  THR322      0.1808
     93  OG1      -25.2580   17.6060   22.5450 O.3   322  THR322     -0.2208
     94  CG2      -27.4080   16.5280   22.8230 C.3   322  THR322      0.0379
     95  N        -26.7010   14.2060   20.1100 N.am  323  GLU323     -0.1976
     96  CA       -27.6740   13.2040   19.6870 C.3   323  GLU323      0.1602
     97  C        -27.1800   11.7590   19.9590 C.2   323  GLU323      0.2287
     98  O        -27.9150   10.9650   20.5510 O.2   323  GLU323     -0.2864
     99  CB       -27.8920   13.3350   18.1980 C.3   323  GLU323      0.0415
    100  CG       -29.2520   13.9250   17.8370 C.3   323  GLU323      0.1163
    101  CD       -29.3460   14.3370   16.3720 C.2   323  GLU323      0.3649
    102  OE1      -28.8010   13.6110   15.4960 O.co2 323  GLU323     -0.2457
    103  OE2      -29.9690   15.3980   16.1020 O.co2 323  GLU323     -0.2457
@<TRIPOS>BOND
     1    15    14   ar
     2    16    14   ar
     3    14    13    1
     4    13    12    1
     5    12     9    1
     6    20    19    2
     7     9    10    1
     8     9     8    1
     9    11    10    2
    10    10    17   am
    11    27    25    1
    12     8     3   am
    13    19    18    1
    14     3     4    2
    15     3     2    1
    16    17    18    1
    17    26    25    1
    18     2     1    1
    19     2     5    1
    20    25    22    1
    21    22    21    1
    22    22    23    1
    23    46    45    2
    24    47    45   am
    25     5     7    1
    26     5     6    1
    27    45    44    1
    28    23    28   am
    29    23    24    2
    30    28    29    1
    31    31    30    2
    32    44    41    1
    33    32    29    1
    34    29    30    1
    35    30    33   am
    36    41    40    1
    37    41    42    1
    38    40    35   am
    39    35    34    1
    40    35    36    2
    41    33    34    1
    42    33    39    1
    43    34    37    1
    44    42    43    2
    45   102   101   ar
    46    39    38    1
    47   103   101   ar
    48    75    74    1
    49   101   100    1
    50    37    38    1
    51    74    72   ar
    52    74    73   ar
    53    72    70   ar
    54   100    99    1
    55    99    96    1
    56    73    71   ar
    57    67    66    2
    58    70    69   ar
    59    79    78    2
    60    71    69   ar
    61    78    84   am
    62    78    77    1
    63    69    68    1
    64    66    65    1
    65    66    76   am
    66    96    97    1
    67    96    95    1
    68    85    84    1
    69    85    86    1
    70    97    98    2
    71    58    57    2
    72    95    90   am
    73    77    76    1
    74    77    80    1
    75    65    68    1
    76    65    64    1
    77    86    88   am
    78    86    87    2
    79    83    81    1
    80    88    89    1
    81    53    54    1
    82    53    52    1
    83    54    48    1
    84    57    64   am
    85    57    56    1
    86    80    81    1
    87    90    89    1
    88    90    91    2
    89    52    49    1
    90    89    92    1
    91    81    82    1
    92    92    93    1
    93    92    94    1
    94    56    59    1
    95    56    55    1
    96    48    49    1
    97    59    60    1
    98    49    50    1
    99    60    61    1
   100    63    61   ar
   101    61    62   ar
   102    50    51    2
