@<TRIPOS>MOLECULE
tmp/4g31A00.pdb
 200 187 0 0 0
SMALL
GASTEIGER

@<TRIPOS>ATOM
      1  N        -53.4900   14.0190   13.6450 N.3    13  LEU13      -0.1231
      2  CA       -52.0520   14.2630   13.5560 C.3    13  LEU13       0.1693
      3  C        -51.7100   15.6340   12.9810 C.2    13  LEU13       0.2592
      4  O        -50.5630   16.0760   13.0430 O.2    13  LEU13      -0.2718
      5  CB       -51.3900   13.1780   12.7070 C.3    13  LEU13       0.0284
      6  CG       -51.4320   11.7440   13.2250 C.3    13  LEU13       0.0019
      7  CD1      -50.8950   10.8110   12.1570 C.3    13  LEU13       0.0001
      8  CD2      -50.6510   11.5900   14.5460 C.3    13  LEU13       0.0001
      9  N        -52.6990   16.3050   12.4080 N.am   14  GLY14      -0.1957
     10  CA       -52.4710   17.6240   11.8460 C.3    14  GLY14       0.1869
     11  C        -53.6060   18.0760   10.9520 C.2    14  GLY14       0.2309
     12  O        -54.2820   17.2550   10.3330 O.2    14  GLY14      -0.2863
     13  N        -54.9900   15.1970    8.7350 N.3    19  VAL19      -0.1245
     14  CA       -54.2910   13.9140    8.7950 C.3    19  VAL19       0.1561
     15  C        -54.5740   13.1580   10.1040 C.2    19  VAL19       0.2260
     16  O        -54.3300   13.6670   11.1940 O.2    19  VAL19      -0.2867
     17  CB       -52.7680   14.0790    8.6060 C.3    19  VAL19       0.0252
     18  CG1      -52.1210   12.7220    8.3870 C.3    19  VAL19       0.0019
     19  CG2      -52.4750   14.9780    7.4260 C.3    19  VAL19       0.0019
     20  N        -51.1200    6.6950    8.6230 N.3    32  ALA32      -0.1245
     21  CA       -51.4340    8.1060    8.5540 C.3    32  ALA32       0.1562
     22  C        -52.3760    8.2950    7.3640 C.2    32  ALA32       0.2260
     23  O        -52.0720    7.8950    6.2340 O.2    32  ALA32      -0.2867
     24  CB       -50.1650    8.9340    8.4030 C.3    32  ALA32       0.0290
     25  N        -54.7420   10.9780    5.2240 N.3    34  LYS34      -0.1245
     26  CA       -55.0730   12.3630    4.9410 C.3    34  LYS34       0.1561
     27  C        -56.4120   12.4510    4.2290 C.2    34  LYS34       0.2260
     28  O        -56.6610   11.7380    3.2600 O.2    34  LYS34      -0.2867
     29  CB       -53.9810   13.0380    4.1090 C.3    34  LYS34       0.0271
     30  CG       -54.2580   14.5110    3.8720 C.3    34  LYS34       0.0035
     31  CD       -53.1050   15.2190    3.2150 C.3    34  LYS34       0.0206
     32  CE       -53.2700   16.7250    3.3380 C.3    34  LYS34       0.1093
     33  NZ       -52.4420   17.4670    2.3350 N.3    34  LYS34      -0.1314
     34  N        -52.6260   12.6700   -8.1450 N.3    52  VAL52      -0.1245
     35  CA       -52.6610   11.4050   -7.4190 C.3    52  VAL52       0.1561
     36  C        -52.0160   10.3050   -8.2650 C.2    52  VAL52       0.2260
     37  O        -51.1550    9.5710   -7.7930 O.2    52  VAL52      -0.2867
     38  CB       -54.1120   11.0050   -7.0140 C.3    52  VAL52       0.0252
     39  CG1      -54.1610    9.5620   -6.5430 C.3    52  VAL52       0.0019
     40  CG2      -54.6380   11.9300   -5.9250 C.3    52  VAL52       0.0019
     41  N        -48.1060   10.8620   -8.3060 N.3    55  LEU55      -0.1231
     42  CA       -47.4630   10.5880   -7.0290 C.3    55  LEU55       0.1693
     43  C        -47.5020    9.1060   -6.6720 C.2    55  LEU55       0.2591
     44  O        -46.5160    8.5570   -6.2040 O.2    55  LEU55      -0.2718
     45  CB       -48.1010   11.4130   -5.9020 C.3    55  LEU55       0.0284
     46  CG       -48.0140   12.9300   -6.0830 C.3    55  LEU55       0.0019
     47  CD1      -48.5430   13.6500   -4.8520 C.3    55  LEU55       0.0001
     48  CD2      -46.5930   13.3670   -6.3930 C.3    55  LEU55       0.0001
     49  N        -48.6350    8.4590   -6.9090 N.am   56  ALA56      -0.1980
     50  CA       -48.7840    7.0440   -6.5710 C.3    56  ALA56       0.1597
     51  C        -47.7610    6.1220   -7.2570 C.2    56  ALA56       0.2287
     52  O        -47.6090    4.9660   -6.8770 O.2    56  ALA56      -0.2864
     53  CB       -50.2110    6.5710   -6.8540 C.3    56  ALA56       0.0319
     54  N        -44.5750    6.9460   -7.3620 N.3    58  LEU58      -0.1245
     55  CA       -43.2950    7.2540   -6.7300 C.3    58  LEU58       0.1561
     56  C        -42.8810    6.2090   -5.6780 C.2    58  LEU58       0.2260
     57  O        -43.6840    5.8110   -4.8270 O.2    58  LEU58      -0.2867
     58  CB       -43.3340    8.6500   -6.0970 C.3    58  LEU58       0.0270
     59  CG       -43.5880    9.8520   -7.0040 C.3    58  LEU58       0.0019
     60  CD1      -43.5720   11.1330   -6.1940 C.3    58  LEU58       0.0001
     61  CD2      -42.5470    9.9080   -8.1300 C.3    58  LEU58       0.0001
     62  N        -39.1220    9.0370    0.4570 N.3    63  ILE63      -0.1231
     63  CA       -40.5210    9.3630    0.2470 C.3    63  ILE63       0.1692
     64  C        -41.4180    8.4310    1.0520 C.2    63  ILE63       0.2591
     65  O        -41.2420    7.2100    1.0210 O.2    63  ILE63      -0.2718
     66  CB       -40.8570    9.3220   -1.2730 C.3    63  ILE63       0.0266
     67  CG1      -40.2360   10.5510   -1.9530 C.3    63  ILE63       0.0019
     68  CG2      -42.3650    9.2730   -1.5150 C.3    63  ILE63       0.0020
     69  CD1      -40.4600   10.6000   -3.3920 C.3    63  ILE63       0.0001
     70  N        -42.3800    8.9990    1.7770 N.am   64  VAL64      -0.1980
     71  CA       -43.2410    8.1570    2.6040 C.3    64  VAL64       0.1595
     72  C        -43.9500    7.1200    1.7350 C.2    64  VAL64       0.2287
     73  O        -44.4300    7.4260    0.6250 O.2    64  VAL64      -0.2864
     74  CB       -44.2630    8.9640    3.4650 C.3    64  VAL64       0.0276
     75  CG1      -45.0300    8.0340    4.4190 C.3    64  VAL64       0.0022
     76  CG2      -43.5540   10.0310    4.2770 C.3    64  VAL64       0.0022
     77  N        -46.6130    4.7100    0.1930 N.3    66  TYR66      -0.1241
     78  CA       -48.0190    4.9070   -0.1370 C.3    66  TYR66       0.1605
     79  C        -48.7720    3.5800   -0.1450 C.2    66  TYR66       0.2264
     80  O        -48.2550    2.5690   -0.6150 O.2    66  TYR66      -0.2867
     81  CB       -48.1360    5.5850   -1.5150 C.3    66  TYR66       0.0534
     82  CG       -49.4640    5.3830   -2.2230 C.ar   66  TYR66      -0.0201
     83  CD1      -50.5730    6.1690   -1.9110 C.ar   66  TYR66      -0.0009
     84  CD2      -49.6050    4.4230   -3.2100 C.ar   66  TYR66      -0.0009
     85  CE1      -51.7840    5.9940   -2.5600 C.ar   66  TYR66       0.0417
     86  CE2      -50.8150    4.2380   -3.8660 C.ar   66  TYR66       0.0417
     87  CZ       -51.9020    5.0280   -3.5340 C.ar   66  TYR66       0.1957
     88  OH       -53.1060    4.8570   -4.1930 O.3    66  TYR66      -0.2866
     89  N        -55.5390    5.1980   -2.1060 N.3    69  ALA69      -0.1245
     90  CA       -56.2560    6.4520   -2.2890 C.3    69  ALA69       0.1562
     91  C        -57.6530    6.1080   -2.7660 C.2    69  ALA69       0.2260
     92  O        -57.8200    5.2370   -3.6240 O.2    69  ALA69      -0.2867
     93  CB       -55.5440    7.3290   -3.3170 C.3    69  ALA69       0.0290
     94  N        -56.2520    9.5290    1.5160 N.3    80  ILE80      -0.1245
     95  CA       -54.9280    9.0280    1.1710 C.3    80  ILE80       0.1561
     96  C        -54.3020    8.2990    2.3530 C.2    80  ILE80       0.2260
     97  O        -54.1100    8.8790    3.4250 O.2    80  ILE80      -0.2867
     98  CB       -53.9970   10.1700    0.7180 C.3    80  ILE80       0.0252
     99  CG1      -54.5690   10.8500   -0.5210 C.3    80  ILE80       0.0019
    100  CG2      -52.6080    9.6440    0.4060 C.3    80  ILE80       0.0019
    101  CD1      -53.6590   11.8720   -1.0880 C.3    80  ILE80       0.0001
    102  N        -51.1550    6.5780    3.9470 N.3    82  MET82      -0.1230
    103  CA       -49.6960    6.5340    3.9380 C.3    82  MET82       0.1702
    104  C        -49.1600    5.7630    5.1470 C.2    82  MET82       0.2592
    105  O        -49.8650    5.5650    6.1400 O.2    82  MET82      -0.2718
    106  CB       -49.1280    7.9510    3.9880 C.3    82  MET82       0.0401
    107  CG       -49.6890    8.8770    2.9130 C.3    82  MET82       0.0596
    108  SD       -49.2500    8.3320    1.2360 S.3    82  MET82      -0.1393
    109  CE       -47.4580    8.4950    1.2540 C.3    82  MET82       0.0692
    110  N        -47.9020    5.3480    5.0620 N.am   83  GLN83      -0.1966
    111  CA       -47.2430    4.7410    6.1930 C.3    83  GLN83       0.1733
    112  C        -47.2010    5.7320    7.3510 C.2    83  GLN83       0.2616
    113  O        -46.8720    6.9040    7.1560 O.2    83  GLN83      -0.2715
    114  CB       -45.8250    4.2940    5.8350 C.3    83  GLN83       0.0408
    115  CG       -45.0530    3.7840    7.0730 C.3    83  GLN83       0.0908
    116  CD       -43.8310    2.9510    6.7260 C.2    83  GLN83       0.2608
    117  OE1      -42.7440    3.4840    6.5070 O.2    83  GLN83      -0.2717
    118  NE2      -44.0070    1.6340    6.6760 N.am   83  GLN83      -0.0878
    119  N        -47.5360    5.2640    8.5520 N.am   84  LEU84      -0.1963
    120  CA       -47.4140    6.1060    9.7480 C.3    84  LEU84       0.1728
    121  C        -45.9520    6.2890   10.1630 C.2    84  LEU84       0.2616
    122  O        -45.2620    5.3200   10.4830 O.2    84  LEU84      -0.2715
    123  CB       -48.2290    5.5280   10.9230 C.3    84  LEU84       0.0311
    124  CG       -48.2090    6.3550   12.2190 C.3    84  LEU84       0.0022
    125  CD1      -49.0330    7.6310   12.0600 C.3    84  LEU84       0.0001
    126  CD2      -48.6630    5.5370   13.4710 C.3    84  LEU84       0.0001
    127  N        -45.4910    7.5330   10.1670 N.am   85  CYS85      -0.1954
    128  CA       -44.1610    7.8630   10.6810 C.3    85  CYS85       0.1843
    129  C        -44.2210    8.1970   12.1790 C.2    85  CYS85       0.2625
    130  O        -45.3050    8.3120   12.7440 O.2    85  CYS85      -0.2714
    131  CB       -43.5540    9.0320    9.9060 C.3    85  CYS85       0.0997
    132  SG       -43.2540    8.6570    8.1370 S.3    85  CYS85      -0.0797
    133  N        -43.0560    8.3450   12.8040 N.am   86  ARG86      -0.1977
    134  CA       -42.9510    8.6660   14.2280 C.3    86  ARG86       0.1597
    135  C        -43.6110    9.9810   14.5960 C.2    86  ARG86       0.2287
    136  O        -43.7550   10.8650   13.7510 O.2    86  ARG86      -0.2864
    137  CB       -41.4830    8.7240   14.6560 C.3    86  ARG86       0.0334
    138  CG       -40.9510    7.4030   15.1290 C.3    86  ARG86       0.0492
    139  CD       -39.6480    7.0920   14.4580 C.3    86  ARG86       0.2205
    140  NE       -38.4910    7.4900   15.2470 N.pl3  86  ARG86      -0.0865
    141  CZ       -37.5700    6.6390   15.6910 C.cat  86  ARG86       0.5346
    142  NH1      -37.6790    5.3430   15.4240 N.pl3  86  ARG86       0.1354
    143  NH2      -36.5410    7.0820   16.4090 N.pl3  86  ARG86       0.1354
    144  N        -42.3660   19.2990    8.8640 N.3   136  ASN136     -0.1240
    145  CA       -42.8630   18.4430    7.7900 C.3   136  ASN136      0.1653
    146  C        -41.7490   17.5410    7.2350 C.2   136  ASN136      0.2266
    147  O        -41.7450   17.1660    6.0570 O.2   136  ASN136     -0.2867
    148  CB       -43.5100   19.2990    6.6920 C.3   136  ASN136      0.1155
    149  CG       -44.2970   18.4800    5.6790 C.2   136  ASN136      0.2627
    150  OD1      -44.9530   17.4940    6.0150 O.2   136  ASN136     -0.2716
    151  ND2      -44.2220   18.8900    4.4180 N.am  136  ASN136     -0.0877
    152  N        -40.0330   13.8110    8.4440 N.3   138  PHE138     -0.1241
    153  CA       -40.3630   12.7400    9.3690 C.3   138  PHE138      0.1605
    154  C        -39.2910   11.6550    9.4760 C.2   138  PHE138      0.2264
    155  O        -38.3500   11.6140    8.6880 O.2   138  PHE138     -0.2867
    156  CB       -41.7100   12.1000    9.0180 C.3   138  PHE138      0.0534
    157  CG       -42.8650   13.0720    8.9940 C.ar  138  PHE138     -0.0203
    158  CD1      -43.3320   13.6510   10.1610 C.ar  138  PHE138     -0.0042
    159  CD2      -43.5010   13.3880    7.7990 C.ar  138  PHE138     -0.0042
    160  CE1      -44.4000   14.5480   10.1300 C.ar  138  PHE138     -0.0003
    161  CE2      -44.5690   14.2730    7.7660 C.ar  138  PHE138     -0.0003
    162  CZ       -45.0130   14.8620    8.9250 C.ar  138  PHE138     -0.0000
    163  N        -39.0130   13.0350    3.5650 N.3   147  VAL147     -0.1231
    164  CA       -39.6810   14.3150    3.3060 C.3   147  VAL147      0.1692
    165  C        -41.1800   14.1120    3.5250 C.2   147  VAL147      0.2593
    166  O        -41.7250   13.0410    3.2380 O.2   147  VAL147     -0.2718
    167  CB       -39.3990   14.8980    1.9070 C.3   147  VAL147      0.0266
    168  CG1      -37.9250   15.1960    1.7630 C.3   147  VAL147      0.0020
    169  CG2      -39.8960   13.9570    0.8040 C.3   147  VAL147      0.0020
    170  N        -41.8440   15.1320    4.0480 N.am  148  GLY148     -0.1942
    171  CA       -43.2460   15.0080    4.3800 C.3   148  GLY148      0.2014
    172  C        -44.2530   15.2440    3.2690 C.2   148  GLY148      0.2639
    173  O        -43.9500   15.1500    2.0630 O.2   148  GLY148     -0.2714
    174  N        -45.4720   15.5490    3.7010 N.am  149  ASP149     -0.1957
    175  CA       -46.6180   15.7190    2.8220 C.3   149  ASP149      0.1840
    176  C        -46.3250   16.7800    1.7580 C.2   149  ASP149      0.2622
    177  O        -45.7980   17.8430    2.0660 O.2   149  ASP149     -0.2715
    178  CB       -47.8200   16.1310    3.6650 C.3   149  ASP149      0.1450
    179  CG       -49.1300   16.0730    2.9020 C.2   149  ASP149      0.3671
    180  OD1      -49.1830   15.4980    1.7850 O.co2 149  ASP149     -0.2456
    181  OD2      -50.1230   16.5920    3.4500 O.co2 149  ASP149     -0.2456
    182  N        -46.6470   16.4750    0.5070 N.am  150  PHE150     -0.1974
    183  CA       -46.5060   17.4370   -0.5900 C.3   150  PHE150      0.1639
    184  C        -47.4900   17.0430   -1.6890 C.2   150  PHE150      0.2290
    185  O        -48.0850   15.9600   -1.6340 O.2   150  PHE150     -0.2864
    186  CB       -45.0590   17.4680   -1.1390 C.3   150  PHE150      0.0560
    187  CG       -44.6370   16.1820   -1.8170 C.ar  150  PHE150     -0.0200
    188  CD1      -44.5420   16.1060   -3.2020 C.ar  150  PHE150     -0.0042
    189  CD2      -44.3600   15.0410   -1.0670 C.ar  150  PHE150     -0.0042
    190  CE1      -44.1570   14.9210   -3.8250 C.ar  150  PHE150     -0.0003
    191  CE2      -43.9810   13.8610   -1.6720 C.ar  150  PHE150     -0.0003
    192  CZ       -43.8840   13.7970   -3.0630 C.ar  150  PHE150     -0.0000
    193  N        -50.8900   17.7950   -4.4580 N.3   152  LEU152     -0.1245
    194  CA       -52.3370   17.9560   -4.2950 C.3   152  LEU152      0.1561
    195  C        -52.7340   19.3230   -3.7310 C.2   152  LEU152      0.2260
    196  O        -53.6340   19.4170   -2.9070 O.2   152  LEU152     -0.2867
    197  CB       -52.8950   16.8410   -3.4080 C.3   152  LEU152      0.0270
    198  CG       -52.3180   15.4430   -3.6470 C.3   152  LEU152      0.0019
    199  CD1      -52.7970   14.4950   -2.5810 C.3   152  LEU152      0.0001
    200  CD2      -52.6700   14.9060   -5.0270 C.3   152  LEU152      0.0001
@<TRIPOS>BOND
     1    41    42    1
     2    36    37    2
     3    36    35    1
     4    34    35    1
     5    61    59    1
     6    35    38    1
     7    54    55    1
     8    51    52    2
     9    51    50    1
    10    42    43    1
    11    42    45    1
    12    38    39    1
    13    38    40    1
    14    59    60    1
    15    59    58    1
    16    49    43   am
    17    49    50    1
    18    53    50    1
    19    55    58    1
    20    55    56    1
    21    43    44    2
    22    48    46    1
    23    46    45    1
    24    46    47    1
    25    56    57    2
    26   200   198    1
    27   193   194    1
    28   194   195    1
    29   194   197    1
    30    88    87    1
    31    86    87   ar
    32    86    84   ar
    33   190   188   ar
    34   190   192   ar
    35   195   196    2
    36   198   197    1
    37   198   199    1
    38    92    91    2
    39    87    85   ar
    40    69    67    1
    41    93    90    1
    42    84    82   ar
    43   188   187   ar
    44   192   191   ar
    45    91    90    1
    46    85    83   ar
    47    90    89    1
    48    82    83   ar
    49    82    81    1
    50    67    66    1
    51   187   186    1
    52   187   189   ar
    53   184   185    2
    54   184   183    1
    55   191   189   ar
    56    68    66    1
    57    81    78    1
    58    66    63    1
    59   186   183    1
    60   101    99    1
    61    80    79    2
    62   183   182    1
    63    99    98    1
    64    79    78    1
    65    78    77    1
    66    63    62    1
    67    63    64    1
    68   100    98    1
    69   182   176   am
    70    73    72    2
    71    98    95    1
    72   169   167    1
    73    65    64    2
    74    64    70   am
    75    95    94    1
    76    95    96    1
    77   108   109    1
    78   108   107    1
    79    72    71    1
    80   176   177    2
    81   176   175    1
    82   168   167    1
    83    70    71    1
    84   180   179   ar
    85   167   164    1
    86   173   172    2
    87    33    32    1
    88    96    97    2
    89    71    74    1
    90   175   178    1
    91   175   174    1
    92   179   181   ar
    93   179   178    1
    94   107   106    1
    95    31    32    1
    96    31    30    1
    97   166   165    2
    98    28    27    2
    99   172   174   am
   100   172   171    1
   101   164   165    1
   102   164   163    1
   103    74    76    1
   104    74    75    1
   105   165   170   am
   106    30    29    1
   107   103   102    1
   108   103   106    1
   109   103   104    1
   110   170   171    1
   111    29    26    1
   112    27    26    1
   113   151   149   am
   114    26    25    1
   115   110   104   am
   116   110   111    1
   117   104   105    2
   118   149   150    2
   119   149   148    1
   120   114   111    1
   121   114   115    1
   122   147   146    2
   123   111   112    1
   124    23    22    2
   125   117   116    2
   126   118   116   am
   127   148   145    1
   128   116   115    1
   129   113   112    2
   130   146   145    1
   131   112   119   am
   132    22    21    1
   133    19    17    1
   134   161   159   ar
   135   161   162   ar
   136   145   144    1
   137   159   157   ar
   138   132   131    1
   139    18    17    1
   140    24    21    1
   141   152   153    1
   142   119   120    1
   143    21    20    1
   144    17    14    1
   145   155   154    2
   146    13    14    1
   147    14    15    1
   148   162   160   ar
   149   157   156    1
   150   157   158   ar
   151   156   153    1
   152   153   154    1
   153   120   121    1
   154   120   123    1
   155   131   128    1
   156    15    16    2
   157   160   158   ar
   158   121   127   am
   159   121   122    2
   160   127   128    1
   161    12    11    2
   162   128   129    1
   163   123   124    1
   164    11    10    1
   165    10     9    1
   166   125   124    1
   167     7     6    1
   168   129   130    2
   169   129   133   am
   170   124   126    1
   171     9     3   am
   172     5     6    1
   173     5     2    1
   174   133   134    1
   175     3     4    2
   176     3     2    1
   177     6     8    1
   178     2     1    1
   179   136   135    2
   180   134   135    1
   181   134   137    1
   182   139   138    1
   183   139   140    1
   184   137   138    1
   185   140   141    2
   186   142   141    1
   187   141   143    1
