@<TRIPOS>MOLECULE
tmp/4g34A00.pdb
 195 183 0 0 0
SMALL
GASTEIGER

@<TRIPOS>ATOM
      1  N         53.6480  -14.0080   13.4860 N.3    13  LEU13      -0.1231
      2  CA        52.2070  -14.2450   13.3910 C.3    13  LEU13       0.1693
      3  C         51.8310  -15.6480   12.9180 C.2    13  LEU13       0.2592
      4  O         50.7740  -16.1630   13.2820 O.2    13  LEU13      -0.2718
      5  CB        51.5520  -13.2100   12.4790 C.3    13  LEU13       0.0284
      6  CG        51.4540  -11.7590   12.9560 C.3    13  LEU13       0.0019
      7  CD1       51.0580  -10.8710   11.7840 C.3    13  LEU13       0.0001
      8  CD2       50.4740  -11.6030   14.1200 C.3    13  LEU13       0.0001
      9  N         52.6880  -16.2540   12.1000 N.am   14  GLY14      -0.1957
     10  CA        52.4410  -17.5980   11.5740 C.3    14  GLY14       0.1869
     11  C         53.6360  -18.1870   10.8510 C.2    14  GLY14       0.2309
     12  O         54.4540  -17.4580   10.2860 O.2    14  GLY14      -0.2863
     13  N         55.1550  -15.1290    8.6030 N.3    21  VAL21      -0.1245
     14  CA        54.4860  -13.8350    8.6570 C.3    21  VAL21       0.1561
     15  C         54.8300  -13.1230    9.9630 C.2    21  VAL21       0.2260
     16  O         54.7290  -13.7110   11.0440 O.2    21  VAL21      -0.2867
     17  CB        52.9570  -13.9700    8.4900 C.3    21  VAL21       0.0252
     18  CG1       52.2950  -12.5990    8.4980 C.3    21  VAL21       0.0019
     19  CG2       52.6300  -14.6960    7.1970 C.3    21  VAL21       0.0019
     20  N         51.3650   -6.7500    8.5120 N.3    34  ALA34      -0.1245
     21  CA        51.6560   -8.1720    8.4530 C.3    34  ALA34       0.1562
     22  C         52.5830   -8.3740    7.2570 C.2    34  ALA34       0.2260
     23  O         52.2390   -8.0170    6.1260 O.2    34  ALA34      -0.2867
     24  CB        50.3720   -8.9780    8.3000 C.3    34  ALA34       0.0290
     25  N         54.8330  -11.0800    5.1220 N.3    36  LYS36      -0.1245
     26  CA        55.1840  -12.4480    4.8070 C.3    36  LYS36       0.1561
     27  C         56.5250  -12.5010    4.0820 C.2    36  LYS36       0.2260
     28  O         56.7510  -11.7820    3.1080 O.2    36  LYS36      -0.2867
     29  CB        54.0900  -13.1060    3.9660 C.3    36  LYS36       0.0271
     30  CG        54.2640  -14.6020    3.7730 C.3    36  LYS36       0.0035
     31  CD        53.2320  -15.1430    2.8130 C.3    36  LYS36       0.0206
     32  CE        53.2340  -16.6520    2.8220 C.3    36  LYS36       0.1093
     33  NZ        52.2880  -17.1790    1.8100 N.3    36  LYS36      -0.1314
     34  N         52.9430  -12.8220   -7.9900 N.3    54  VAL54      -0.1245
     35  CA        52.9630  -11.5640   -7.2320 C.3    54  VAL54       0.1561
     36  C         52.2890  -10.4370   -8.0190 C.2    54  VAL54       0.2260
     37  O         51.4900   -9.6820   -7.4640 O.2    54  VAL54      -0.2867
     38  CB        54.4160  -11.1400   -6.8130 C.3    54  VAL54       0.0252
     39  CG1       54.4140   -9.7860   -6.1180 C.3    54  VAL54       0.0019
     40  CG2       55.0380  -12.1750   -5.9000 C.3    54  VAL54       0.0019
     41  N         48.4760  -10.9060   -7.9910 N.3    57  LEU57      -0.1231
     42  CA        47.8490  -10.6290   -6.7000 C.3    57  LEU57       0.1693
     43  C         47.7950   -9.1310   -6.3950 C.2    57  LEU57       0.2591
     44  O         46.7940   -8.6440   -5.8740 O.2    57  LEU57      -0.2718
     45  CB        48.5500  -11.3850   -5.5620 C.3    57  LEU57       0.0284
     46  CG        48.5830  -12.9160   -5.6050 C.3    57  LEU57       0.0019
     47  CD1       49.5080  -13.4550   -4.5320 C.3    57  LEU57       0.0001
     48  CD2       47.1930  -13.5370   -5.4870 C.3    57  LEU57       0.0001
     49  N         48.8610   -8.4080   -6.7360 N.am   58  ALA58      -0.1980
     50  CA        48.9540   -6.9580   -6.5020 C.3    58  ALA58       0.1597
     51  C         47.8450   -6.1340   -7.1720 C.2    58  ALA58       0.2287
     52  O         47.5510   -5.0220   -6.7360 O.2    58  ALA58      -0.2864
     53  CB        50.3250   -6.4330   -6.9240 C.3    58  ALA58       0.0319
     54  N         44.7660   -7.0260   -7.1630 N.3    60  LEU60      -0.1245
     55  CA        43.5140   -7.3750   -6.5020 C.3    60  LEU60       0.1561
     56  C         43.0560   -6.3570   -5.4610 C.2    60  LEU60       0.2260
     57  O         43.7780   -6.0430   -4.5050 O.2    60  LEU60      -0.2867
     58  CB        43.5860   -8.7800   -5.9010 C.3    60  LEU60       0.0270
     59  CG        43.7650   -9.9340   -6.8910 C.3    60  LEU60       0.0019
     60  CD1       43.9880  -11.2490   -6.1500 C.3    60  LEU60       0.0001
     61  CD2       42.5800  -10.0360   -7.8520 C.3    60  LEU60       0.0001
     62  N         39.2720   -9.0520    0.6000 N.3    65  ILE65      -0.1231
     63  CA        40.6570   -9.4190    0.3580 C.3    65  ILE65       0.1692
     64  C         41.5720   -8.4430    1.0940 C.2    65  ILE65       0.2591
     65  O         41.3690   -7.2280    1.0190 O.2    65  ILE65      -0.2718
     66  CB        40.9370   -9.4810   -1.1680 C.3    65  ILE65       0.0266
     67  CG1       40.4980  -10.8420   -1.6960 C.3    65  ILE65       0.0019
     68  CG2       42.4170   -9.2370   -1.5030 C.3    65  ILE65       0.0020
     69  CD1       40.2440  -10.8540   -3.1360 C.3    65  ILE65       0.0001
     70  N         42.5610   -8.9740    1.8180 N.am   66  VAL66      -0.1980
     71  CA        43.4320   -8.1380    2.6630 C.3    66  VAL66       0.1595
     72  C         44.1560   -7.1050    1.7990 C.2    66  VAL66       0.2287
     73  O         44.7140   -7.4530    0.7540 O.2    66  VAL66      -0.2864
     74  CB        44.4560   -8.9860    3.5040 C.3    66  VAL66       0.0276
     75  CG1       45.3390   -8.0960    4.3560 C.3    66  VAL66       0.0022
     76  CG2       43.7370   -9.9850    4.3960 C.3    66  VAL66       0.0022
     77  N         46.7310   -4.7910    0.1200 N.3    68  TYR68      -0.1241
     78  CA        48.1540   -4.9270   -0.2180 C.3    68  TYR68       0.1605
     79  C         48.8900   -3.5820   -0.1610 C.2    68  TYR68       0.2264
     80  O         48.3220   -2.5510   -0.5380 O.2    68  TYR68      -0.2867
     81  CB        48.2890   -5.5450   -1.6120 C.3    68  TYR68       0.0534
     82  CG        49.6460   -5.3920   -2.2830 C.ar   68  TYR68      -0.0201
     83  CD1       50.7200   -6.2270   -1.9470 C.ar   68  TYR68      -0.0009
     84  CD2       49.8460   -4.4260   -3.2760 C.ar   68  TYR68      -0.0009
     85  CE1       51.9600   -6.0900   -2.5740 C.ar   68  TYR68       0.0417
     86  CE2       51.0830   -4.2800   -3.9050 C.ar   68  TYR68       0.0417
     87  CZ        52.1320   -5.1130   -3.5520 C.ar   68  TYR68       0.1957
     88  OH        53.3470   -4.9630   -4.1850 O.3    68  TYR68      -0.2866
     89  N         56.2430   -9.6140    1.2790 N.3    82  ILE82      -0.1245
     90  CA        54.9370   -9.0330    0.9400 C.3    82  ILE82       0.1561
     91  C         54.3050   -8.3680    2.1670 C.2    82  ILE82       0.2260
     92  O         53.9950   -9.0360    3.1600 O.2    82  ILE82      -0.2867
     93  CB        53.9610  -10.0760    0.3390 C.3    82  ILE82       0.0252
     94  CG1       54.5780  -10.7540   -0.8830 C.3    82  ILE82       0.0019
     95  CG2       52.6530   -9.4110   -0.0750 C.3    82  ILE82       0.0019
     96  CD1       53.7870  -11.9340   -1.4030 C.3    82  ILE82       0.0001
     97  N         51.3100   -6.5900    3.9570 N.3    84  MET84      -0.1230
     98  CA        49.8440   -6.5210    3.9370 C.3    84  MET84       0.1702
     99  C         49.2940   -5.7980    5.1600 C.2    84  MET84       0.2592
    100  O         49.9910   -5.6630    6.1720 O.2    84  MET84      -0.2718
    101  CB        49.2420   -7.9250    3.8900 C.3    84  MET84       0.0401
    102  CG        49.7810   -8.8020    2.7880 C.3    84  MET84       0.0596
    103  SD        49.3200   -8.2610    1.1330 S.3    84  MET84      -0.1393
    104  CE        47.6020   -8.7530    1.0950 C.3    84  MET84       0.0692
    105  N         48.0470   -5.3370    5.0660 N.am   85  GLN85      -0.1966
    106  CA        47.3540   -4.7830    6.2180 C.3    85  GLN85       0.1733
    107  C         47.3350   -5.8170    7.3290 C.2    85  GLN85       0.2616
    108  O         47.0890   -6.9980    7.0740 O.2    85  GLN85      -0.2715
    109  CB        45.9150   -4.3660    5.8720 C.3    85  GLN85       0.0408
    110  CG        45.2090   -3.6640    7.0430 C.3    85  GLN85       0.0908
    111  CD        43.8690   -3.0520    6.6760 C.2    85  GLN85       0.2608
    112  OE1       42.8750   -3.7640    6.4780 O.2    85  GLN85      -0.2717
    113  NE2       43.8280   -1.7170    6.6050 N.am   85  GLN85      -0.0878
    114  N         47.6080   -5.3700    8.5520 N.am   86  LEU86      -0.1963
    115  CA        47.5440   -6.2300    9.7270 C.3    86  LEU86       0.1728
    116  C         46.1090   -6.4030   10.2190 C.2    86  LEU86       0.2616
    117  O         45.4690   -5.4370   10.6260 O.2    86  LEU86      -0.2715
    118  CB        48.4140   -5.6530   10.8430 C.3    86  LEU86       0.0311
    119  CG        48.3730   -6.3400   12.2090 C.3    86  LEU86       0.0022
    120  CD1       49.1670   -7.6360   12.1740 C.3    86  LEU86       0.0001
    121  CD2       48.9000   -5.3920   13.2840 C.3    86  LEU86       0.0001
    122  N         45.6110   -7.6350   10.1790 N.am   87  CYS87      -0.1954
    123  CA        44.2740   -7.9500   10.6910 C.3    87  CYS87       0.1843
    124  C         44.3200   -8.2070   12.1960 C.2    87  CYS87       0.2625
    125  O         45.3980   -8.2060   12.7910 O.2    87  CYS87      -0.2714
    126  CB        43.6750   -9.1470    9.9490 C.3    87  CYS87       0.0997
    127  SG        43.2890   -8.8070    8.2100 S.3    87  CYS87      -0.0797
    128  N         43.1560   -8.4200   12.8070 N.am   88  ARG88      -0.1977
    129  CA        43.0620   -8.6620   14.2480 C.3    88  ARG88       0.1597
    130  C         43.7420   -9.9520   14.6830 C.2    88  ARG88       0.2287
    131  O         43.9270  -10.8610   13.8730 O.2    88  ARG88      -0.2864
    132  CB        41.6020   -8.7200   14.6770 C.3    88  ARG88       0.0334
    133  CG        40.9170   -7.3900   14.7410 C.3    88  ARG88       0.0492
    134  CD        39.5020   -7.5640   15.2430 C.3    88  ARG88       0.2205
    135  NE        38.7590   -6.3110   15.1570 N.pl3  88  ARG88      -0.0865
    136  CZ        37.4820   -6.1630   15.4940 C.cat  88  ARG88       0.5346
    137  NH1       36.7760   -7.1940   15.9490 N.pl3  88  ARG88       0.1354
    138  NH2       36.9090   -4.9740   15.3710 N.pl3  88  ARG88       0.1354
    139  N         42.5440  -19.2820    8.8720 N.3   138  ASN138     -0.1240
    140  CA        43.0170  -18.4470    7.7700 C.3   138  ASN138      0.1653
    141  C         41.8850  -17.5740    7.2220 C.2   138  ASN138      0.2266
    142  O         41.7960  -17.3150    6.0270 O.2   138  ASN138     -0.2867
    143  CB        43.6280  -19.3190    6.6660 C.3   138  ASN138      0.1155
    144  CG        44.5190  -18.5340    5.7060 C.2   138  ASN138      0.2627
    145  OD1       45.2170  -17.5920    6.0990 O.2   138  ASN138     -0.2716
    146  ND2       44.5040  -18.9320    4.4380 N.am  138  ASN138     -0.0877
    147  N         40.1630  -13.8210    8.5240 N.3   140  PHE140     -0.1241
    148  CA        40.5190  -12.7590    9.4500 C.3   140  PHE140      0.1605
    149  C         39.4670  -11.6630    9.5720 C.2   140  PHE140      0.2264
    150  O         38.4940  -11.6400    8.8240 O.2   140  PHE140     -0.2867
    151  CB        41.8820  -12.1670    9.0680 C.3   140  PHE140      0.0534
    152  CG        42.9880  -13.1840    9.0090 C.ar  140  PHE140     -0.0203
    153  CD1       43.5210  -13.7200   10.1720 C.ar  140  PHE140     -0.0042
    154  CD2       43.4910  -13.6150    7.7870 C.ar  140  PHE140     -0.0042
    155  CE1       44.5390  -14.6740   10.1190 C.ar  140  PHE140     -0.0003
    156  CE2       44.5070  -14.5650    7.7270 C.ar  140  PHE140     -0.0003
    157  CZ        45.0300  -15.0930    8.8970 C.ar  140  PHE140     -0.0000
    158  N         39.1900  -12.9150    3.7900 N.3   149  VAL149     -0.1231
    159  CA        39.7690  -14.1600    3.3480 C.3   149  VAL149      0.1692
    160  C         41.2980  -14.0920    3.5570 C.2   149  VAL149      0.2593
    161  O         41.9230  -13.0540    3.3300 O.2   149  VAL149     -0.2718
    162  CB        39.3240  -14.3960    1.8880 C.3   149  VAL149      0.0266
    163  CG1       40.4740  -14.7090    0.9490 C.3   149  VAL149      0.0020
    164  CG2       38.2020  -15.4050    1.8440 C.3   149  VAL149      0.0020
    165  N         41.8900  -15.1850    4.0250 N.am  150  GLY150     -0.1942
    166  CA        43.2800  -15.1600    4.4620 C.3   150  GLY150      0.2014
    167  C         44.3330  -15.3030    3.3810 C.2   150  GLY150      0.2639
    168  O         44.0630  -15.0860    2.1910 O.2   150  GLY150     -0.2714
    169  N         45.5400  -15.6700    3.8180 N.am  151  ASP151     -0.1957
    170  CA        46.6920  -15.8790    2.9460 C.3   151  ASP151      0.1840
    171  C         46.3820  -16.9160    1.8800 C.2   151  ASP151      0.2622
    172  O         45.7440  -17.9310    2.1690 O.2   151  ASP151     -0.2715
    173  CB        47.8850  -16.3540    3.7790 C.3   151  ASP151      0.1450
    174  CG        49.2200  -16.2200    3.0490 C.2   151  ASP151      0.3671
    175  OD1       49.2870  -15.6060    1.9580 O.co2 151  ASP151     -0.2456
    176  OD2       50.2170  -16.7290    3.5980 O.co2 151  ASP151     -0.2456
    177  N         46.8260  -16.6460    0.6530 N.am  152  PHE152     -0.1974
    178  CA        46.6700  -17.5700   -0.4700 C.3   152  PHE152      0.1639
    179  C         47.6270  -17.1800   -1.5760 C.2   152  PHE152      0.2290
    180  O         48.2870  -16.1460   -1.4980 O.2   152  PHE152     -0.2864
    181  CB        45.2250  -17.5600   -1.0030 C.3   152  PHE152      0.0560
    182  CG        44.8540  -16.3070   -1.7650 C.ar  152  PHE152     -0.0200
    183  CD1       44.5280  -15.1270   -1.0880 C.ar  152  PHE152     -0.0042
    184  CD2       44.8330  -16.3050   -3.1600 C.ar  152  PHE152     -0.0042
    185  CE1       44.1920  -13.9690   -1.7870 C.ar  152  PHE152     -0.0003
    186  CE2       44.4970  -15.1500   -3.8620 C.ar  152  PHE152     -0.0003
    187  CZ        44.1770  -13.9800   -3.1700 C.ar  152  PHE152     -0.0000
    188  N         50.5930  -18.2380   -3.2260 N.3   154  LEU154     -0.1245
    189  CA        51.9880  -18.5780   -3.5390 C.3   154  LEU154      0.1561
    190  C         52.4150  -19.9650   -3.0670 C.2   154  LEU154      0.2260
    191  O         53.3750  -20.5320   -3.5890 O.2   154  LEU154     -0.2867
    192  CB        52.9280  -17.4990   -2.9990 C.3   154  LEU154      0.0270
    193  CG        52.8500  -16.1920   -3.7890 C.3   154  LEU154      0.0019
    194  CD1       52.9390  -14.9940   -2.8850 C.3   154  LEU154      0.0001
    195  CD2       53.9380  -16.1400   -4.8420 C.3   154  LEU154      0.0001
@<TRIPOS>BOND
     1    36    37    2
     2    36    35    1
     3    41    42    1
     4    34    35    1
     5    61    59    1
     6    35    38    1
     7    51    52    2
     8    51    50    1
     9    54    55    1
    10    53    50    1
    11    59    60    1
    12    59    58    1
    13    38    39    1
    14    38    40    1
    15    49    50    1
    16    49    43   am
    17    42    43    1
    18    42    45    1
    19    55    58    1
    20    55    56    1
    21    43    44    2
    22    46    45    1
    23    46    48    1
    24    46    47    1
    25    56    57    2
    26   195   193    1
    27    88    87    1
    28    86    87   ar
    29    86    84   ar
    30   186   187   ar
    31   186   184   ar
    32   193   192    1
    33   193   194    1
    34   191   190    2
    35    87    85   ar
    36   189   188    1
    37   189   190    1
    38   189   192    1
    39    84    82   ar
    40   187   185   ar
    41   184   182   ar
    42    69    67    1
    43    85    83   ar
    44    82    83   ar
    45    82    81    1
    46   185   183   ar
    47   182   183   ar
    48   182   181    1
    49    67    66    1
    50    81    78    1
    51   179   180    2
    52   179   178    1
    53    68    66    1
    54    96    94    1
    55    66    63    1
    56   181   178    1
    57    94    93    1
    58    80    79    2
    59   178   177    1
    60    78    79    1
    61    78    77    1
    62    95    93    1
    63    93    90    1
    64    63    62    1
    65    63    64    1
    66   177   171   am
    67    73    72    2
    68    90    89    1
    69    90    91    1
    70   163   162    1
    71    65    64    2
    72    64    70   am
    73   104   103    1
    74   103   102    1
    75    72    71    1
    76    33    32    1
    77    70    71    1
    78   164   162    1
    79   171   172    2
    80   171   170    1
    81   162   159    1
    82   175   174   ar
    83    91    92    2
    84   168   167    2
    85    71    74    1
    86   102   101    1
    87    31    32    1
    88    31    30    1
    89   170   173    1
    90   170   169    1
    91   174   176   ar
    92   174   173    1
    93    28    27    2
    94   161   160    2
    95   159   160    1
    96   159   158    1
    97   167   169   am
    98   167   166    1
    99    74    75    1
   100    74    76    1
   101   160   165   am
   102    30    29    1
   103   101    98    1
   104    98    97    1
   105    98    99    1
   106    29    26    1
   107   165   166    1
   108    27    26    1
   109   146   144   am
   110    26    25    1
   111   105    99   am
   112   105   106    1
   113    99   100    2
   114   144   145    2
   115   144   143    1
   116   109   106    1
   117   109   110    1
   118   142   141    2
   119    23    22    2
   120   106   107    1
   121   112   111    2
   122   113   111   am
   123   143   140    1
   124   111   110    1
   125   108   107    2
   126    19    17    1
   127   141   140    1
   128    22    21    1
   129   107   114   am
   130   156   154   ar
   131   156   157   ar
   132   140   139    1
   133   154   152   ar
   134   127   126    1
   135    24    21    1
   136    21    20    1
   137    17    18    1
   138    17    14    1
   139   147   148    1
   140   114   115    1
   141    13    14    1
   142    14    15    1
   143   150   149    2
   144   157   155   ar
   145   152   151    1
   146   152   153   ar
   147   151   148    1
   148   148   149    1
   149   115   116    1
   150   115   118    1
   151   126   123    1
   152    15    16    2
   153   155   153   ar
   154   122   116   am
   155   122   123    1
   156   116   117    2
   157    12    11    2
   158   123   124    1
   159   118   119    1
   160    11    10    1
   161    10     9    1
   162     7     6    1
   163     9     3   am
   164   120   119    1
   165   124   125    2
   166   124   128   am
   167   119   121    1
   168     5     6    1
   169     5     2    1
   170   128   129    1
   171     3     4    2
   172     3     2    1
   173     6     8    1
   174     2     1    1
   175   131   130    2
   176   129   132    1
   177   129   130    1
   178   132   133    1
   179   133   134    1
   180   135   134    1
   181   135   136    2
   182   138   136    1
   183   136   137    1
