@<TRIPOS>MOLECULE
tmp/4g3eA00.pdb
 198 184 0 0 0
SMALL
GASTEIGER

@<TRIPOS>ATOM
      1  N         60.3950   32.2220    1.9750 N.3    63  ARG63      -0.1231
      2  CA        60.2600   30.8130    1.6180 C.3    63  ARG63       0.1694
      3  C         59.8510   30.6840    0.1620 C.2    63  ARG63       0.2593
      4  O         59.5230   31.6760   -0.4900 O.2    63  ARG63      -0.2718
      5  CB        59.2620   30.1070    2.5390 C.3    63  ARG63       0.0321
      6  CG        59.9010   29.2920    3.6570 C.3    63  ARG63       0.0489
      7  CD        60.1360   27.8330    3.2560 C.3    63  ARG63       0.2205
      8  NE        61.5040   27.5460    2.8110 N.pl3  63  ARG63      -0.0865
      9  CZ        61.8320   27.1200    1.5910 C.cat  63  ARG63       0.5346
     10  NH1       63.1000   26.8900    1.2900 N.pl3  63  ARG63       0.1354
     11  NH2       60.8970   26.9200    0.6720 N.pl3  63  ARG63       0.1354
     12  N         59.9000   29.4660   -0.3620 N.am   64  GLY64      -0.1942
     13  CA        59.5540   29.2280   -1.7630 C.3    64  GLY64       0.2014
     14  C         60.7800   29.1200   -2.6500 C.2    64  GLY64       0.2639
     15  O         61.8790   29.5130   -2.2540 O.2    64  GLY64      -0.2714
     16  N         60.5920   28.5970   -3.8570 N.am   65  SER65      -0.1949
     17  CA        61.6890   28.4030   -4.8090 C.3    65  SER65       0.1924
     18  C         62.4540   29.6930   -5.1320 C.2    65  SER65       0.2314
     19  O         63.6740   29.6690   -5.3370 O.2    65  SER65      -0.2863
     20  CB        61.1570   27.7660   -6.0930 C.3    65  SER65       0.2116
     21  OG        60.6140   26.4820   -5.8170 O.3    65  SER65      -0.2180
     22  N         60.0380   34.0180   -2.5110 N.3    68  GLU68      -0.1231
     23  CA        59.0080   34.9740   -2.8760 C.3    68  GLU68       0.1699
     24  C         57.8130   34.9780   -1.9310 C.2    68  GLU68       0.2592
     25  O         56.8800   35.7580   -2.1110 O.2    68  GLU68      -0.2718
     26  CB        58.5480   34.7050   -4.3190 C.3    68  GLU68       0.0402
     27  CG        57.4880   33.6230   -4.4870 C.3    68  GLU68       0.1161
     28  CD        58.0120   32.1960   -4.4400 C.2    68  GLU68       0.3649
     29  OE1       59.2120   31.9400   -4.1550 O.co2  68  GLU68      -0.2457
     30  OE2       57.1850   31.3020   -4.6910 O.co2  68  GLU68      -0.2457
     31  N         57.8470   34.1070   -0.9310 N.am   69  VAL69      -0.1980
     32  CA        56.7360   33.9690    0.0020 C.3    69  VAL69       0.1595
     33  C         57.1810   34.5230    1.3520 C.2    69  VAL69       0.2287
     34  O         58.2420   34.1660    1.8340 O.2    69  VAL69      -0.2864
     35  CB        56.2680   32.4990    0.1010 C.3    69  VAL69       0.0276
     36  CG1       55.1760   32.3350    1.1460 C.3    69  VAL69       0.0022
     37  CG2       55.7690   32.0120   -1.2510 C.3    69  VAL69       0.0022
     38  N         50.3850   35.3490    5.1590 N.3    82  ALA82      -0.1245
     39  CA        51.4860   35.1780    4.2210 C.3    82  ALA82       0.1562
     40  C         51.1400   35.8000    2.8920 C.2    82  ALA82       0.2260
     41  O         49.9580   35.9520    2.5570 O.2    82  ALA82      -0.2867
     42  CB        51.8170   33.7010    4.0500 C.3    82  ALA82       0.0290
     43  N         52.4750   35.6820   -1.2970 N.3    84  LYS84      -0.1245
     44  CA        53.3380   35.2820   -2.3930 C.3    84  LYS84       0.1561
     45  C         53.3890   36.4170   -3.4040 C.2    84  LYS84       0.2260
     46  O         52.3420   36.9140   -3.8640 O.2    84  LYS84      -0.2867
     47  CB        52.8290   34.0030   -3.0670 C.3    84  LYS84       0.0271
     48  CG        53.7060   33.5530   -4.2290 C.3    84  LYS84       0.0035
     49  CD        53.0510   32.4780   -5.0830 C.3    84  LYS84       0.0206
     50  CE        54.0240   32.0140   -6.1520 C.3    84  LYS84       0.1093
     51  NZ        53.3490   31.1070   -7.1170 N.3    84  LYS84      -0.1314
     52  N         46.2350   31.0230  -11.5720 N.3    95  GLU95      -0.1245
     53  CA        46.6700   30.9110  -10.1840 C.3    95  GLU95       0.1567
     54  C         45.6170   31.4680   -9.2430 C.2    95  GLU95       0.2260
     55  O         45.4660   31.0070   -8.1200 O.2    95  GLU95      -0.2867
     56  CB        47.9910   31.6350   -9.9590 C.3    95  GLU95       0.0388
     57  CG        48.5500   31.4090   -8.5550 C.3    95  GLU95       0.1160
     58  CD        49.9980   31.8490   -8.3820 C.2    95  GLU95       0.3649
     59  OE1       50.5560   32.5350   -9.2850 O.co2  95  GLU95      -0.2457
     60  OE2       50.5760   31.5000   -7.3280 O.co2  95  GLU95      -0.2457
     61  N         41.2250   28.7260   -7.7860 N.3    99  CYS99      -0.1235
     62  CA        41.7600   29.0190   -6.4560 C.3    99  CYS99       0.1677
     63  C         40.7440   29.8530   -5.6640 C.2    99  CYS99       0.2270
     64  O         40.3980   29.5290   -4.5260 O.2    99  CYS99      -0.2867
     65  CB        43.0640   29.7930   -6.6450 C.3    99  CYS99       0.0956
     66  SG        43.9660   30.3630   -5.1980 S.3    99  CYS99      -0.0801
     67  N         44.9340   25.4000    1.0560 N.3   108  VAL108     -0.1245
     68  CA        45.2360   26.6420    1.7440 C.3   108  VAL108      0.1561
     69  C         44.2740   27.7390    1.3010 C.2   108  VAL108      0.2260
     70  O         44.0390   27.9220    0.0970 O.2   108  VAL108     -0.2867
     71  CB        46.6930   27.0710    1.4930 C.3   108  VAL108      0.0252
     72  CG1       46.9880   28.4270    2.1070 C.3   108  VAL108      0.0019
     73  CG2       47.6500   26.0310    2.0510 C.3   108  VAL108      0.0019
     74  N         42.8380   31.1920    0.1860 N.3   110  LEU110     -0.1245
     75  CA        43.2180   32.4610   -0.4350 C.3   110  LEU110      0.1561
     76  C         42.6350   33.6240    0.3720 C.2   110  LEU110      0.2260
     77  O         41.4440   33.6160    0.6820 O.2   110  LEU110     -0.2867
     78  CB        42.6950   32.4950   -1.8750 C.3   110  LEU110      0.0270
     79  CG        42.8960   33.7540   -2.7260 C.3   110  LEU110      0.0019
     80  CD1       44.3760   34.0140   -3.0020 C.3   110  LEU110      0.0001
     81  CD2       42.0880   33.6790   -4.0160 C.3   110  LEU110      0.0001
     82  N         49.7840   38.0450   -3.6480 N.3   122  ILE122     -0.1245
     83  CA        48.7250   37.1000   -3.2990 C.3   122  ILE122      0.1561
     84  C         48.7960   36.7220   -1.8130 C.2   122  ILE122      0.2260
     85  O         49.8300   36.2400   -1.3100 O.2   122  ILE122     -0.2867
     86  CB        48.7840   35.8280   -4.1690 C.3   122  ILE122      0.0252
     87  CG1       48.7530   36.2000   -5.6540 C.3   122  ILE122      0.0019
     88  CG2       47.6220   34.9180   -3.8190 C.3   122  ILE122      0.0019
     89  CD1       49.1850   35.0990   -6.5870 C.3   122  ILE122      0.0001
     90  N         47.2920   34.8920    1.7970 N.3   124  MET124     -0.1230
     91  CA        46.7770   33.5930    2.2130 C.3   124  MET124      0.1702
     92  C         47.0720   33.3180    3.6920 C.2   124  MET124      0.2592
     93  O         47.9030   33.9990    4.3130 O.2   124  MET124     -0.2718
     94  CB        47.4200   32.4990    1.3570 C.3   124  MET124      0.0401
     95  CG        48.9040   32.3730    1.6130 C.3   124  MET124      0.0596
     96  SD        49.7940   31.5670    0.2860 S.3   124  MET124     -0.1393
     97  CE        51.3710   32.4060    0.4250 C.3   124  MET124      0.0692
     98  N         46.4080   32.3010    4.2400 N.am  125  GLU125     -0.1966
     99  CA        46.6380   31.8940    5.6140 C.3   125  GLU125      0.1733
    100  C         48.1110   31.5250    5.8130 C.2   125  GLU125      0.2616
    101  O         48.7180   30.8980    4.9590 O.2   125  GLU125     -0.2715
    102  CB        45.7220   30.7300    5.9950 C.3   125  GLU125      0.0429
    103  CG        45.8170   30.3220    7.4680 C.3   125  GLU125      0.1163
    104  CD        45.0420   29.0530    7.8050 C.2   125  GLU125      0.3649
    105  OE1       45.2570   28.5000    8.9030 O.co2 125  GLU125     -0.2457
    106  OE2       44.2150   28.6010    6.9830 O.co2 125  GLU125     -0.2457
    107  N         48.6830   31.9490    6.9320 N.am  126  LEU126     -0.1963
    108  CA        50.0310   31.5520    7.2790 C.3   126  LEU126      0.1728
    109  C         49.9450   30.2180    7.9890 C.2   126  LEU126      0.2616
    110  O         49.3990   30.1330    9.0890 O.2   126  LEU126     -0.2715
    111  CB        50.7040   32.6050    8.1730 C.3   126  LEU126      0.0311
    112  CG        52.0540   32.2390    8.8130 C.3   126  LEU126      0.0022
    113  CD1       53.1580   32.0640    7.7820 C.3   126  LEU126      0.0001
    114  CD2       52.4510   33.2930    9.8230 C.3   126  LEU126      0.0001
    115  N         50.4530   29.1710    7.3490 N.am  127  LEU127     -0.1977
    116  CA        50.5120   27.8630    7.9890 C.3   127  LEU127      0.1596
    117  C         51.8390   27.6970    8.6880 C.2   127  LEU127      0.2287
    118  O         52.8780   27.6280    8.0420 O.2   127  LEU127     -0.2864
    119  CB        50.2270   26.7260    7.0040 C.3   127  LEU127      0.0297
    120  CG        48.7190   26.5340    6.7890 C.3   127  LEU127      0.0022
    121  CD1       48.1540   27.5630    5.8190 C.3   127  LEU127      0.0001
    122  CD2       48.4360   25.1480    6.2640 C.3   127  LEU127      0.0001
    123  N         55.1480   25.0260    8.6180 N.3   130  GLY130     -0.1210
    124  CA        56.0080   25.0050    7.4330 C.3   130  GLY130      0.1956
    125  C         55.5680   23.9880    6.3940 C.2   130  GLY130      0.2612
    126  O         54.5330   23.3380    6.5440 O.2   130  GLY130     -0.2717
    127  N         56.3650   23.8420    5.3400 N.am  131  SER131     -0.1952
    128  CA        56.0380   22.9410    4.2570 C.3   131  SER131      0.1924
    129  C         56.5620   21.5500    4.5220 C.2   131  SER131      0.2314
    130  O         57.5040   21.3560    5.2900 O.2   131  SER131     -0.2863
    131  CB        56.6190   23.4470    2.9430 C.3   131  SER131      0.2116
    132  OG        57.9730   23.0720    2.8090 O.3   131  SER131     -0.2180
    133  N         60.1870   21.2640    3.9600 N.3   134  GLN134     -0.1245
    134  CA        61.0430   21.6250    5.1180 C.3   134  GLN134      0.1566
    135  C         61.1570   20.4550    6.0950 C.2   134  GLN134      0.2260
    136  O         62.2310   20.1770    6.6230 O.2   134  GLN134     -0.2867
    137  CB        60.5140   22.8470    5.8860 C.3   134  GLN134      0.0367
    138  CG        60.4050   24.1480    5.0940 C.3   134  GLN134      0.0905
    139  CD        59.6680   25.2540    5.8530 C.2   134  GLN134      0.2608
    140  OE1       58.6480   25.7650    5.3880 O.2   134  GLN134     -0.2717
    141  NE2       60.1840   25.6230    7.0280 N.am  134  GLN134     -0.0878
    142  N         57.1210   20.5400   -1.2570 N.3   174  ASP174     -0.1225
    143  CA        57.2790   21.9810   -1.0750 C.3   174  ASP174      0.1805
    144  C         55.9510   22.7180   -1.1430 C.2   174  ASP174      0.2597
    145  O         55.8350   23.8370   -0.6390 O.2   174  ASP174     -0.2718
    146  CB        58.2320   22.5630   -2.1440 C.3   174  ASP174      0.1424
    147  CG        59.7170   22.4010   -1.7860 C.2   174  ASP174      0.3668
    148  OD1       60.0470   21.9230   -0.6780 O.co2 174  ASP174     -0.2456
    149  OD2       60.5680   22.7700   -2.6270 O.co2 174  ASP174     -0.2456
    150  N         54.9650   22.1000   -1.7880 N.am  175  ASN175     -0.1974
    151  CA        53.6560   22.7120   -2.0070 C.3   175  ASN175      0.1688
    152  C         52.5730   22.1340   -1.1070 C.2   175  ASN175      0.2292
    153  O         51.3750   22.3890   -1.2970 O.2   175  ASN175     -0.2864
    154  CB        53.2610   22.6190   -3.4900 C.3   175  ASN175      0.1181
    155  CG        54.0550   23.5930   -4.3680 C.2   175  ASN175      0.2629
    156  OD1       54.6480   24.5330   -3.8560 O.2   175  ASN175     -0.2716
    157  ND2       54.0660   23.3660   -5.6980 N.am  175  ASN175     -0.0877
    158  N         51.5830   22.3020    2.7260 N.3   177  LEU177     -0.1245
    159  CA        51.8820   23.0000    3.9850 C.3   177  LEU177      0.1561
    160  C         51.1900   22.3320    5.1660 C.2   177  LEU177      0.2260
    161  O         50.1550   21.6760    4.9880 O.2   177  LEU177     -0.2867
    162  CB        51.5120   24.4830    3.9000 C.3   177  LEU177      0.0270
    163  CG        51.9280   25.2330    2.6270 C.3   177  LEU177      0.0019
    164  CD1       51.4800   26.6880    2.7010 C.3   177  LEU177      0.0001
    165  CD2       53.4240   25.1200    2.3480 C.3   177  LEU177      0.0001
    166  N         47.2650   21.6800    0.3210 N.3   187  LEU187     -0.1231
    167  CA        47.9000   22.0740   -0.9310 C.3   187  LEU187      0.1693
    168  C         47.9390   23.5900   -1.0560 C.2   187  LEU187      0.2592
    169  O         46.9540   24.2690   -0.7600 O.2   187  LEU187     -0.2718
    170  CB        47.1390   21.4900   -2.1200 C.3   187  LEU187      0.0284
    171  CG        47.0510   19.9630   -2.1720 C.3   187  LEU187      0.0019
    172  CD1       46.1650   19.5050   -3.3160 C.3   187  LEU187      0.0001
    173  CD2       48.4380   19.3710   -2.3360 C.3   187  LEU187      0.0001
    174  N         49.0810   24.1120   -1.4930 N.am  188  CYS188     -0.1956
    175  CA        49.1930   25.5120   -1.8590 C.3   188  CYS188      0.1843
    176  C         49.8250   25.6040   -3.2240 C.2   188  CYS188      0.2625
    177  O         50.1350   24.5730   -3.8320 O.2   188  CYS188     -0.2714
    178  CB        50.0540   26.2750   -0.8580 C.3   188  CYS188      0.0997
    179  SG        51.7630   25.7080   -0.8420 S.3   188  CYS188     -0.0797
    180  N         50.0170   26.8470   -3.6760 N.am  189  ASP189     -0.1957
    181  CA        50.7020   27.2090   -4.9330 C.3   189  ASP189      0.1840
    182  C         50.0530   26.7280   -6.2220 C.2   189  ASP189      0.2622
    183  O         50.4700   25.7220   -6.7940 O.2   189  ASP189     -0.2715
    184  CB        52.1850   26.8130   -4.9300 C.3   189  ASP189      0.1450
    185  CG        53.0280   27.6940   -5.8530 C.2   189  ASP189      0.3671
    186  OD1       54.2500   27.4230   -5.9700 O.co2 189  ASP189     -0.2456
    187  OD2       52.4860   28.6630   -6.4510 O.co2 189  ASP189     -0.2456
    188  N         49.0700   27.4820   -6.6900 N.am  190  PHE190     -0.1974
    189  CA        48.3920   27.2110   -7.9540 C.3   190  PHE190      0.1639
    190  C         49.0430   27.9110   -9.1540 C.2   190  PHE190      0.2290
    191  O         48.3830   28.1390  -10.1710 O.2   190  PHE190     -0.2864
    192  CB        46.9010   27.5950   -7.8380 C.3   190  PHE190      0.0560
    193  CG        46.1170   26.6810   -6.9360 C.ar  190  PHE190     -0.0200
    194  CD1       45.3830   25.6290   -7.4660 C.ar  190  PHE190     -0.0042
    195  CD2       46.1400   26.8520   -5.5510 C.ar  190  PHE190     -0.0042
    196  CE1       44.6720   24.7740   -6.6350 C.ar  190  PHE190     -0.0003
    197  CE2       45.4390   25.9980   -4.7150 C.ar  190  PHE190     -0.0003
    198  CZ        44.7020   24.9580   -5.2580 C.ar  190  PHE190     -0.0000
@<TRIPOS>BOND
     1    52    53    1
     2    53    56    1
     3    53    54    1
     4   191   190    2
     5    56    57    1
     6    59    58   ar
     7    54    55    2
     8   190   189    1
     9    57    58    1
    10    58    60   ar
    11   189   192    1
    12   189   188    1
    13   192   193    1
    14    61    62    1
    15   194   193   ar
    16   194   196   ar
    17    51    50    1
    18   193   195   ar
    19   183   182    2
    20   188   182   am
    21    65    62    1
    22    65    66    1
    23   196   198   ar
    24    89    87    1
    25    62    63    1
    26   187   185   ar
    27   182   181    1
    28    50    49    1
    29    20    21    1
    30    20    17    1
    31   186   185   ar
    32   185   184    1
    33   157   155   am
    34    63    64    2
    35    87    86    1
    36   195   197   ar
    37    19    18    2
    38   198   197   ar
    39    18    17    1
    40    49    48    1
    41   181   184    1
    42   181   180    1
    43    17    16    1
    44    30    28   ar
    45    27    28    1
    46    27    26    1
    47    28    29   ar
    48   155   156    2
    49   155   154    1
    50    26    23    1
    51    48    47    1
    52    86    88    1
    53    86    83    1
    54    81    79    1
    55    46    45    2
    56    16    14   am
    57   177   176    2
    58   180   176   am
    59    82    83    1
    60   154   151    1
    61    45    44    1
    62   172   171    1
    63    83    84    1
    64   176   175    1
    65    47    44    1
    66    80    79    1
    67    23    22    1
    68    23    24    1
    69    79    78    1
    70    14    15    2
    71    14    13    1
    72   149   147   ar
    73    44    43    1
    74   173   171    1
    75   171   170    1
    76   146   147    1
    77   146   143    1
    78   170   167    1
    79    25    24    2
    80   151   150    1
    81   151   152    1
    82    24    31   am
    83    78    75    1
    84   175   174    1
    85   175   178    1
    86    84    85    2
    87   150   144   am
    88   147   148   ar
    89    13    12    1
    90   174   168   am
    91   153   152    2
    92   142   143    1
    93    37    35    1
    94   144   143    1
    95   144   145    2
    96   168   167    1
    97   168   169    2
    98    31    32    1
    99   167   166    1
   100   178   179    1
   101     4     3    2
   102    75    74    1
   103    75    76    1
   104    12     3   am
   105    32    35    1
   106    32    33    1
   107    70    69    2
   108    35    36    1
   109     3     2    1
   110    96    97    1
   111    96    95    1
   112    76    77    2
   113    11     9    1
   114    67    68    1
   115    10     9    1
   116    69    68    1
   117    33    34    2
   118    94    95    1
   119    94    91    1
   120    71    68    1
   121    71    73    1
   122    71    72    1
   123     9     8    2
   124     2     1    1
   125     2     5    1
   126    90    91    1
   127    91    92    1
   128   165   163    1
   129     5     6    1
   130    41    40    2
   131   163   164    1
   132   163   162    1
   133   158   159    1
   134   132   131    1
   135     8     7    1
   136    40    39    1
   137   131   128    1
   138     7     6    1
   139    92    98   am
   140    92    93    2
   141   162   159    1
   142   133   134    1
   143   159   160    1
   144    42    39    1
   145    39    38    1
   146    98    99    1
   147   128   129    1
   148   128   127    1
   149   129   130    2
   150   101   100    2
   151   161   160    2
   152   138   139    1
   153   138   137    1
   154   134   137    1
   155   134   135    1
   156   127   125   am
   157   140   139    2
   158    99   100    1
   159    99   102    1
   160   100   107   am
   161   121   120    1
   162   139   141   am
   163   102   103    1
   164   135   136    2
   165   122   120    1
   166   125   126    2
   167   125   124    1
   168   120   119    1
   169   107   108    1
   170   106   104   ar
   171   119   116    1
   172   108   109    1
   173   108   111    1
   174   115   109   am
   175   115   116    1
   176   124   123    1
   177   103   104    1
   178   113   112    1
   179   104   105   ar
   180   109   110    2
   181   116   117    1
   182   118   117    2
   183   111   112    1
   184   112   114    1
