@<TRIPOS>MOLECULE
tmp/4g3fA00.pdb
 169 157 0 0 0
SMALL
GASTEIGER

@<TRIPOS>ATOM
      1  N          8.5650    7.0480    0.5450 N.3    56  VAL56      -0.1231
      2  CA         8.3510    8.4430    0.8670 C.3    56  VAL56       0.1692
      3  C          9.3640    9.2940    0.1100 C.2    56  VAL56       0.2593
      4  O          9.1300   10.4760   -0.1640 O.2    56  VAL56      -0.2718
      5  CB         8.4090    8.6780    2.3940 C.3    56  VAL56       0.0266
      6  CG1        9.4930    9.6710    2.7620 C.3    56  VAL56       0.0020
      7  CG2        7.0620    9.1560    2.8910 C.3    56  VAL56       0.0020
      8  N         10.4770    8.6670   -0.2600 N.am   57  GLY57      -0.1942
      9  CA        11.5180    9.3510   -0.9980 C.3    57  GLY57       0.2014
     10  C         12.8040    8.5560   -1.1110 C.2    57  GLY57       0.2639
     11  O         12.9220    7.4360   -0.6110 O.2    57  GLY57      -0.2714
     12  N         13.7690    9.1440   -1.8030 N.am   58  ARG58      -0.1963
     13  CA        15.1020    8.5820   -1.9040 C.3    58  ARG58       0.1729
     14  C         15.9480    9.4650   -1.0080 C.2    58  ARG58       0.2616
     15  O         15.7530   10.6730   -0.9910 O.2    58  ARG58      -0.2715
     16  CB        15.5930    8.7010   -3.3460 C.3    58  ARG58       0.0348
     17  CG        16.9030    8.0010   -3.6470 C.3    58  ARG58       0.0492
     18  CD        16.6580    6.6140   -4.2180 C.3    58  ARG58       0.2205
     19  NE        15.6550    6.6330   -5.2800 N.pl3  58  ARG58      -0.0865
     20  CZ        15.9250    6.7200   -6.5800 C.cat  58  ARG58       0.5346
     21  NH1       17.1810    6.7950   -6.9990 N.pl3  58  ARG58       0.1354
     22  NH2       14.9320    6.7310   -7.4630 N.pl3  58  ARG58       0.1354
     23  N         16.8510    8.8700   -0.2330 N.am   59  GLY59      -0.1955
     24  CA        17.8040    9.6500    0.5300 C.3    59  GLY59       0.1869
     25  C         19.2100    9.2190    0.1710 C.2    59  GLY59       0.2309
     26  O         19.3940    8.3620   -0.6850 O.2    59  GLY59      -0.2863
     27  N         13.8360    5.9450    1.7080 N.3    64  VAL64      -0.1245
     28  CA        13.1630    6.4880    2.8750 C.3    64  VAL64       0.1561
     29  C         11.7280    5.9900    2.8700 C.2    64  VAL64       0.2260
     30  O         11.0790    5.9510    1.8230 O.2    64  VAL64      -0.2867
     31  CB        13.1990    8.0140    2.8630 C.3    64  VAL64       0.0252
     32  CG1       12.5290    8.5870    4.1070 C.3    64  VAL64       0.0019
     33  CG2       14.6380    8.4960    2.7760 C.3    64  VAL64       0.0019
     34  N          9.5570    8.8530   10.0020 N.3    77  ALA77      -0.1231
     35  CA        10.2290    8.4260    8.7760 C.3    77  ALA77       0.1694
     36  C         11.4330    7.5540    9.1190 C.2    77  ALA77       0.2592
     37  O         12.0000    7.6760   10.1990 O.2    77  ALA77      -0.2718
     38  CB        10.6630    9.6390    7.9350 C.3    77  ALA77       0.0304
     39  N         11.8150    6.6750    8.1970 N.am   78  VAL78      -0.1966
     40  CA        13.0270    5.8810    8.3710 C.3    78  VAL78       0.1727
     41  C         13.8000    5.8010    7.0640 C.2    78  VAL78       0.2616
     42  O         13.2030    5.6140    6.0000 O.2    78  VAL78      -0.2715
     43  CB        12.7000    4.4490    8.8880 C.3    78  VAL78       0.0290
     44  CG1       11.7960    3.6930    7.9090 C.3    78  VAL78       0.0023
     45  CG2       13.9790    3.6720    9.1580 C.3    78  VAL78       0.0023
     46  N         15.1200    5.9860    7.1330 N.am   79  LYS79      -0.1977
     47  CA        15.9870    5.6760    5.9970 C.3    79  LYS79       0.1596
     48  C         16.7640    4.4100    6.3270 C.2    79  LYS79       0.2287
     49  O         17.3970    4.3130    7.3870 O.2    79  LYS79      -0.2864
     50  CB        16.9690    6.8220    5.6940 C.3    79  LYS79       0.0298
     51  CG        17.7720    6.5580    4.3950 C.3    79  LYS79       0.0038
     52  CD        18.6060    7.7640    3.9470 C.3    79  LYS79       0.0206
     53  CE        19.7830    7.9710    4.8960 C.3    79  LYS79       0.1093
     54  NZ        20.6830    9.0640    4.3930 N.3    79  LYS79      -0.1314
     55  N         26.4930   11.1360    9.4220 N.3    90  GLU90      -0.1245
     56  CA        25.0620   11.3350    9.5040 C.3    90  GLU90       0.1567
     57  C         24.5370   11.3370   10.9550 C.2    90  GLU90       0.2260
     58  O         23.6010   12.0550   11.2730 O.2    90  GLU90      -0.2867
     59  CB        24.3210   10.3100    8.6290 C.3    90  GLU90       0.0388
     60  CG        22.8180   10.4900    8.6680 C.3    90  GLU90       0.1160
     61  CD        22.0760    9.9820    7.4290 C.2    90  GLU90       0.3649
     62  OE1       22.6820    9.3950    6.4960 O.co2  90  GLU90      -0.2457
     63  OE2       20.8640   10.2040    7.4220 O.co2  90  GLU90      -0.2457
     64  N         16.4710   14.2040   14.1710 N.3   105  LEU105     -0.1245
     65  CA        16.5630   12.7430   14.2060 C.3   105  LEU105      0.1561
     66  C         15.8830   12.1850   15.4430 C.2   105  LEU105      0.2260
     67  O         15.9030   12.8020   16.5140 O.2   105  LEU105     -0.2867
     68  CB        18.0110   12.2820   14.1810 C.3   105  LEU105      0.0270
     69  CG        18.7660   12.4870   12.8630 C.3   105  LEU105      0.0019
     70  CD1       20.1240   11.8300   12.9460 C.3   105  LEU105      0.0001
     71  CD2       17.9800   11.9290   11.6830 C.3   105  LEU105      0.0001
     72  N         17.7830    4.6170   10.2120 N.3   117  ILE117     -0.1245
     73  CA        17.8720    5.9480   10.7980 C.3   117  ILE117      0.1561
     74  C         16.4790    6.5670   10.8740 C.2   117  ILE117      0.2260
     75  O         15.7780    6.6490    9.8570 O.2   117  ILE117     -0.2867
     76  CB        18.8150    6.8420    9.9720 C.3   117  ILE117      0.0252
     77  CG1       20.1420    6.1220    9.7350 C.3   117  ILE117      0.0019
     78  CG2       19.0030    8.1870   10.6610 C.3   117  ILE117      0.0019
     79  CD1       21.1200    6.8980    8.8770 C.3   117  ILE117      0.0001
     80  N         13.5660    9.5370   11.8350 N.3   119  MET119     -0.1230
     81  CA        13.4790   10.9930   11.7430 C.3   119  MET119      0.1702
     82  C         12.0280   11.4660   11.8070 C.2   119  MET119      0.2592
     83  O         11.1170   10.7150   11.4630 O.2   119  MET119     -0.2718
     84  CB        14.1150   11.4400   10.4230 C.3   119  MET119      0.0401
     85  CG        14.0220   12.9250   10.1440 C.3   119  MET119      0.0596
     86  SD        14.6950   13.3750    8.5210 S.3   119  MET119     -0.1393
     87  CE        13.4270   12.7940    7.4140 C.3   119  MET119      0.0692
     88  N         11.8090   12.7080   12.2470 N.am  120  GLU120     -0.1966
     89  CA        10.4670   13.2860   12.2120 C.3   120  GLU120      0.1733
     90  C          9.8650   13.2040   10.8080 C.2   120  GLU120      0.2616
     91  O         10.5490   13.4900    9.8200 O.2   120  GLU120     -0.2715
     92  CB        10.4840   14.7410   12.6880 C.3   120  GLU120      0.0429
     93  CG         9.0760   15.3630   12.7030 C.3   120  GLU120      0.1163
     94  CD         9.0580   16.8470   13.0120 C.2   120  GLU120      0.3649
     95  OE1        7.9500   17.3950   13.1950 O.co2 120  GLU120     -0.2457
     96  OE2       10.1340   17.4710   13.0640 O.co2 120  GLU120     -0.2457
     97  N          8.6020   12.7920   10.7420 N.am  121  LEU121     -0.1963
     98  CA         7.8340   12.7380    9.5000 C.3   121  LEU121      0.1728
     99  C          7.1830   14.0910    9.2230 C.2   121  LEU121      0.2616
    100  O          6.4300   14.6080   10.0570 O.2   121  LEU121     -0.2715
    101  CB         6.7430   11.6700    9.6180 C.3   121  LEU121      0.0311
    102  CG         5.7700   11.5040    8.4480 C.3   121  LEU121      0.0022
    103  CD1        6.4470   10.7970    7.2940 C.3   121  LEU121      0.0001
    104  CD2        4.5360   10.7360    8.9020 C.3   121  LEU121      0.0001
    105  N          7.4590   14.6580    8.0530 N.am  122  LEU122     -0.1977
    106  CA         6.8580   15.9340    7.6660 C.3   122  LEU122      0.1596
    107  C          5.9010   15.7110    6.5020 C.2   122  LEU122      0.2287
    108  O          6.3090   15.2760    5.4260 O.2   122  LEU122     -0.2864
    109  CB         7.9330   16.9690    7.3090 C.3   122  LEU122      0.0297
    110  CG         8.6040   17.6990    8.4840 C.3   122  LEU122      0.0022
    111  CD1        9.4610   16.7680    9.3220 C.3   122  LEU122      0.0001
    112  CD2        9.4380   18.8710    8.0080 C.3   122  LEU122      0.0001
    113  N          5.9050   16.9730    2.6470 N.3   125  GLY125     -0.1210
    114  CA         6.7330   16.3840    1.6090 C.3   125  GLY125      0.1956
    115  C          7.9900   17.1890    1.3510 C.2   125  GLY125      0.2612
    116  O          8.2860   18.1570    2.0620 O.2   125  GLY125     -0.2717
    117  N          8.7600   16.7900    0.3490 N.am  126  SER126     -0.1952
    118  CA         9.9850   17.5190    0.0610 C.3   126  SER126      0.1924
    119  C          9.7510   18.6420   -0.9370 C.2   126  SER126      0.2314
    120  O          8.7810   18.6360   -1.6780 O.2   126  SER126     -0.2863
    121  CB        11.0750   16.5900   -0.4780 C.3   126  SER126      0.2116
    122  OG        10.7680   16.1730   -1.8050 O.3   126  SER126     -0.2180
    123  N          9.5700   17.2710   -4.3360 N.3   129  GLN129     -0.1245
    124  CA         8.2410   16.7830   -4.6790 C.3   129  GLN129      0.1566
    125  C          7.3150   17.9420   -5.0740 C.2   129  GLN129      0.2260
    126  O          6.4920   17.8160   -5.9850 O.2   129  GLN129     -0.2867
    127  CB         7.6690   15.9500   -3.5170 C.3   129  GLN129      0.0367
    128  CG         8.3840   14.6020   -3.3620 C.3   129  GLN129      0.0905
    129  CD         8.2070   13.9430   -1.9990 C.2   129  GLN129      0.2608
    130  OE1        7.7040   14.5460   -1.0530 O.2   129  GLN129     -0.2717
    131  NE2        8.6330   12.6870   -1.8990 N.am  129  GLN129     -0.0878
    132  N         15.2790   17.9040   -2.9590 N.3   169  ASP169     -0.1225
    133  CA        14.8720   16.5940   -2.4680 C.3   169  ASP169      0.1805
    134  C         15.2190   16.3850   -0.9940 C.2   169  ASP169      0.2597
    135  O         14.6420   15.4980   -0.3550 O.2   169  ASP169     -0.2718
    136  CB        15.5330   15.4860   -3.2900 C.3   169  ASP169      0.1424
    137  CG        14.7880   15.1770   -4.5710 C.2   169  ASP169      0.3668
    138  OD1       13.6560   15.6680   -4.7610 O.co2 169  ASP169     -0.2456
    139  OD2       15.3380   14.4110   -5.3860 O.co2 169  ASP169     -0.2456
    140  N         16.1470   17.1890   -0.4650 N.am  170  ASN170     -0.1974
    141  CA        16.5670   17.0870    0.9360 C.3   170  ASN170      0.1688
    142  C         16.0700   18.2550    1.7880 C.2   170  ASN170      0.2292
    143  O         16.5980   18.5020    2.8710 O.2   170  ASN170     -0.2864
    144  CB        18.0980   17.0050    1.0470 C.3   170  ASN170      0.1181
    145  CG        18.6700   15.7300    0.4550 C.2   170  ASN170      0.2629
    146  OD1       17.9660   14.7420    0.2890 O.2   170  ASN170     -0.2716
    147  ND2       19.9640   15.7540    0.1250 N.am  170  ASN170     -0.0877
    148  N         12.5810   19.5960    3.5740 N.3   172  LEU172     -0.1245
    149  CA        11.2290   19.1200    3.8600 C.3   172  LEU172      0.1561
    150  C         10.3250   20.2570    4.3110 C.2   172  LEU172      0.2260
    151  O         10.7750   21.2230    4.9410 O.2   172  LEU172     -0.2867
    152  CB        11.2670   18.0330    4.9290 C.3   172  LEU172      0.0270
    153  CG        12.2190   16.8690    4.6100 C.3   172  LEU172      0.0019
    154  CD1       12.0330   15.7540    5.6410 C.3   172  LEU172      0.0001
    155  CD2       11.9970   16.3120    3.2160 C.3   172  LEU172      0.0001
    156  N         17.2000   18.2850    5.7640 N.3   183  CYS183     -0.1221
    157  CA        17.3820   16.9440    6.3120 C.3   183  CYS183      0.1808
    158  C         18.4870   16.2420    5.5320 C.2   183  CYS183      0.2601
    159  O         19.0180   16.7870    4.5520 O.2   183  CYS183     -0.2717
    160  CB        16.0770   16.1400    6.2500 C.3   183  CYS183      0.0970
    161  SG        15.7080   15.4590    4.6090 S.3   183  CYS183     -0.0800
    162  N         18.8200   15.0380    5.9830 N.am  184  ASP184     -0.1973
    163  CA        19.7730   14.1370    5.3330 C.3   184  ASP184      0.1709
    164  C         21.2190   14.6070    5.3700 C.2   184  ASP184      0.2293
    165  O         21.6920   15.3230    4.4910 O.2   184  ASP184     -0.2864
    166  CB        19.3490   13.7690    3.9080 C.3   184  ASP184      0.1436
    167  CG        20.0060   12.4780    3.4510 C.2   184  ASP184      0.3671
    168  OD1       21.2320   12.3570    3.6180 O.co2 184  ASP184     -0.2456
    169  OD2       19.2910   11.5840    2.9760 O.co2 184  ASP184     -0.2456
@<TRIPOS>BOND
     1    22    20    1
     2    21    20    1
     3    20    19    2
     4   126   125    2
     5   139   137   ar
     6    19    18    1
     7   125   124    1
     8   138   137   ar
     9   124   123    1
    10   124   127    1
    11   137   136    1
    12    18    17    1
    13    17    16    1
    14   127   128    1
    15   128   129    1
    16    16    13    1
    17   136   133    1
    18   132   133    1
    19   133   134    1
    20   129   131   am
    21   129   130    2
    22    13    12    1
    23    13    14    1
    24   122   121    1
    25    12    10   am
    26   120   119    2
    27    10     9    1
    28    10    11    2
    29    14    15    2
    30    14    23   am
    31     9     8    1
    32   134   140   am
    33   134   135    2
    34   119   118    1
    35    26    25    2
    36   121   118    1
    37   140   141    1
    38     8     3   am
    39    23    24    1
    40     4     3    2
    41   118   117    1
    42     3     2    1
    43   147   145   am
    44    25    24    1
    45   146   145    2
    46   117   115   am
    47   145   144    1
    48     1     2    1
    49     2     5    1
    50   141   144    1
    51   141   142    1
    52   115   114    1
    53   115   116    2
    54   114   113    1
    55    27    28    1
    56   142   143    2
    57    30    29    2
    58     5     6    1
    59     5     7    1
    60    33    31    1
    61    31    28    1
    62    31    32    1
    63    29    28    1
    64   169   167   ar
    65   155   153    1
    66   167   168   ar
    67   167   166    1
    68   148   149    1
    69   149   150    1
    70   149   152    1
    71   166   163    1
    72    52    51    1
    73    52    53    1
    74   150   151    2
    75    54    53    1
    76    51    50    1
    77   165   164    2
    78   159   158    2
    79   161   160    1
    80   153   152    1
    81   153   154    1
    82   163   164    1
    83   163   162    1
    84   108   107    2
    85   158   162   am
    86   158   157    1
    87    50    47    1
    88   156   157    1
    89    47    48    1
    90    47    46    1
    91    42    41    2
    92   160   157    1
    93    48    49    2
    94    62    61   ar
    95   107   106    1
    96    41    46   am
    97    41    40    1
    98   103   102    1
    99   109   106    1
   100   109   110    1
   101    87    86    1
   102    63    61   ar
   103    61    60    1
   104   106   105    1
   105    44    43    1
   106    38    35    1
   107   112   110    1
   108   105    99   am
   109    39    40    1
   110    39    36   am
   111    40    43    1
   112   102   104    1
   113   102   101    1
   114   110   111    1
   115    86    85    1
   116    59    60    1
   117    59    56    1
   118    35    36    1
   119    35    34    1
   120    79    77    1
   121    43    45    1
   122    36    37    2
   123    99    98    1
   124    99   100    2
   125    55    56    1
   126    98   101    1
   127    98    97    1
   128    56    57    1
   129    77    76    1
   130    91    90    2
   131    75    74    2
   132    76    78    1
   133    76    73    1
   134    85    84    1
   135    72    73    1
   136    84    81    1
   137    97    90   am
   138    73    74    1
   139    90    89    1
   140    57    58    2
   141    83    82    2
   142    71    69    1
   143    81    82    1
   144    81    80    1
   145    82    88   am
   146    89    88    1
   147    89    92    1
   148    92    93    1
   149    93    94    1
   150    69    70    1
   151    69    68    1
   152    94    96   ar
   153    94    95   ar
   154    64    65    1
   155    68    65    1
   156    65    66    1
   157    66    67    2
