@<TRIPOS>MOLECULE
tmp/4g3gA00.pdb
 161 148 0 0 0
SMALL
GASTEIGER

@<TRIPOS>ATOM
      1  N          8.7010    7.2400    0.6910 N.3    56  LEU56      -0.1231
      2  CA         8.6530    8.6870    0.8680 C.3    56  LEU56       0.1693
      3  C          9.5620    9.4050   -0.1290 C.2    56  LEU56       0.2593
      4  O          9.3640   10.5840   -0.4400 O.2    56  LEU56      -0.2718
      5  CB         9.0710    9.0600    2.2840 C.3    56  LEU56       0.0284
      6  CG         8.1210    8.6930    3.4140 C.3    56  LEU56       0.0019
      7  CD1        8.7950    9.0300    4.7330 C.3    56  LEU56       0.0001
      8  CD2        6.7830    9.4160    3.2670 C.3    56  LEU56       0.0001
      9  N         10.5650    8.6860   -0.6190 N.am   57  GLY57      -0.1942
     10  CA        11.5680    9.2650   -1.4940 C.3    57  GLY57       0.2014
     11  C         12.9330    8.6250   -1.3340 C.2    57  GLY57       0.2639
     12  O         13.0920    7.6030   -0.6540 O.2    57  GLY57      -0.2714
     13  N         13.9160    9.2370   -1.9790 N.am   58  ARG58      -0.1963
     14  CA        15.2810    8.7410   -1.9950 C.3    58  ARG58       0.1729
     15  C         16.0690    9.5560   -0.9820 C.2    58  ARG58       0.2616
     16  O         15.9250   10.7710   -0.9170 O.2    58  ARG58      -0.2715
     17  CB        15.8780    8.9490   -3.3900 C.3    58  ARG58       0.0348
     18  CG        16.8970    7.9160   -3.8510 C.3    58  ARG58       0.0492
     19  CD        16.2640    6.8600   -4.7560 C.3    58  ARG58       0.2205
     20  NE        15.4800    7.4420   -5.8560 N.pl3  58  ARG58      -0.0865
     21  CZ        15.7730    7.3420   -7.1540 C.cat  58  ARG58       0.5346
     22  NH1       16.8440    6.6680   -7.5690 N.pl3  58  ARG58       0.1354
     23  NH2       14.9760    7.9170   -8.0470 N.pl3  58  ARG58       0.1354
     24  N         16.8780    8.8880   -0.1740 N.am   59  GLY59      -0.1955
     25  CA        17.8310    9.5780    0.6890 C.3    59  GLY59       0.1869
     26  C         19.2210    9.2250    0.2150 C.2    59  GLY59       0.2309
     27  O         19.3930    8.4080   -0.6860 O.2    59  GLY59      -0.2863
     28  N         13.8450    5.9540    1.7650 N.3    64  VAL64      -0.1245
     29  CA        13.1170    6.4900    2.9090 C.3    64  VAL64       0.1561
     30  C         11.6600    6.0160    2.9230 C.2    64  VAL64       0.2260
     31  O         10.9950    6.0050    1.8910 O.2    64  VAL64      -0.2867
     32  CB        13.1710    8.0270    2.9230 C.3    64  VAL64       0.0252
     33  CG1       12.4760    8.5760    4.1570 C.3    64  VAL64       0.0019
     34  CG2       14.6150    8.4940    2.8720 C.3    64  VAL64       0.0019
     35  N          9.6890    8.6860   10.0200 N.3    77  ALA77      -0.1231
     36  CA        10.3670    8.3380    8.7800 C.3    77  ALA77       0.1694
     37  C         11.5930    7.4840    9.0850 C.2    77  ALA77       0.2592
     38  O         12.2450    7.6580   10.1200 O.2    77  ALA77      -0.2718
     39  CB        10.7550    9.6040    8.0180 C.3    77  ALA77       0.0304
     40  N         11.9040    6.5580    8.1850 N.am   78  VAL78      -0.1966
     41  CA        13.1000    5.7510    8.3470 C.3    78  VAL78       0.1727
     42  C         13.8750    5.6530    7.0500 C.2    78  VAL78       0.2616
     43  O         13.3020    5.4070    5.9900 O.2    78  VAL78      -0.2715
     44  CB        12.8000    4.3410    8.9180 C.3    78  VAL78       0.0290
     45  CG1       11.8780    3.5350    8.0030 C.3    78  VAL78       0.0023
     46  CG2       14.0940    3.5900    9.1880 C.3    78  VAL78       0.0023
     47  N         15.1810    5.8710    7.1350 N.am   79  LYS79      -0.1977
     48  CA        16.0650    5.5660    6.0150 C.3    79  LYS79       0.1596
     49  C         16.8710    4.3390    6.3570 C.2    79  LYS79       0.2287
     50  O         17.5680    4.3000    7.3780 O.2    79  LYS79      -0.2864
     51  CB        16.9880    6.7300    5.6520 C.3    79  LYS79       0.0298
     52  CG        17.7650    6.4970    4.3600 C.3    79  LYS79       0.0038
     53  CD        18.5870    7.7150    3.9670 C.3    79  LYS79       0.0206
     54  CE        19.7310    7.9600    4.9400 C.3    79  LYS79       0.1093
     55  NZ        20.7830    8.8190    4.3470 N.3    79  LYS79      -0.1314
     56  N         26.3690   11.1450    9.5480 N.3    90  GLU90      -0.1245
     57  CA        24.9280   11.3250    9.5630 C.3    90  GLU90       0.1567
     58  C         24.3560   11.3850   10.9900 C.2    90  GLU90       0.2260
     59  O         23.3770   12.0890   11.2360 O.2    90  GLU90      -0.2867
     60  CB        24.2430   10.2450    8.7150 C.3    90  GLU90       0.0388
     61  CG        22.7270   10.3320    8.7480 C.3    90  GLU90       0.1160
     62  CD        22.0390    9.9630    7.4470 C.2    90  GLU90       0.3649
     63  OE1       22.6560    9.3360    6.5470 O.co2  90  GLU90      -0.2457
     64  OE2       20.8410   10.3140    7.3430 O.co2  90  GLU90      -0.2457
     65  N         16.4790   14.1900   14.4100 N.3   105  LEU105     -0.1245
     66  CA        16.6220   12.7350   14.3590 C.3   105  LEU105      0.1561
     67  C         16.0230   12.0840   15.6040 C.2   105  LEU105      0.2260
     68  O         16.1530   12.6110   16.7080 O.2   105  LEU105     -0.2867
     69  CB        18.0910   12.3290   14.2180 C.3   105  LEU105      0.0270
     70  CG        18.8320   12.5860   12.9060 C.3   105  LEU105      0.0019
     71  CD1       20.1990   11.9240   12.9850 C.3   105  LEU105      0.0001
     72  CD2       18.0670   12.0760   11.6870 C.3   105  LEU105      0.0001
     73  N         17.7800    4.6320   10.2430 N.3   117  ILE117     -0.1245
     74  CA        17.8680    5.9470   10.8430 C.3   117  ILE117      0.1561
     75  C         16.4680    6.5490   10.9130 C.2   117  ILE117      0.2260
     76  O         15.7670    6.6310    9.8980 O.2   117  ILE117     -0.2867
     77  CB        18.8450    6.8610   10.0700 C.3   117  ILE117      0.0252
     78  CG1       20.1960    6.1680    9.9040 C.3   117  ILE117      0.0019
     79  CG2       19.0160    8.1950   10.7970 C.3   117  ILE117      0.0019
     80  CD1       21.0630    6.7510    8.8040 C.3   117  ILE117      0.0001
     81  N         13.6370    9.5310   11.8360 N.3   119  MET119     -0.1245
     82  CA        13.5420   10.9780   11.7520 C.3   119  MET119      0.1570
     83  C         12.0890   11.4290   11.8100 C.2   119  MET119      0.2261
     84  O         11.1880   10.6610   11.4790 O.2   119  MET119     -0.2867
     85  CB        14.1730   11.4350   10.4460 C.3   119  MET119      0.0387
     86  CG        14.0720   12.9180   10.1870 C.3   119  MET119      0.0595
     87  SD        14.8160   13.2960    8.6070 S.3   119  MET119     -0.1393
     88  CE        13.5510   12.7580    7.4700 C.3   119  MET119      0.0692
     89  N          8.7000   12.9980   10.7310 N.3   121  LEU121     -0.1231
     90  CA         8.0160   13.0440    9.4470 C.3   121  LEU121      0.1693
     91  C          7.1930   14.3210    9.3730 C.2   121  LEU121      0.2591
     92  O          6.2640   14.5340   10.1570 O.2   121  LEU121     -0.2718
     93  CB         7.1440   11.8010    9.2630 C.3   121  LEU121      0.0284
     94  CG         6.1880   11.6950    8.0820 C.3   121  LEU121      0.0019
     95  CD1        6.8550   10.9890    6.9240 C.3   121  LEU121      0.0001
     96  CD2        4.9620   10.9130    8.5290 C.3   121  LEU121      0.0001
     97  N          7.5650   15.1890    8.4460 N.am  122  LEU122     -0.1980
     98  CA         6.7900   16.3840    8.1870 C.3   122  LEU122      0.1596
     99  C          5.8290   16.0970    7.0270 C.2   122  LEU122      0.2287
    100  O          6.2230   15.5260    6.0050 O.2   122  LEU122     -0.2864
    101  CB         7.7220   17.5670    7.9200 C.3   122  LEU122      0.0297
    102  CG         8.4670   18.1990    9.1110 C.3   122  LEU122      0.0022
    103  CD1        9.2620   17.2110    9.9500 C.3   122  LEU122      0.0001
    104  CD2        9.3870   19.2950    8.6180 C.3   122  LEU122      0.0001
    105  N          5.5680   17.0480    2.8350 N.3   125  GLY125     -0.1210
    106  CA         6.3810   16.3800    1.8050 C.3   125  GLY125      0.1956
    107  C          7.7080   17.0950    1.6120 C.2   125  GLY125      0.2612
    108  O          8.0180   18.0290    2.3410 O.2   125  GLY125     -0.2717
    109  N          8.4930   16.6640    0.6320 N.am  126  SER126     -0.1952
    110  CA         9.7470   17.3490    0.3070 C.3   126  SER126      0.1924
    111  C          9.5570   18.5280   -0.6610 C.2   126  SER126      0.2314
    112  O          8.5940   18.5710   -1.4350 O.2   126  SER126     -0.2863
    113  CB        10.7720   16.3640   -0.2470 C.3   126  SER126      0.2116
    114  OG        10.4000   15.8920   -1.5240 O.3   126  SER126     -0.2180
    115  N          9.3020   17.2050   -4.0520 N.3   129  GLN129     -0.1245
    116  CA         7.9500   16.7570   -4.3860 C.3   129  GLN129      0.1566
    117  C          7.0400   17.9350   -4.7330 C.2   129  GLN129      0.2260
    118  O          6.1820   17.8150   -5.6060 O.2   129  GLN129     -0.2867
    119  CB         7.3620   15.8940   -3.2630 C.3   129  GLN129      0.0367
    120  CG         7.7910   14.4310   -3.3440 C.3   129  GLN129      0.0905
    121  CD         8.0720   13.7980   -1.9870 C.2   129  GLN129      0.2608
    122  OE1        7.4910   14.1790   -0.9650 O.2   129  GLN129     -0.2717
    123  NE2        8.9750   12.8210   -1.9730 N.am  129  GLN129     -0.0878
    124  N         15.1190   17.7910   -2.7360 N.3   169  ASP169     -0.1225
    125  CA        14.7960   16.4630   -2.2110 C.3   169  ASP169      0.1805
    126  C         15.2010   16.2180   -0.7520 C.2   169  ASP169      0.2597
    127  O         14.7270   15.2600   -0.1380 O.2   169  ASP169     -0.2718
    128  CB        15.4330   15.3750   -3.0810 C.3   169  ASP169      0.1424
    129  CG        14.6480   15.1010   -4.3260 C.2   169  ASP169      0.3668
    130  OD1       13.5050   15.5870   -4.4150 O.co2 169  ASP169     -0.2456
    131  OD2       15.1700   14.3970   -5.2150 O.co2 169  ASP169     -0.2456
    132  N         16.0950   17.0550   -0.2230 N.am  170  ASN170     -0.1974
    133  CA        16.5490   16.9610    1.1650 C.3   170  ASN170      0.1688
    134  C         15.9860   18.0970    2.0320 C.2   170  ASN170      0.2292
    135  O         16.4440   18.3220    3.1520 O.2   170  ASN170     -0.2864
    136  CB        18.0790   16.9690    1.2390 C.3   170  ASN170      0.1181
    137  CG        18.7040   15.7280    0.6250 C.2   170  ASN170      0.2629
    138  OD1       18.0420   14.7040    0.4560 O.2   170  ASN170     -0.2716
    139  ND2       19.9890   15.8160    0.2800 N.am  170  ASN170     -0.0877
    140  N         12.4650   19.3300    3.7700 N.3   172  LEU172     -0.1245
    141  CA        11.0760   18.9500    4.0840 C.3   172  LEU172      0.1561
    142  C         10.2380   20.1600    4.4210 C.2   172  LEU172      0.2260
    143  O         10.7350   21.1360    5.0010 O.2   172  LEU172     -0.2867
    144  CB        10.9910   17.9420    5.2360 C.3   172  LEU172      0.0270
    145  CG        11.7200   16.6050    5.0890 C.3   172  LEU172      0.0019
    146  CD1       11.2740   15.6560    6.1920 C.3   172  LEU172      0.0001
    147  CD2       11.4990   15.9700    3.7210 C.3   172  LEU172      0.0001
    148  N         17.2400   18.1790    5.9020 N.3   183  CYS183     -0.1221
    149  CA        17.4010   16.8230    6.4180 C.3   183  CYS183      0.1808
    150  C         18.4490   16.0700    5.5990 C.2   183  CYS183      0.2601
    151  O         19.0060   16.6000    4.6370 O.2   183  CYS183     -0.2717
    152  CB        16.0720   16.0660    6.4300 C.3   183  CYS183      0.0970
    153  SG        15.5400   15.5590    4.7870 S.3   183  CYS183     -0.0800
    154  N         18.6970   14.8310    6.0040 N.am  184  ASP184     -0.1973
    155  CA        19.6950   13.9520    5.4010 C.3   184  ASP184      0.1709
    156  C         21.1430   14.4720    5.4340 C.2   184  ASP184      0.2293
    157  O         21.5580   15.2460    4.5750 O.2   184  ASP184     -0.2864
    158  CB        19.3010   13.5440    3.9840 C.3   184  ASP184      0.1436
    159  CG        20.0290   12.3010    3.5370 C.2   184  ASP184      0.3671
    160  OD1       21.2770   12.3410    3.4890 O.co2 184  ASP184     -0.2456
    161  OD2       19.3620   11.2780    3.2610 O.co2 184  ASP184     -0.2456
@<TRIPOS>BOND
     1    23    21    1
     2    22    21    1
     3    21    20    2
     4    20    19    1
     5   118   117    2
     6   131   129   ar
     7    19    18    1
     8   117   116    1
     9   130   129   ar
    10   116   115    1
    11   116   119    1
    12   129   128    1
    13    18    17    1
    14    17    14    1
    15   120   119    1
    16   120   121    1
    17   128   125    1
    18   124   125    1
    19   125   126    1
    20    14    13    1
    21    14    15    1
    22   121   123   am
    23   121   122    2
    24    13    11   am
    25   114   113    1
    26    10    11    1
    27    10     9    1
    28   112   111    2
    29    11    12    2
    30    15    16    2
    31    15    24   am
    32   126   132   am
    33   126   127    2
    34    27    26    2
    35   111   110    1
    36     9     3   am
    37     4     3    2
    38   113   110    1
    39   132   133    1
    40    24    25    1
    41     3     2    1
    42    26    25    1
    43   139   137   am
    44   110   109    1
    45   138   137    2
    46   137   136    1
    47   109   107   am
    48     1     2    1
    49     2     5    1
    50   133   136    1
    51   133   134    1
    52   107   106    1
    53   107   108    2
    54    28    29    1
    55   106   105    1
    56    31    30    2
    57   134   135    2
    58     5     6    1
    59    34    32    1
    60    29    32    1
    61    29    30    1
    62    32    33    1
    63   161   159   ar
    64     8     6    1
    65     6     7    1
    66   160   159   ar
    67   159   158    1
    68   147   145    1
    69   140   141    1
    70    53    52    1
    71    53    54    1
    72   158   155    1
    73   141   142    1
    74   141   144    1
    75    55    54    1
    76    52    51    1
    77   142   143    2
    78   157   156    2
    79   151   150    2
    80   153   152    1
    81   145   144    1
    82   145   146    1
    83   155   156    1
    84   155   154    1
    85   150   154   am
    86   150   149    1
    87    51    48    1
    88   148   149    1
    89    43    42    2
    90   100    99    2
    91    48    49    1
    92    48    47    1
    93    49    50    2
    94   149   152    1
    95    63    62   ar
    96    95    94    1
    97    99    98    1
    98    42    47   am
    99    42    41    1
   100    64    62   ar
   101    62    61    1
   102    88    87    1
   103   101    98    1
   104   101   102    1
   105    45    44    1
   106    39    36    1
   107    94    96    1
   108    94    93    1
   109    40    41    1
   110    40    37   am
   111    98    97    1
   112    41    44    1
   113    97    91   am
   114    87    86    1
   115   104   102    1
   116    60    61    1
   117    60    57    1
   118    36    37    1
   119    36    35    1
   120    80    78    1
   121    44    46    1
   122    37    38    2
   123   102   103    1
   124    93    90    1
   125    91    90    1
   126    91    92    2
   127    90    89    1
   128    56    57    1
   129    57    58    1
   130    76    75    2
   131    78    77    1
   132    77    79    1
   133    77    74    1
   134    86    85    1
   135    73    74    1
   136    85    82    1
   137    74    75    1
   138    58    59    2
   139    84    83    2
   140    72    70    1
   141    82    83    1
   142    82    81    1
   143    70    71    1
   144    70    69    1
   145    69    66    1
   146    66    65    1
   147    66    67    1
   148    67    68    2
