@<TRIPOS>MOLECULE
tmp/4g3jA01.pdb
 207 198 0 0 0
SMALL
GASTEIGER

@<TRIPOS>ATOM
      1  N         -1.5930    5.8800  -22.4500 N.3    17  ILE17      -0.1245
      2  CA        -1.5100    5.3120  -21.1200 C.3    17  ILE17       0.1561
      3  C         -0.0700    5.0560  -20.6710 C.2    17  ILE17       0.2260
      4  O          0.2690    5.3170  -19.5300 O.2    17  ILE17      -0.2867
      5  CB        -2.3620    4.0440  -20.9900 C.3    17  ILE17       0.0252
      6  CG1       -2.6990    3.7800  -19.5280 C.3    17  ILE17       0.0019
      7  CG2       -1.6460    2.8540  -21.6000 C.3    17  ILE17       0.0019
      8  CD1       -3.1090    5.0130  -18.7580 C.3    17  ILE17       0.0001
      9  N          1.5280    8.4430  -19.9660 N.3    20  PHE20      -0.1241
     10  CA         0.9040    8.9060  -18.7310 C.3    20  PHE20       0.1605
     11  C          1.5060    8.1960  -17.5160 C.2    20  PHE20       0.2264
     12  O          1.7740    8.8260  -16.4920 O.2    20  PHE20      -0.2867
     13  CB        -0.6160    8.7080  -18.7930 C.3    20  PHE20       0.0534
     14  CG        -1.3600    9.3150  -17.6340 C.ar   20  PHE20      -0.0203
     15  CD1       -1.2220    8.7950  -16.3550 C.ar   20  PHE20      -0.0042
     16  CD2       -2.2080   10.3990  -17.8260 C.ar   20  PHE20      -0.0042
     17  CE1       -1.9090    9.3490  -15.2890 C.ar   20  PHE20      -0.0003
     18  CE2       -2.8980   10.9570  -16.7630 C.ar   20  PHE20      -0.0003
     19  CZ        -2.7470   10.4300  -15.4930 C.ar   20  PHE20      -0.0000
     20  N        -17.4250    4.5110  -14.0130 N.3    74  VAL74      -0.1231
     21  CA       -16.0440    4.7170  -13.6450 C.3    74  VAL74       0.1692
     22  C        -15.7360    4.1120  -12.2700 C.2    74  VAL74       0.2592
     23  O        -14.5750    3.8650  -11.9340 O.2    74  VAL74      -0.2718
     24  CB       -15.6980    6.2140  -13.6560 C.3    74  VAL74       0.0266
     25  CG1      -15.6930    6.7500  -15.0810 C.3    74  VAL74       0.0020
     26  CG2      -16.6850    6.9880  -12.7950 C.3    74  VAL74       0.0020
     27  N        -16.7750    3.8640  -11.4790 N.am   75  TYR75      -0.1976
     28  CA       -16.5860    3.2000  -10.1740 C.3    75  TYR75       0.1639
     29  C        -16.9390    1.7220  -10.2110 C.2    75  TYR75       0.2290
     30  O        -16.9410    1.0480   -9.1760 O.2    75  TYR75      -0.2864
     31  CB       -17.4120    3.8930   -9.0870 C.3    75  TYR75       0.0560
     32  CG       -16.7490    5.1160   -8.4910 C.ar   75  TYR75      -0.0198
     33  CD1      -15.7610    4.9990   -7.5110 C.ar   75  TYR75      -0.0009
     34  CD2      -17.1150    6.3880   -8.9000 C.ar   75  TYR75      -0.0009
     35  CE1      -15.1600    6.1240   -6.9650 C.ar   75  TYR75       0.0417
     36  CE2      -16.5190    7.5200   -8.3600 C.ar   75  TYR75       0.0417
     37  CZ       -15.5440    7.3830   -7.3950 C.ar   75  TYR75       0.1957
     38  OH       -14.9640    8.5190   -6.8700 O.3    75  TYR75      -0.2866
     39  N        -15.3070   -0.7460  -11.0760 N.3    77  PHE77      -0.1227
     40  CA       -14.2220   -1.6370  -10.6520 C.3    77  PHE77       0.1736
     41  C        -14.1740   -1.7930   -9.1280 C.2    77  PHE77       0.2595
     42  O        -13.4940   -2.6900   -8.6050 O.2    77  PHE77      -0.2718
     43  CB       -12.8750   -1.1550  -11.1940 C.3    77  PHE77       0.0547
     44  CG       -12.2470   -0.0320  -10.3990 C.ar   77  PHE77      -0.0202
     45  CD1      -12.6380    1.2870  -10.5970 C.ar   77  PHE77      -0.0042
     46  CD2      -11.2440   -0.2930   -9.4760 C.ar   77  PHE77      -0.0042
     47  CE1      -12.0520    2.3210   -9.8780 C.ar   77  PHE77      -0.0003
     48  CE2      -10.6560    0.7390   -8.7540 C.ar   77  PHE77      -0.0003
     49  CZ       -11.0590    2.0440   -8.9530 C.ar   77  PHE77      -0.0000
     50  N        -14.9120   -0.9290   -8.4310 N.am   78  MET78      -0.1979
     51  CA       -14.9690   -0.9740   -6.9650 C.3    78  MET78       0.1605
     52  C        -16.2050   -1.7050   -6.4430 C.2    78  MET78       0.2287
     53  O        -16.4000   -1.8270   -5.2330 O.2    78  MET78      -0.2864
     54  CB       -14.8680    0.4400   -6.3800 C.3    78  MET78       0.0413
     55  CG       -13.4700    1.0070   -6.5410 C.3    78  MET78       0.0598
     56  SD       -13.1900    2.6020   -5.7550 S.3    78  MET78      -0.1393
     57  CE       -12.7650    2.0660   -4.1020 C.3    78  MET78       0.0692
     58  N        -17.4990   -2.2760   -2.5710 N.3    82  PHE82      -0.1241
     59  CA       -18.6970   -1.5510   -2.1060 C.3    82  PHE82       0.1605
     60  C        -19.9210   -2.4700   -2.0690 C.2    82  PHE82       0.2264
     61  O        -20.7730   -2.3450   -1.1960 O.2    82  PHE82      -0.2867
     62  CB       -19.0230   -0.3400   -2.9960 C.3    82  PHE82       0.0534
     63  CG       -17.9500    0.7310   -3.0350 C.ar   82  PHE82      -0.0203
     64  CD1      -16.9990    0.8580   -2.0280 C.ar   82  PHE82      -0.0042
     65  CD2      -17.9190    1.6310   -4.0920 C.ar   82  PHE82      -0.0042
     66  CE1      -16.0270    1.8570   -2.0910 C.ar   82  PHE82      -0.0003
     67  CE2      -16.9590    2.6260   -4.1610 C.ar   82  PHE82      -0.0003
     68  CZ       -16.0090    2.7420   -3.1560 C.ar   82  PHE82      -0.0000
     69  N        -23.7620    2.5750   -3.2630 N.3    87  ALA87      -0.1231
     70  CA       -23.1390    3.7970   -3.7280 C.3    87  ALA87       0.1694
     71  C        -23.4360    3.9810   -5.2160 C.2    87  ALA87       0.2592
     72  O        -24.5970    3.9760   -5.6260 O.2    87  ALA87      -0.2718
     73  CB       -21.6370    3.7770   -3.4610 C.3    87  ALA87       0.0304
     74  N        -22.3900    4.1200   -6.0200 N.am   88  TYR88      -0.1976
     75  CA       -22.5470    4.4840   -7.4400 C.3    88  TYR88       0.1639
     76  C        -23.2510    3.4090   -8.2620 C.2    88  TYR88       0.2290
     77  O        -23.7510    3.6880   -9.3600 O.2    88  TYR88      -0.2864
     78  CB       -21.1880    4.8330   -8.0530 C.3    88  TYR88       0.0560
     79  CG       -20.4610    5.8620   -7.2210 C.ar   88  TYR88      -0.0198
     80  CD1      -20.8990    7.1820   -7.1710 C.ar   88  TYR88      -0.0009
     81  CD2      -19.3660    5.5060   -6.4480 C.ar   88  TYR88      -0.0009
     82  CE1      -20.2460    8.1270   -6.3910 C.ar   88  TYR88       0.0417
     83  CE2      -18.7070    6.4390   -5.6670 C.ar   88  TYR88       0.0417
     84  CZ       -19.1500    7.7450   -5.6410 C.ar   88  TYR88       0.1957
     85  OH       -18.4880    8.6630   -4.8620 O.3    88  TYR88      -0.2866
     86  N        -25.3190    7.9270    0.4660 N.3    99  LEU99      -0.1245
     87  CA       -24.2260    8.8530    0.7150 C.3    99  LEU99       0.1561
     88  C        -24.6130    9.9150    1.7610 C.2    99  LEU99       0.2260
     89  O        -23.8010   10.2680    2.6340 O.2    99  LEU99      -0.2867
     90  CB       -23.7630    9.4910   -0.6070 C.3    99  LEU99       0.0270
     91  CG       -23.0380    8.5180   -1.5520 C.3    99  LEU99       0.0019
     92  CD1      -22.9600    9.0470   -2.9850 C.3    99  LEU99       0.0001
     93  CD2      -21.6510    8.2100   -1.0210 C.3    99  LEU99       0.0001
     94  N        -24.4100    8.3900    5.2170 N.3   102  LEU102     -0.1245
     95  CA       -23.0180    8.3640    5.6180 C.3   102  LEU102      0.1561
     96  C        -22.5570    9.7560    6.0400 C.2   102  LEU102      0.2260
     97  O        -21.9090    9.9120    7.0690 O.2   102  LEU102     -0.2867
     98  CB       -22.1290    7.8260    4.4960 C.3   102  LEU102      0.0270
     99  CG       -20.6200    7.8410    4.8010 C.3   102  LEU102      0.0019
    100  CD1      -20.3240    7.2260    6.1680 C.3   102  LEU102      0.0001
    101  CD2      -19.8260    7.1340    3.7150 C.3   102  LEU102      0.0001
    102  N         -7.8580   -0.2630  -11.1470 N.3   182  PRO182     -0.2116
    103  CA        -8.4660    0.9180  -11.7770 C.3   182  PRO182      0.1372
    104  C         -8.4520    0.8600  -13.3140 C.2   182  PRO182      0.2244
    105  O         -9.2970    1.4760  -13.9570 O.2   182  PRO182     -0.2868
    106  CB        -7.5930    2.0730  -11.2720 C.3   182  PRO182      0.0268
    107  CG        -7.0370    1.5770   -9.9770 C.3   182  PRO182      0.0207
    108  CD        -6.7960    0.1090  -10.1930 C.3   182  PRO182      0.0892
    109  N        -11.5920    0.3970  -15.6040 N.3   185  VAL185     -0.1231
    110  CA       -12.3460    1.5140  -16.1600 C.3   185  VAL185      0.1692
    111  C        -12.2370    1.5230  -17.6880 C.2   185  VAL185      0.2592
    112  O        -13.1920    1.8390  -18.4040 O.2   185  VAL185     -0.2718
    113  CB       -11.8430    2.8480  -15.5870 C.3   185  VAL185      0.0266
    114  CG1      -12.4820    4.0240  -16.3140 C.3   185  VAL185      0.0020
    115  CG2      -12.1290    2.9170  -14.0940 C.3   185  VAL185      0.0020
    116  N        -11.0590    1.1510  -18.1720 N.am  186  PHE186     -0.1976
    117  CA       -10.7390    1.2310  -19.6040 C.3   186  PHE186      0.1639
    118  C        -10.6750   -0.1400  -20.2530 C.2   186  PHE186      0.2290
    119  O        -10.6180   -0.2580  -21.4830 O.2   186  PHE186     -0.2864
    120  CB        -9.4080    1.9440  -19.7780 C.3   186  PHE186      0.0560
    121  CG        -9.3800    3.3040  -19.1570 C.ar  186  PHE186     -0.0200
    122  CD1      -10.0570    4.3570  -19.7520 C.ar  186  PHE186     -0.0042
    123  CD2       -8.6960    3.5330  -17.9700 C.ar  186  PHE186     -0.0042
    124  CE1      -10.0450    5.6160  -19.1830 C.ar  186  PHE186     -0.0003
    125  CE2       -8.6800    4.7940  -17.3950 C.ar  186  PHE186     -0.0003
    126  CZ        -9.3560    5.8370  -18.0040 C.ar  186  PHE186     -0.0000
    127  N        -16.8230    1.9200    2.1500 N.3   259  ALA259     -0.1245
    128  CA       -16.5870    3.1790    1.4540 C.3   259  ALA259      0.1562
    129  C        -15.9590    4.2200    2.3860 C.2   259  ALA259      0.2260
    130  O        -14.9590    4.8480    2.0340 O.2   259  ALA259     -0.2867
    131  CB       -17.8760    3.7070    0.8520 C.3   259  ALA259      0.0290
    132  N        -12.3230    2.9460    3.7890 N.3   262  PHE262     -0.1227
    133  CA       -11.3810    2.9580    2.6910 C.3   262  PHE262      0.1736
    134  C        -11.0570    4.4020    2.3100 C.2   262  PHE262      0.2595
    135  O         -9.8860    4.7930    2.2610 O.2   262  PHE262     -0.2718
    136  CB       -11.9660    2.1940    1.4980 C.3   262  PHE262      0.0547
    137  CG       -10.9720    1.8790    0.3990 C.ar  262  PHE262     -0.0202
    138  CD1      -10.4370    2.8850   -0.4030 C.ar  262  PHE262     -0.0042
    139  CD2      -10.6070    0.5680    0.1410 C.ar  262  PHE262     -0.0042
    140  CE1       -9.5430    2.5820   -1.4180 C.ar  262  PHE262     -0.0003
    141  CE2       -9.7120    0.2590   -0.8740 C.ar  262  PHE262     -0.0003
    142  CZ        -9.1790    1.2670   -1.6540 C.ar  262  PHE262     -0.0000
    143  N        -12.1020    5.1940    2.0610 N.am  263  ALA263     -0.1980
    144  CA       -11.9370    6.5830    1.6220 C.3   263  ALA263      0.1597
    145  C        -11.0720    7.3700    2.5950 C.2   263  ALA263      0.2287
    146  O        -10.1930    8.1210    2.1860 O.2   263  ALA263     -0.2864
    147  CB       -13.2900    7.2570    1.4500 C.3   263  ALA263      0.0319
    148  N         -6.2550    8.5850    2.1660 N.3   267  THR267     -0.1218
    149  CA        -6.2030   10.0320    1.9660 C.3   267  THR267      0.1862
    150  C         -5.7480   10.7670    3.2290 C.2   267  THR267      0.2287
    151  O         -4.9100   11.6780    3.1610 O.2   267  THR267     -0.2866
    152  CB        -7.5550   10.6130    1.5130 C.3   267  THR267      0.1770
    153  OG1       -8.5720   10.2260    2.4440 O.3   267  THR267     -0.2211
    154  CG2       -7.9110   10.1140    0.1240 C.3   267  THR267      0.0375
    155  N         -5.8070   11.9040   -5.0290 N.3   328  LEU328     -0.1231
    156  CA        -6.5790   11.4270   -6.1630 C.3   328  LEU328      0.1693
    157  C         -6.2880   12.2670   -7.4020 C.2   328  LEU328      0.2592
    158  O         -6.5870   13.4630   -7.4380 O.2   328  LEU328     -0.2718
    159  CB        -8.0730   11.4170   -5.8250 C.3   328  LEU328      0.0284
    160  CG        -8.3550   10.5640   -4.5780 C.3   328  LEU328      0.0019
    161  CD1       -9.6090   11.0160   -3.8500 C.3   328  LEU328      0.0001
    162  CD2       -8.4420    9.0860   -4.9510 C.3   328  LEU328      0.0001
    163  N         -5.6850   11.6330   -8.4090 N.am  329  LEU329     -0.1966
    164  CA        -5.0530   12.3500   -9.5160 C.3   329  LEU329      0.1728
    165  C         -6.0540   12.7540  -10.5680 C.2   329  LEU329      0.2616
    166  O         -5.8890   13.7810  -11.2340 O.2   329  LEU329     -0.2715
    167  CB        -4.0060   11.4700  -10.1960 C.3   329  LEU329      0.0311
    168  CG        -2.8560   10.9320   -9.3670 C.3   329  LEU329      0.0022
    169  CD1       -1.8760   10.1740  -10.2580 C.3   329  LEU329      0.0001
    170  CD2       -2.1660   12.0750   -8.6400 C.3   329  LEU329      0.0001
    171  N         -7.0770   11.9250  -10.7340 N.am  330  MET330     -0.1977
    172  CA        -7.9710   11.9880  -11.8770 C.3   330  MET330      0.1605
    173  C         -9.3860   11.7220  -11.4190 C.2   330  MET330      0.2287
    174  O         -9.7040   10.6160  -10.9790 O.2   330  MET330     -0.2864
    175  CB        -7.5930   10.9300  -12.9150 C.3   330  MET330      0.0413
    176  CG        -6.2960   11.2070  -13.6540 C.3   330  MET330      0.0598
    177  SD        -6.4920   12.5030  -14.8910 S.3   330  MET330     -0.1393
    178  CE        -8.0440   12.0210  -15.6320 C.3   330  MET330      0.0692
    179  N        -13.2800   11.3060  -12.7340 N.3   332  MET332     -0.1245
    180  CA       -13.8550   10.9370  -14.0360 C.3   332  MET332      0.1570
    181  C        -15.3670   10.7770  -13.9860 C.2   332  MET332      0.2261
    182  O        -15.9220   10.4260  -12.9460 O.2   332  MET332     -0.2867
    183  CB       -13.1970    9.6610  -14.5800 C.3   332  MET332      0.0387
    184  CG       -11.7220    9.8400  -14.8930 C.3   332  MET332      0.0595
    185  SD       -10.9940    8.4330  -15.7500 S.3   332  MET332     -0.1393
    186  CE       -11.0390    7.2090  -14.4410 C.3   332  MET332      0.0692
    187  N        -16.4270   15.8120   -1.6460 N.3   394  CYS394     -0.1235
    188  CA       -16.1020   14.9000   -0.5500 C.3   394  CYS394      0.1677
    189  C        -16.9690   15.1690    0.6770 C.2   394  CYS394      0.2270
    190  O        -17.0890   16.3100    1.1050 O.2   394  CYS394     -0.2867
    191  CB       -14.6230   15.0220   -0.1860 C.3   394  CYS394      0.0956
    192  SG       -14.1300   14.0310    1.2400 S.3   394  CYS394     -0.0801
    193  N         -3.3130    3.3900   -6.3600 N.3   432  MET432     -0.1230
    194  CA        -4.6480    3.9830   -6.5150 C.3   432  MET432      0.1702
    195  C         -4.7400    5.3440   -5.8760 C.2   432  MET432      0.2592
    196  O         -5.2230    6.3010   -6.4700 O.2   432  MET432     -0.2718
    197  CB        -5.6940    3.1430   -5.7960 C.3   432  MET432      0.0401
    198  CG        -6.3040    1.9950   -6.5500 C.3   432  MET432      0.0596
    199  SD        -7.5300    1.2680   -5.4390 S.3   432  MET432     -0.1393
    200  CE        -8.8280    2.5070   -5.4600 C.3   432  MET432      0.0692
    201  N         -4.3490    5.3950   -4.6090 N.am  433  VAL433     -0.1980
    202  CA        -4.3460    6.6370   -3.8670 C.3   433  VAL433      0.1595
    203  C         -2.9020    7.0580   -3.6820 C.2   433  VAL433      0.2287
    204  O         -2.1070    6.3170   -3.1110 O.2   433  VAL433     -0.2864
    205  CB        -5.0180    6.4940   -2.4910 C.3   433  VAL433      0.0276
    206  CG1       -5.1770    7.8610   -1.8400 C.3   433  VAL433      0.0022
    207  CG2       -6.3650    5.7940   -2.6190 C.3   433  VAL433      0.0022
@<TRIPOS>BOND
     1     1     2    1
     2     7     5    1
     3   119   118    2
     4     2     5    1
     5     2     3    1
     6     5     6    1
     7     3     4    2
     8   118   117    1
     9     9    10    1
    10   120   117    1
    11   120   121    1
    12   122   124   ar
    13   122   121   ar
    14   117   116    1
    15     6     8    1
    16   124   126   ar
    17   121   123   ar
    18    13    10    1
    19    13    14    1
    20    10    11    1
    21   112   111    2
    22   116   111   am
    23   126   125   ar
    24   123   125   ar
    25    16    14   ar
    26    16    18   ar
    27   111   110    1
    28    14    15   ar
    29    11    12    2
    30    18    19   ar
    31    15    17   ar
    32   114   113    1
    33   110   109    1
    34   110   113    1
    35   185   184    1
    36   185   186    1
    37   178   177    1
    38   113   115    1
    39    19    17   ar
    40    25    24    1
    41   184   183    1
    42   177   176    1
    43   183   180    1
    44   180   181    1
    45   180   179    1
    46    20    21    1
    47   181   182    2
    48   105   104    2
    49    24    21    1
    50    24    26    1
    51   176   175    1
    52    21    22    1
    53   104   103    1
    54   175   172    1
    55    22    23    2
    56    22    27   am
    57   172   173    1
    58   172   171    1
    59   103   106    1
    60   103   102    1
    61    27    28    1
    62   173   174    2
    63   106   107    1
    64   166   165    2
    65    43    40    1
    66    43    44    1
    67   102   108    1
    68    39    40    1
    69   171   165   am
    70    40    41    1
    71    45    44   ar
    72    45    47   ar
    73   165   164    1
    74    44    46   ar
    75   169   168    1
    76    29    28    1
    77    29    30    2
    78   167   164    1
    79   167   168    1
    80   108   107    1
    81    28    31    1
    82    47    49   ar
    83   164   163    1
    84    46    48   ar
    85   168   170    1
    86    77    76    2
    87    41    42    2
    88    41    50   am
    89    31    32    1
    90    49    48   ar
    91    34    32   ar
    92    34    36   ar
    93    32    33   ar
    94    50    51    1
    95   163   157   am
    96    36    37   ar
    97    76    75    1
    98    78    75    1
    99    78    79    1
   100    33    35   ar
   101    75    74    1
   102   158   157    2
   103   157   156    1
   104    37    35   ar
   105    37    38    1
   106    79    80   ar
   107    79    81   ar
   108    80    82   ar
   109    51    52    1
   110    51    54    1
   111   198   197    1
   112   198   199    1
   113    55    54    1
   114    55    56    1
   115   194   193    1
   116   194   195    1
   117   194   197    1
   118   196   195    2
   119    81    83   ar
   120    52    53    2
   121    82    84   ar
   122   156   159    1
   123   156   155    1
   124    74    71   am
   125   195   201   am
   126   159   160    1
   127    56    57    1
   128    83    84   ar
   129    84    85    1
   130    72    71    2
   131   200   199    1
   132    71    70    1
   133   162   160    1
   134   201   202    1
   135   160   161    1
   136    67    65   ar
   137    67    68   ar
   138    65    63   ar
   139   202   203    1
   140   202   205    1
   141    70    73    1
   142    70    69    1
   143   203   204    2
   144    68    66   ar
   145    63    62    1
   146    63    64   ar
   147    62    59    1
   148    92    91    1
   149   207   205    1
   150    58    59    1
   151   205   206    1
   152    59    60    1
   153    66    64   ar
   154    60    61    2
   155   142   140   ar
   156   142   141   ar
   157   187   188    1
   158    91    93    1
   159    91    90    1
   160   140   138   ar
   161   141   139   ar
   162    90    87    1
   163   188   191    1
   164   188   189    1
   165   138   137   ar
   166   191   192    1
   167   154   152    1
   168   139   137   ar
   169   137   136    1
   170    86    87    1
   171   189   190    2
   172    87    88    1
   173   131   128    1
   174   147   144    1
   175   128   127    1
   176   128   129    1
   177   136   133    1
   178   152   149    1
   179   152   153    1
   180   144   143    1
   181   144   145    1
   182    88    89    2
   183   149   148    1
   184   149   150    1
   185   130   129    2
   186   143   134   am
   187   146   145    2
   188   135   134    2
   189   134   133    1
   190   133   132    1
   191   151   150    2
   192   101    99    1
   193    98    99    1
   194    98    95    1
   195    99   100    1
   196    94    95    1
   197    95    96    1
   198    96    97    2
