@<TRIPOS>MOLECULE
tmp/4g3mC00.pdb
 163 154 0 0 0
SMALL
GASTEIGER

@<TRIPOS>ATOM
      1  N         66.4230   72.2310   85.2650 N.3    25  ASN25      -0.1226
      2  CA        67.8640   72.3090   85.0590 C.3    25  ASN25       0.1770
      3  C         68.3970   71.1270   84.2580 C.2    25  ASN25       0.2439
      4  O         67.8890   70.0110   84.3400 O.2    25  ASN25      -0.2733
      5  CB        68.6010   72.3660   86.3970 C.3    25  ASN25       0.1168
      6  CG        68.5060   73.7210   87.0600 C.2    25  ASN25       0.2627
      7  OD1       69.0010   73.9090   88.1730 O.2    25  ASN25      -0.2716
      8  ND2       67.8720   74.6790   86.3800 N.am   25  ASN25      -0.0877
      9  N         69.4480   71.3620   83.4770 N.am   26  PRO26      -0.2729
     10  CA        70.0340   70.2960   82.6690 C.3    26  PRO26       0.1401
     11  C         70.9410   69.4010   83.4980 C.2    26  PRO26       0.2269
     12  O         71.4870   69.8360   84.4980 O.2    26  PRO26      -0.2865
     13  CB        70.8070   71.0690   81.6080 C.3    26  PRO26       0.0296
     14  CG        71.2900   72.2700   82.3880 C.3    26  PRO26       0.0237
     15  CD        70.0870   72.6600   83.1980 C.3    26  PRO26       0.0939
     16  N         74.2640   67.8070   84.3140 N.3    28  VAL28      -0.1245
     17  CA        75.6300   68.1720   84.0030 C.3    28  VAL28       0.1561
     18  C         76.5960   67.4050   84.8910 C.2    28  VAL28       0.2260
     19  O         76.2630   67.0520   86.0170 O.2    28  VAL28      -0.2867
     20  CB        75.8360   69.6660   84.2090 C.3    28  VAL28       0.0252
     21  CG1       77.2440   70.0620   83.8120 C.3    28  VAL28       0.0019
     22  CG2       74.8140   70.4310   83.3930 C.3    28  VAL28       0.0019
     23  N         75.0000   67.6650   88.7400 N.3    44  HIS44      -0.1241
     24  CA        73.8800   68.4120   89.2810 C.3    44  HIS44       0.1621
     25  C         72.8590   67.3860   89.7490 C.2    44  HIS44       0.2264
     26  O         72.2400   66.7220   88.9310 O.2    44  HIS44      -0.2867
     27  CB        73.2690   69.3010   88.1980 C.3    44  HIS44       0.0745
     28  CG        72.2620   70.2790   88.7150 C.ar   44  HIS44       0.0817
     29  ND1       72.5530   71.1890   89.7080 N.ar   44  HIS44      -0.2268
     30  CD2       70.9660   70.4850   88.3820 C.ar   44  HIS44       0.1154
     31  CE1       71.4780   71.9120   89.9670 C.ar   44  HIS44       0.1986
     32  NE2       70.5000   71.5050   89.1760 N.ar   44  HIS44      -0.2212
     33  N         67.8040   73.8580   91.9530 N.3    48  GLY48      -0.1210
     34  CA        68.0840   74.9740   92.8280 C.3    48  GLY48       0.1956
     35  C         69.3030   74.7540   93.6960 C.2    48  GLY48       0.2611
     36  O         69.6520   75.6170   94.4990 O.2    48  GLY48      -0.2717
     37  N         69.9580   73.6090   93.5450 N.am   49  GLU49      -0.1979
     38  CA        71.1460   73.3440   94.3360 C.3    49  GLU49       0.1602
     39  C         72.4320   73.4500   93.5320 C.2    49  GLU49       0.2287
     40  O         72.4150   73.8450   92.3680 O.2    49  GLU49      -0.2864
     41  CB        71.0240   71.9910   95.0330 C.3    49  GLU49       0.0415
     42  CG        70.1230   72.0800   96.2570 C.3    49  GLU49       0.1163
     43  CD        69.8630   70.7500   96.9320 C.2    49  GLU49       0.3649
     44  OE1       70.7760   69.8950   96.9720 O.co2  49  GLU49      -0.2457
     45  OE2       68.7380   70.5710   97.4450 O.co2  49  GLU49      -0.2457
     46  N         75.7610   73.2750   91.2950 N.3    51  HIS51      -0.1226
     47  CA        76.0700   72.8020   89.9540 C.3    51  HIS51       0.1752
     48  C         77.2130   71.7960   90.0280 C.2    51  HIS51       0.2596
     49  O         77.8990   71.6950   91.0420 O.2    51  HIS51      -0.2718
     50  CB        76.4750   73.9780   89.0620 C.3    51  HIS51       0.0759
     51  CG        75.3230   74.8320   88.6200 C.ar   51  HIS51       0.0818
     52  ND1       75.4860   75.9450   87.8230 N.ar   51  HIS51      -0.2268
     53  CD2       73.9890   74.7060   88.8210 C.ar   51  HIS51       0.1154
     54  CE1       74.3030   76.4660   87.5490 C.ar   51  HIS51       0.1986
     55  NE2       73.3780   75.7320   88.1420 N.ar   51  HIS51      -0.2212
     56  N         77.4130   71.0640   88.9400 N.am   52  ALA52      -0.1966
     57  CA        78.4550   70.0490   88.8590 C.3    52  ALA52       0.1728
     58  C         79.8360   70.5460   89.2370 C.2    52  ALA52       0.2616
     59  O         80.5640   69.8940   89.9860 O.2    52  ALA52      -0.2715
     60  CB        78.5010   69.4700   87.4580 C.3    52  ALA52       0.0334
     61  N         80.2050   71.6970   88.7050 N.am   53  GLU53      -0.1977
     62  CA        81.5200   72.2530   88.9690 C.3    53  GLU53       0.1602
     63  C         81.7870   72.4910   90.4480 C.2    53  GLU53       0.2287
     64  O         82.9170   72.3540   90.9140 O.2    53  GLU53      -0.2864
     65  CB        81.7000   73.5490   88.1780 C.3    53  GLU53       0.0415
     66  CG        81.5830   73.3510   86.6690 C.3    53  GLU53       0.1163
     67  CD        80.1460   73.3970   86.1570 C.2    53  GLU53       0.3649
     68  OE1       79.2080   73.0420   86.9150 O.co2  53  GLU53      -0.2457
     69  OE2       79.9640   73.7820   84.9760 O.co2  53  GLU53      -0.2457
     70  N         78.9890   70.6510   79.9500 N.3    73  LEU73      -0.1231
     71  CA        78.2860   71.8460   79.5160 C.3    73  LEU73       0.1693
     72  C         79.0570   73.1030   79.8900 C.2    73  LEU73       0.2591
     73  O         79.7330   73.1480   80.9070 O.2    73  LEU73      -0.2718
     74  CB        76.8910   71.8920   80.1420 C.3    73  LEU73       0.0284
     75  CG        75.7560   72.4130   79.2550 C.3    73  LEU73       0.0019
     76  CD1       74.4730   72.5200   80.0640 C.3    73  LEU73       0.0001
     77  CD2       76.1160   73.7740   78.6960 C.3    73  LEU73       0.0001
     78  N         78.9540   74.1290   79.0580 N.am   74  GLU74      -0.1979
     79  CA        79.6430   75.3820   79.3170 C.3    74  GLU74       0.1602
     80  C         79.3200   75.8960   80.7130 C.2    74  GLU74       0.2287
     81  O         78.1550   75.9970   81.0910 O.2    74  GLU74      -0.2864
     82  CB        79.2300   76.4350   78.2830 C.3    74  GLU74       0.0415
     83  CG        79.8650   77.8030   78.4990 C.3    74  GLU74       0.1163
     84  CD        79.3530   78.8630   77.5270 C.2    74  GLU74       0.3649
     85  OE1       79.8470   80.0110   77.5970 O.co2  74  GLU74      -0.2457
     86  OE2       78.4630   78.5540   76.7010 O.co2  74  GLU74      -0.2457
     87  N         78.2790   78.0630   83.6020 N.3    76  CYS76      -0.1235
     88  CA        77.4370   79.2490   83.6750 C.3    76  CYS76       0.1677
     89  C         78.2170   80.4680   84.1720 C.2    76  CYS76       0.2270
     90  O         79.1050   80.3510   85.0170 O.2    76  CYS76      -0.2867
     91  CB        76.2430   78.9920   84.5980 C.3    76  CYS76       0.0956
     92  SG        76.6990   78.7710   86.3290 S.3    76  CYS76      -0.0801
     93  N         76.2270   83.4630   84.6000 N.3    78  HIS78      -0.1241
     94  CA        75.1340   84.3090   85.0730 C.3    78  HIS78       0.1621
     95  C         74.7690   83.9730   86.5230 C.2    78  HIS78       0.2264
     96  O         75.2250   82.9670   87.0740 O.2    78  HIS78      -0.2867
     97  CB        73.8960   84.1270   84.1860 C.3    78  HIS78       0.0745
     98  CG        73.2240   82.7970   84.3490 C.ar   78  HIS78       0.0817
     99  ND1       73.7520   81.6270   83.8460 N.ar   78  HIS78      -0.2268
    100  CD2       72.0770   82.4500   84.9800 C.ar   78  HIS78       0.1154
    101  CE1       72.9590   80.6180   84.1590 C.ar   78  HIS78       0.1986
    102  NE2       71.9350   81.0910   84.8470 N.ar   78  HIS78      -0.2212
    103  N         71.8280   82.8550   88.4590 N.3    80  GLY80      -0.1210
    104  CA        70.4730   82.3400   88.5390 C.3    80  GLY80       0.1956
    105  C         70.1570   81.9220   89.9630 C.2    80  GLY80       0.2612
    106  O         70.1510   82.7500   90.8730 O.2    80  GLY80      -0.2717
    107  N         69.8900   80.6350   90.1590 N.am   81  LYS81      -0.1965
    108  CA        69.5940   80.1140   91.4850 C.3    81  LYS81       0.1728
    109  C         70.9050   79.9350   92.2470 C.2    81  LYS81       0.2616
    110  O         70.9120   79.8070   93.4700 O.2    81  LYS81      -0.2715
    111  CB        68.8470   78.7840   91.3700 C.3    81  LYS81       0.0311
    112  CG        67.4400   78.9360   90.8220 C.3    81  LYS81       0.0038
    113  CD        66.7610   77.5960   90.6170 C.3    81  LYS81       0.0206
    114  CE        67.3040   76.8690   89.3920 C.3    81  LYS81       0.1093
    115  NZ        66.9770   77.5710   88.1130 N.3    81  LYS81      -0.1314
    116  N         72.0110   79.9350   91.5050 N.am   82  THR82      -0.1951
    117  CA        73.3500   79.7950   92.0770 C.3    82  THR82       0.1897
    118  C         74.3220   80.6790   91.2850 C.2    82  THR82       0.2313
    119  O         74.0970   80.9620   90.1050 O.2    82  THR82      -0.2863
    120  CB        73.8510   78.3220   92.0260 C.3    82  THR82       0.1794
    121  OG1       74.0220   77.9120   90.6640 O.3    82  THR82      -0.2208
    122  CG2       72.8530   77.3930   92.7020 C.3    82  THR82       0.0378
    123  N         79.8720   79.4930   87.8880 N.3    85  CYS85      -0.1235
    124  CA        80.8710   78.4480   88.0470 C.3    85  CYS85       0.1677
    125  C         82.1230   78.8330   87.2850 C.2    85  CYS85       0.2270
    126  O         83.2240   78.4090   87.6250 O.2    85  CYS85      -0.2867
    127  CB        80.3280   77.1300   87.5160 C.3    85  CYS85       0.0956
    128  SG        78.7780   76.6860   88.2810 S.3    85  CYS85      -0.0801
    129  N         76.5020   76.4680   75.7780 N.3   103  ASP103     -0.1239
    130  CA        75.1620   76.6600   76.3080 C.3   103  ASP103      0.1674
    131  C         74.1720   77.0520   75.2160 C.2   103  ASP103      0.2266
    132  O         74.5250   77.7170   74.2480 O.2   103  ASP103     -0.2867
    133  CB        75.1880   77.7310   77.3950 C.3   103  ASP103      0.1410
    134  CG        73.8440   77.9130   78.0650 C.2   103  ASP103      0.3668
    135  OD1       73.2780   76.9120   78.5610 O.co2 103  ASP103     -0.2456
    136  OD2       73.3570   79.0630   78.1010 O.co2 103  ASP103     -0.2456
    137  N         71.1140   78.8970   75.6560 N.3   105  ASN105     -0.1240
    138  CA        70.5560   80.2500   75.8110 C.3   105  ASN105      0.1653
    139  C         71.4500   81.2450   75.0650 C.2   105  ASN105      0.2266
    140  O         72.4610   81.6910   75.6070 O.2   105  ASN105     -0.2867
    141  CB        70.5130   80.6440   77.2900 C.3   105  ASN105      0.1155
    142  CG        69.8490   79.5940   78.1610 C.2   105  ASN105      0.2627
    143  OD1       70.1100   78.3980   78.0210 O.2   105  ASN105     -0.2716
    144  ND2       69.0010   80.0390   79.0820 N.am  105  ASN105     -0.0877
    145  N         65.7570   69.8280   76.9110 N.3   139  PHE139     -0.1241
    146  CA        66.2690   71.1270   77.3480 C.3   139  PHE139      0.1605
    147  C         66.9160   71.9200   76.2090 C.2   139  PHE139      0.2264
    148  O         66.5630   73.0770   75.9840 O.2   139  PHE139     -0.2867
    149  CB        67.2800   70.9360   78.4790 C.3   139  PHE139      0.0534
    150  CG        67.9500   72.2080   78.9270 C.ar  139  PHE139     -0.0203
    151  CD1       67.2850   73.1090   79.7500 C.ar  139  PHE139     -0.0042
    152  CD2       69.2520   72.5010   78.5210 C.ar  139  PHE139     -0.0042
    153  CE1       67.9080   74.2850   80.1630 C.ar  139  PHE139     -0.0003
    154  CE2       69.8850   73.6700   78.9240 C.ar  139  PHE139     -0.0003
    155  CZ        69.2130   74.5640   79.7470 C.ar  139  PHE139     -0.0000
    156  N         65.6020   75.6410   74.5320 N.3   143  MET143     -0.1245
    157  CA        66.4600   76.8160   74.5260 C.3   143  MET143      0.1570
    158  C         66.8280   77.2830   73.1170 C.2   143  MET143      0.2261
    159  O         66.9570   78.4820   72.8650 O.2   143  MET143     -0.2867
    160  CB        67.7450   76.5310   75.2990 C.3   143  MET143      0.0387
    161  CG        67.5650   76.3130   76.7890 C.3   143  MET143      0.0595
    162  SD        66.9750   77.7930   77.6100 S.3   143  MET143     -0.1393
    163  CE        66.1780   77.1160   79.0730 C.3   143  MET143      0.0692
@<TRIPOS>BOND
     1   159   158    2
     2   158   157    1
     3   132   131    2
     4   157   156    1
     5   157   160    1
     6   139   140    2
     7   139   138    1
     8   131   130    1
     9   160   161    1
    10   137   138    1
    11   129   130    1
    12   138   141    1
    13   148   147    2
    14   147   146    1
    15   130   133    1
    16    86    84   ar
    17   161   162    1
    18   145   146    1
    19   141   142    1
    20   146   149    1
    21   133   134    1
    22    84    85   ar
    23    84    83    1
    24   162   163    1
    25   143   142    2
    26   134   136   ar
    27   134   135   ar
    28   142   144   am
    29    82    83    1
    30    82    79    1
    31   149   150    1
    32   152   154   ar
    33   152   150   ar
    34    77    75    1
    35   154   155   ar
    36   150   151   ar
    37    78    79    1
    38    78    72   am
    39    75    76    1
    40    75    74    1
    41    79    80    1
    42    71    72    1
    43    71    70    1
    44    71    74    1
    45   155   153   ar
    46   151   153   ar
    47    72    73    2
    48    80    81    2
    49    13    14    1
    50    13    10    1
    51    14    15    1
    52    10     9    1
    53    10    11    1
    54    15     9    1
    55    22    20    1
    56     9     3   am
    57    11    12    2
    58    87    88    1
    59    88    89    1
    60    88    91    1
    61    21    20    1
    62    99   101   ar
    63    99    98   ar
    64    17    20    1
    65    17    16    1
    66    17    18    1
    67   101   102   ar
    68    89    90    2
    69    97    98    1
    70    97    94    1
    71     3     4    2
    72     3     2    1
    73    98   100   ar
    74    91    92    1
    75    93    94    1
    76   102   100   ar
    77    18    19    2
    78    69    67   ar
    79     2     1    1
    80     2     5    1
    81    94    95    1
    82    67    66    1
    83    67    68   ar
    84     8     6   am
    85     5     6    1
    86    95    96    2
    87    66    65    1
    88     6     7    2
    89   125   126    2
    90   125   124    1
    91    60    57    1
    92   127   124    1
    93   127   128    1
    94    54    52   ar
    95    54    55   ar
    96    52    51   ar
    97   123   124    1
    98   115   114    1
    99    55    53   ar
   100    65    62    1
   101    27    28    1
   102    27    24    1
   103    30    28   ar
   104    30    32   ar
   105   103   104    1
   106   104   105    1
   107    51    53   ar
   108    51    50    1
   109    61    62    1
   110    61    58   am
   111    28    29   ar
   112    23    24    1
   113    57    56    1
   114    57    58    1
   115    26    25    2
   116    56    48   am
   117    62    63    1
   118    50    47    1
   119    32    31   ar
   120    58    59    2
   121    24    25    1
   122   114   113    1
   123    29    31   ar
   124    47    48    1
   125    47    46    1
   126   105   107   am
   127   105   106    2
   128    48    49    2
   129   119   118    2
   130   107   108    1
   131    63    64    2
   132   113   112    1
   133   121   120    1
   134   112   111    1
   135   118   117    1
   136   111   108    1
   137   108   109    1
   138   116   117    1
   139   116   109   am
   140    33    34    1
   141   120   117    1
   142   120   122    1
   143   109   110    2
   144    40    39    2
   145    34    35    1
   146    39    38    1
   147    37    35   am
   148    37    38    1
   149    35    36    2
   150    38    41    1
   151    41    42    1
   152    42    43    1
   153    43    44   ar
   154    43    45   ar
