@<TRIPOS>MOLECULE
tmp/4g3mA00.pdb
 188 178 0 0 0
SMALL
GASTEIGER

@<TRIPOS>ATOM
      1  N         48.5820   40.0050   53.8520 N.3   152  LYS152     -0.1245
      2  CA        49.7270   40.8990   53.8590 C.3   152  LYS152      0.1561
      3  C         49.2880   42.3180   53.5400 C.2   152  LYS152      0.2260
      4  O         48.4140   42.5270   52.7080 O.2   152  LYS152     -0.2867
      5  CB        50.7640   40.4130   52.8430 C.3   152  LYS152      0.0271
      6  CG        51.8940   41.4000   52.5470 C.3   152  LYS152      0.0035
      7  CD        51.5860   42.2390   51.3210 C.3   152  LYS152      0.0206
      8  CE        52.7200   43.2030   51.0170 C.3   152  LYS152      0.1093
      9  NZ        52.5570   43.8150   49.6600 N.3   152  LYS152     -0.1314
     10  N         50.7890   46.6730   53.4530 N.3   154  ALA154     -0.1245
     11  CA        51.8060   47.6830   53.6250 C.3   154  ALA154      0.1562
     12  C         51.0590   48.9480   54.0150 C.2   154  ALA154      0.2260
     13  O         49.9910   49.2410   53.4700 O.2   154  ALA154     -0.2867
     14  CB        52.5510   47.8890   52.3290 C.3   154  ALA154      0.0290
     15  N         46.7970   52.8800   54.1120 N.3   161  ILE161     -0.1245
     16  CA        47.3350   52.1540   52.9650 C.3   161  ILE161      0.1561
     17  C         47.4230   53.0320   51.7190 C.2   161  ILE161      0.2260
     18  O         47.7780   52.5560   50.6430 O.2   161  ILE161     -0.2867
     19  CB        46.5020   50.9050   52.6440 C.3   161  ILE161      0.0252
     20  CG1       45.0470   51.2830   52.4050 C.3   161  ILE161      0.0019
     21  CG2       46.6200   49.9110   53.7770 C.3   161  ILE161      0.0019
     22  CD1       44.2310   50.1500   51.8390 C.3   161  ILE161      0.0001
     23  N         49.1980   55.8850   46.5900 N.3   168  SER168     -0.1202
     24  CA        49.8300   54.9010   47.4560 C.3   168  SER168      0.2020
     25  C         51.1080   54.3870   46.8400 C.2   168  SER168      0.2619
     26  O         51.8230   53.6020   47.4520 O.2   168  SER168     -0.2717
     27  CB        48.9050   53.7060   47.6590 C.3   168  SER168      0.2103
     28  OG        48.8330   52.9620   46.4550 O.3   168  SER168     -0.2182
     29  N         51.3940   54.8090   45.6210 N.am  169  LYS169     -0.1965
     30  CA        52.5880   54.3070   44.9870 C.3   169  LYS169      0.1728
     31  C         53.8120   54.5370   45.8430 C.2   169  LYS169      0.2616
     32  O         54.3970   55.6280   45.9020 O.2   169  LYS169     -0.2715
     33  CB        52.7730   54.8940   43.5960 C.3   169  LYS169      0.0311
     34  CG        53.0000   53.8180   42.5380 C.3   169  LYS169      0.0038
     35  CD        51.9070   52.7530   42.5560 C.3   169  LYS169      0.0206
     36  CE        51.9900   51.8680   41.3070 C.3   169  LYS169      0.1093
     37  NZ        50.9800   50.7680   41.2670 N.3   169  LYS169     -0.1314
     38  N         54.1310   53.4570   46.5460 N.am  170  TRP170     -0.1960
     39  CA        55.2680   53.3260   47.4300 C.3   170  TRP170      0.1771
     40  C         55.2310   54.0510   48.7630 C.2   170  TRP170      0.2620
     41  O         55.6710   55.1870   48.9190 O.2   170  TRP170     -0.2715
     42  CB        56.5260   53.6160   46.6230 C.3   170  TRP170      0.0590
     43  CG        56.5280   52.7830   45.3560 C.ar  170  TRP170      0.0006
     44  CD1       57.2350   53.0250   44.2190 C.ar  170  TRP170      0.0946
     45  CD2       55.7380   51.6090   45.0920 C.ar  170  TRP170      0.0152
     46  NE1       56.9340   52.0860   43.2630 N.ar  170  TRP170     -0.2442
     47  CE2       56.0190   51.2060   43.7730 C.ar  170  TRP170      0.0810
     48  CE3       54.8180   50.8620   45.8440 C.ar  170  TRP170      0.0012
     49  CZ2       55.4160   50.0920   43.1860 C.ar  170  TRP170      0.0191
     50  CZ3       54.2180   49.7590   45.2610 C.ar  170  TRP170      0.0001
     51  CH2       54.5200   49.3840   43.9430 C.ar  170  TRP170      0.0015
     52  N         54.6500   53.3350   49.7150 N.am  171  ILE171     -0.1963
     53  CA        54.5360   53.7620   51.0860 C.3   171  ILE171      0.1727
     54  C         55.7280   53.0590   51.7160 C.2   171  ILE171      0.2616
     55  O         56.4510   53.6460   52.4960 O.2   171  ILE171     -0.2715
     56  CB        53.2240   53.2660   51.7200 C.3   171  ILE171      0.0290
     57  CG1       52.0360   53.9810   51.0700 C.3   171  ILE171      0.0022
     58  CG2       53.2510   53.4890   53.2220 C.3   171  ILE171      0.0023
     59  CD1       50.6960   53.5840   51.6310 C.3   171  ILE171      0.0001
     60  N         55.9490   51.8010   51.3590 N.am  172  THR172     -0.1951
     61  CA        57.1000   51.0880   51.8930 C.3   172  THR172      0.1897
     62  C         58.2390   51.0540   50.8640 C.2   172  THR172      0.2313
     63  O         58.0230   51.2710   49.6690 O.2   172  THR172     -0.2863
     64  CB        56.7500   49.6560   52.3240 C.3   172  THR172      0.1794
     65  OG1       56.3740   48.8820   51.1820 O.3   172  THR172     -0.2208
     66  CG2       55.6160   49.6810   53.3340 C.3   172  THR172      0.0378
     67  N         61.5470   46.4560   51.3190 N.3   176  ALA176     -0.1231
     68  CA        60.3530   45.8730   51.9160 C.3   176  ALA176      0.1694
     69  C         59.4950   45.1720   50.8630 C.2   176  ALA176      0.2591
     70  O         58.9740   44.0840   51.0970 O.2   176  ALA176     -0.2718
     71  CB        59.5380   46.9530   52.6250 C.3   176  ALA176      0.0304
     72  N         59.3440   45.7920   49.7030 N.am  177  ARG177     -0.1980
     73  CA        58.5510   45.1750   48.6670 C.3   177  ARG177      0.1597
     74  C         59.2570   43.9300   48.1360 C.2   177  ARG177      0.2287
     75  O         58.6110   42.9360   47.8090 O.2   177  ARG177     -0.2864
     76  CB        58.2750   46.1760   47.5450 C.3   177  ARG177      0.0334
     77  CG        57.4210   47.3580   48.0040 C.3   177  ARG177      0.0492
     78  CD        56.7240   48.0350   46.8310 C.3   177  ARG177      0.2205
     79  NE        57.6540   48.5610   45.8270 N.pl3 177  ARG177     -0.0865
     80  CZ        58.4340   49.6220   46.0070 C.cat 177  ARG177      0.5346
     81  NH1       58.4070   50.2830   47.1560 N.pl3 177  ARG177      0.1354
     82  NH2       59.2380   50.0230   45.0310 N.pl3 177  ARG177      0.1354
     83  N         58.5790   41.0470   50.5450 N.3   180  ALA180     -0.1231
     84  CA        57.2080   40.5670   50.3550 C.3   180  ALA180      0.1694
     85  C         57.0980   39.6530   49.1310 C.2   180  ALA180      0.2591
     86  O         56.2200   38.8020   49.0390 O.2   180  ALA180     -0.2718
     87  CB        56.2560   41.7680   50.1950 C.3   180  ALA180      0.0304
     88  N         57.9930   39.8550   48.1810 N.am  181  GLN181     -0.1979
     89  CA        58.0110   39.0630   46.9700 C.3   181  GLN181      0.1601
     90  C         58.1910   37.5830   47.3150 C.2   181  GLN181      0.2287
     91  O         57.7540   36.7030   46.5790 O.2   181  GLN181     -0.2864
     92  CB        59.1580   39.5430   46.0930 C.3   181  GLN181      0.0394
     93  CG        59.2310   38.8730   44.7720 C.3   181  GLN181      0.0908
     94  CD        58.1430   39.3370   43.8430 C.2   181  GLN181      0.2608
     95  OE1       57.6090   38.5510   43.0650 O.2   181  GLN181     -0.2717
     96  NE2       57.8160   40.6190   43.9050 N.am  181  GLN181     -0.0878
     97  N         55.2900   35.2510   47.3800 N.3   184  ARG184     -0.1245
     98  CA        54.7010   34.9100   46.0930 C.3   184  ARG184      0.1563
     99  C         55.3030   33.5940   45.6370 C.2   184  ARG184      0.2260
    100  O         54.7540   32.9140   44.7750 O.2   184  ARG184     -0.2867
    101  CB        54.9600   36.0040   45.0590 C.3   184  ARG184      0.0307
    102  CG        54.2750   37.2960   45.4330 C.3   184  ARG184      0.0489
    103  CD        54.3620   38.3390   44.3360 C.3   184  ARG184      0.2205
    104  NE        53.8550   39.6210   44.8110 N.pl3 184  ARG184     -0.0865
    105  CZ        53.5300   40.6300   44.0160 C.cat 184  ARG184      0.5346
    106  NH1       53.6620   40.4960   42.7030 N.pl3 184  ARG184      0.1354
    107  NH2       53.0700   41.7630   44.5320 N.pl3 184  ARG184      0.1354
    108  N         41.7990   46.6310   43.5230 N.3   196  THR196     -0.1218
    109  CA        43.2450   46.7120   43.4190 C.3   196  THR196      0.1862
    110  C         43.6600   46.7330   41.9520 C.2   196  THR196      0.2287
    111  O         44.5290   47.5030   41.5430 O.2   196  THR196     -0.2866
    112  CB        43.8900   45.5130   44.1100 C.3   196  THR196      0.1770
    113  OG1       43.5330   45.5360   45.5000 O.3   196  THR196     -0.2211
    114  CG2       45.4140   45.5380   43.9390 C.3   196  THR196      0.0375
    115  N         45.6490   49.8680   40.7480 N.3   200  ASP200     -0.1239
    116  CA        47.0760   49.6700   40.5220 C.3   200  ASP200      0.1674
    117  C         47.5020   48.8570   39.3110 C.2   200  ASP200      0.2266
    118  O         48.6740   48.8880   38.9390 O.2   200  ASP200     -0.2867
    119  CB        47.7060   49.0320   41.7590 C.3   200  ASP200      0.1410
    120  CG        47.4570   49.8340   43.0160 C.2   200  ASP200      0.3668
    121  OD1       47.5520   51.0780   42.9410 O.co2 200  ASP200     -0.2456
    122  OD2       47.1760   49.2280   44.0780 O.co2 200  ASP200     -0.2456
    123  N         48.3100   45.7800   38.8280 N.3   202  PRO202     -0.2102
    124  CA        49.4990   44.9940   39.1730 C.3   202  PRO202      0.1504
    125  C         49.5990   43.7060   38.3570 C.2   202  PRO202      0.2576
    126  O         48.6090   43.2360   37.7850 O.2   202  PRO202     -0.2718
    127  CB        49.2820   44.6930   40.6490 C.3   202  PRO202      0.0282
    128  CG        47.8010   44.4140   40.6770 C.3   202  PRO202      0.0208
    129  CD        47.2400   45.5610   39.8180 C.3   202  PRO202      0.0893
    130  N         50.7910   43.1300   38.3000 N.am  203  SER203     -0.1938
    131  CA        50.9520   41.8850   37.5630 C.3   203  SER203      0.2055
    132  C         50.7790   40.7260   38.5480 C.2   203  SER203      0.2642
    133  O         50.4080   39.6230   38.1640 O.2   203  SER203     -0.2714
    134  CB        52.3260   41.8280   36.8650 C.3   203  SER203      0.2130
    135  OG        53.3860   41.8110   37.8000 O.3   203  SER203     -0.2179
    136  N         51.0230   41.0030   39.8220 N.am  204  LEU204     -0.1977
    137  CA        50.8950   40.0050   40.8730 C.3   204  LEU204      0.1596
    138  C         51.7360   38.7790   40.5750 C.2   204  LEU204      0.2287
    139  O         51.3960   37.6750   40.9910 O.2   204  LEU204     -0.2864
    140  CB        49.4320   39.5850   41.0190 C.3   204  LEU204      0.0297
    141  CG        48.4300   40.6870   41.3480 C.3   204  LEU204      0.0022
    142  CD1       47.0250   40.1090   41.4060 C.3   204  LEU204      0.0001
    143  CD2       48.8070   41.3350   42.6850 C.3   204  LEU204      0.0001
    144  N         58.6190   37.6260   40.8010 N.3   207  ARG207     -0.1245
    145  CA        59.7910   38.0070   40.0290 C.3   207  ARG207      0.1563
    146  C         61.1380   37.7430   40.7000 C.2   207  ARG207      0.2260
    147  O         62.1210   38.4380   40.4400 O.2   207  ARG207     -0.2867
    148  CB        59.6650   39.4800   39.6260 C.3   207  ARG207      0.0307
    149  CG        58.4390   39.7290   38.7530 C.3   207  ARG207      0.0489
    150  CD        58.4280   41.1210   38.1330 C.3   207  ARG207      0.2205
    151  NE        58.2420   42.1820   39.1200 N.pl3 207  ARG207     -0.0865
    152  CZ        57.0890   42.4670   39.7180 C.cat 207  ARG207      0.5346
    153  NH1       55.9940   41.7730   39.4430 N.pl3 207  ARG207      0.1354
    154  NH2       57.0310   43.4660   40.5820 N.pl3 207  ARG207      0.1354
    155  N         46.7730   43.8640   33.1340 N.3   231  LYS231     -0.1245
    156  CA        47.8500   42.9010   33.0040 C.3   231  LYS231      0.1561
    157  C         47.4180   41.4900   33.3630 C.2   231  LYS231      0.2260
    158  O         47.7250   40.5450   32.6380 O.2   231  LYS231     -0.2867
    159  CB        49.0420   43.3090   33.8820 C.3   231  LYS231      0.0271
    160  CG        49.8270   44.5080   33.3510 C.3   231  LYS231      0.0035
    161  CD        50.7560   45.0550   34.4050 C.3   231  LYS231      0.0206
    162  CE        51.6060   46.1700   33.8380 C.3   231  LYS231      0.1093
    163  NZ        52.6700   46.6110   34.7840 N.3   231  LYS231     -0.1314
    164  N         46.6850   39.9690   49.3730 N.3   291  GLU291     -0.1231
    165  CA        47.1510   41.3160   49.6150 C.3   291  GLU291      0.1699
    166  C         46.0530   42.3390   49.3710 C.2   291  GLU291      0.2592
    167  O         45.1420   42.4790   50.1780 O.2   291  GLU291     -0.2718
    168  CB        48.3980   41.6160   48.7920 C.3   291  GLU291      0.0402
    169  CG        48.2580   41.5650   47.3150 C.3   291  GLU291      0.1161
    170  CD        49.5530   41.9560   46.6510 C.2   291  GLU291      0.3649
    171  OE1       49.5040   42.5230   45.5440 O.co2 291  GLU291     -0.2457
    172  OE2       50.6260   41.6940   47.2380 O.co2 291  GLU291     -0.2457
    173  N         46.1350   43.0490   48.2570 N.am  292  GLY292     -0.1957
    174  CA        45.1300   44.0500   47.9350 C.3   292  GLY292      0.1869
    175  C         43.6940   43.8270   48.4130 C.2   292  GLY292      0.2309
    176  O         43.1070   42.7470   48.2710 O.2   292  GLY292     -0.2863
    177  N         53.6870   45.5420   56.8550 N.3   312  TYR312     -0.1241
    178  CA        54.9200   46.2810   56.6420 C.3   312  TYR312      0.1605
    179  C         54.5850   47.7380   56.9270 C.2   312  TYR312      0.2264
    180  O         53.7190   48.3230   56.2730 O.2   312  TYR312     -0.2867
    181  CB        55.4120   46.1510   55.1980 C.3   312  TYR312      0.0534
    182  CG        55.9590   44.7910   54.8280 C.ar  312  TYR312     -0.0201
    183  CD1       57.2290   44.3830   55.2370 C.ar  312  TYR312     -0.0009
    184  CD2       55.2170   43.9190   54.0330 C.ar  312  TYR312     -0.0009
    185  CE1       57.7400   43.1380   54.8550 C.ar  312  TYR312      0.0417
    186  CE2       55.7220   42.6830   53.6480 C.ar  312  TYR312      0.0417
    187  CZ        56.9770   42.2950   54.0580 C.ar  312  TYR312      0.1957
    188  OH        57.4560   41.0660   53.6550 O.3   312  TYR312     -0.2866
@<TRIPOS>BOND
     1   158   157    2
     2   156   155    1
     3   156   157    1
     4   156   159    1
     5   160   159    1
     6   160   161    1
     7   162   161    1
     8   162   163    1
     9   134   131    1
    10   134   135    1
    11   131   130    1
    12   131   132    1
    13   126   125    2
    14   150   149    1
    15   150   151    1
    16   133   132    2
    17   130   125   am
    18   125   124    1
    19   132   136   am
    20   149   148    1
    21   123   124    1
    22   123   129    1
    23   118   117    2
    24   151   152    2
    25   124   127    1
    26   117   116    1
    27   153   152    1
    28   148   145    1
    29   152   154    1
    30   129   128    1
    31   136   137    1
    32   145   146    1
    33   145   144    1
    34   147   146    2
    35   116   115    1
    36   116   119    1
    37   138   137    1
    38   138   139    2
    39   127   128    1
    40   137   140    1
    41   140   141    1
    42    37    36    1
    43    36    35    1
    44   141   142    1
    45   141   143    1
    46   111   110    2
    47   119   120    1
    48   110   109    1
    49    34    35    1
    50    34    33    1
    51   106   105    1
    52   121   120   ar
    53   120   122   ar
    54    95    94    2
    55    49    47   ar
    56    49    51   ar
    57    46    47   ar
    58    46    44   ar
    59   109   108    1
    60   109   112    1
    61    33    30    1
    62    47    45   ar
    63    94    96   am
    64    94    93    1
    65   114   112    1
    66    51    50   ar
    67   105   107    1
    68   105   104    2
    69   112   113    1
    70    44    43   ar
    71   103   104    1
    72   103   102    1
    73    93    92    1
    74   100    99    2
    75    30    29    1
    76    30    31    1
    77    82    80    1
    78   101   102    1
    79   101    98    1
    80    45    43   ar
    81    45    48   ar
    82    50    48   ar
    83    43    42    1
    84   171   170   ar
    85    29    25   am
    86    99    98    1
    87    79    80    2
    88    79    78    1
    89    31    32    2
    90    31    38   am
    91    80    81    1
    92    92    89    1
    93    98    97    1
    94    28    27    1
    95    38    39    1
    96    91    90    2
    97    23    24    1
    98    42    39    1
    99   170   172   ar
   100   170   169    1
   101    78    77    1
   102    25    26    2
   103    25    24    1
   104    89    90    1
   105    89    88    1
   106   169   168    1
   107    39    40    1
   108    24    27    1
   109    76    77    1
   110    76    73    1
   111    75    74    2
   112   174   173    1
   113   174   175    1
   114    74    73    1
   115    88    85   am
   116   173   166   am
   117   176   175    2
   118    73    72    1
   119    40    41    2
   120    40    52   am
   121   168   165    1
   122    86    85    2
   123    85    84    1
   124   166   165    1
   125   166   167    2
   126   164   165    1
   127     9     8    1
   128    63    62    2
   129    72    69   am
   130    52    53    1
   131    87    84    1
   132    84    83    1
   133    18    17    2
   134    69    70    2
   135    69    68    1
   136    62    61    1
   137     8     7    1
   138    57    59    1
   139    57    56    1
   140    53    54    1
   141    53    56    1
   142    65    64    1
   143    67    68    1
   144     7     6    1
   145    60    54   am
   146    60    61    1
   147    54    55    2
   148    17    16    1
   149    56    58    1
   150    22    20    1
   151    61    64    1
   152    68    71    1
   153    64    66    1
   154    14    11    1
   155    20    19    1
   156     6     5    1
   157    19    16    1
   158    19    21    1
   159     4     3    2
   160     5     2    1
   161    16    15    1
   162    10    11    1
   163    13    12    2
   164     3     2    1
   165    11    12    1
   166   186   184   ar
   167   186   187   ar
   168   188   187    1
   169     1     2    1
   170   184   182   ar
   171   187   185   ar
   172   182   181    1
   173   182   183   ar
   174   185   183   ar
   175   181   178    1
   176   180   179    2
   177   178   177    1
   178   178   179    1
