@<TRIPOS>MOLECULE
tmp/4g41B00.pdb
 142 134 0 0 0
SMALL
GASTEIGER

@<TRIPOS>ATOM
      1  N         30.5390   72.3460  -11.7370 N.3    13  ALA13      -0.1231
      2  CA        30.1180   71.0640  -11.1710 C.3    13  ALA13       0.1694
      3  C         30.5140   69.8700  -11.9920 C.2    13  ALA13       0.2591
      4  O         30.8280   68.7900  -11.4010 O.2    13  ALA13      -0.2718
      5  CB        28.5970   71.0180  -11.0090 C.3    13  ALA13       0.0304
      6  N         30.4520   70.0010  -13.3480 N.am   14  MET14      -0.1979
      7  CA        30.5430   68.8080  -14.2070 C.3    14  MET14       0.1605
      8  C         31.6340   69.0690  -15.2770 C.2    14  MET14       0.2287
      9  O         32.0160   70.2150  -15.6450 O.2    14  MET14      -0.2864
     10  CB        29.1940   68.6180  -14.8690 C.3    14  MET14       0.0413
     11  CG        28.1390   68.1120  -13.8730 C.3    14  MET14       0.0598
     12  SD        26.4960   68.0410  -14.5560 S.3    14  MET14      -0.1393
     13  CE        26.2270   69.7840  -14.8390 C.3    14  MET14       0.0692
     14  N         31.3470   71.5400  -18.0760 N.3    17  GLU17      -0.1245
     15  CA        31.3660   72.9680  -17.6950 C.3    17  GLU17       0.1567
     16  C         32.8360   73.4850  -17.4570 C.2    17  GLU17       0.2260
     17  O         33.0260   74.7030  -17.2510 O.2    17  GLU17      -0.2867
     18  CB        30.5020   73.1470  -16.4260 C.3    17  GLU17       0.0388
     19  CG        29.0410   72.8000  -16.7410 C.3    17  GLU17       0.1160
     20  CD        28.2470   72.5700  -15.4410 C.2    17  GLU17       0.3649
     21  OE1       28.8090   72.0520  -14.4800 O.co2  17  GLU17      -0.2457
     22  OE2       26.9980   72.8460  -15.3810 O.co2  17  GLU17      -0.2457
     23  N         28.3560   67.6590   -8.3280 N.3    55  VAL55      -0.1245
     24  CA        27.0930   68.4110   -8.2260 C.3    55  VAL55       0.1561
     25  C         26.6420   68.6290   -6.8060 C.2    55  VAL55       0.2260
     26  O         26.8550   67.7430   -5.9250 O.2    55  VAL55      -0.2867
     27  CB        26.0060   67.5560   -8.9470 C.3    55  VAL55       0.0252
     28  CG1       24.5850   68.0620   -8.6660 C.3    55  VAL55       0.0019
     29  CG2       26.2530   67.4900  -10.4420 C.3    55  VAL55       0.0019
     30  N         25.7910   75.2920  -16.2100 N.3    81  SER81      -0.1202
     31  CA        24.4380   75.2000  -16.7890 C.3    81  SER81       0.2020
     32  C         23.4120   75.5360  -15.7420 C.2    81  SER81       0.2619
     33  O         23.6310   75.3630  -14.5440 O.2    81  SER81      -0.2717
     34  CB        24.2010   73.7590  -17.3420 C.3    81  SER81       0.2103
     35  OG        24.2840   72.7780  -16.2870 O.3    81  SER81      -0.2182
     36  N         22.2110   75.8870  -16.2030 N.am   82  ALA82      -0.1965
     37  CA        21.1060   76.1190  -15.2890 C.3    82  ALA82       0.1728
     38  C         19.8120   75.9340  -16.0560 C.2    82  ALA82       0.2616
     39  O         19.7850   75.9080  -17.3090 O.2    82  ALA82      -0.2715
     40  CB        21.1660   77.5500  -14.6460 C.3    82  ALA82       0.0334
     41  N         18.7350   75.8780  -15.2870 N.am   83  GLY83      -0.1955
     42  CA        17.3670   75.8030  -15.8880 C.3    83  GLY83       0.1869
     43  C         16.7490   77.2000  -15.9190 C.2    83  GLY83       0.2309
     44  O         16.6690   77.8990  -14.8990 O.2    83  GLY83      -0.2863
     45  N         18.2220   70.0880   -5.7160 N.3   155  SER155     -0.1202
     46  CA        17.3120   69.3230   -6.6130 C.3   155  SER155      0.2020
     47  C         17.4760   69.8110   -8.0310 C.2   155  SER155      0.2619
     48  O         17.7340   71.0240   -8.2490 O.2   155  SER155     -0.2717
     49  CB        15.8610   69.6330   -6.2340 C.3   155  SER155      0.2103
     50  OG        15.5690   68.9530   -4.9860 O.3   155  SER155     -0.2182
     51  N         17.3120   68.8730   -8.9860 N.am  156  PHE156     -0.1961
     52  CA        17.2680   69.2320  -10.3790 C.3   156  PHE156      0.1771
     53  C         15.7990   69.5650  -10.6700 C.2   156  PHE156      0.2619
     54  O         14.8850   68.6940  -10.4730 O.2   156  PHE156     -0.2715
     55  CB        17.7280   68.0440  -11.2230 C.3   156  PHE156      0.0574
     56  CG        17.5860   68.2630  -12.7040 C.ar  156  PHE156     -0.0200
     57  CD1       18.4800   69.1590  -13.3840 C.ar  156  PHE156     -0.0042
     58  CD2       16.5590   67.6340  -13.4170 C.ar  156  PHE156     -0.0042
     59  CE1       18.3610   69.3860  -14.7540 C.ar  156  PHE156     -0.0003
     60  CE2       16.4700   67.8320  -14.8080 C.ar  156  PHE156     -0.0003
     61  CZ        17.3410   68.6850  -15.5230 C.ar  156  PHE156     -0.0000
     62  N         15.5170   70.7940  -11.0570 N.am  157  VAL157     -0.1977
     63  CA        14.1440   71.2950  -11.1690 C.3   157  VAL157      0.1596
     64  C         13.5760   70.8550  -12.5260 C.2   157  VAL157      0.2287
     65  O         14.1000   71.2060  -13.6110 O.2   157  VAL157     -0.2864
     66  CB        14.0770   72.8170  -11.0450 C.3   157  VAL157      0.0276
     67  CG1       12.6100   73.2820  -11.1220 C.3   157  VAL157      0.0022
     68  CG2       14.6680   73.2650   -9.7260 C.3   157  VAL157      0.0022
     69  N         17.5720   78.4630  -12.2480 N.3   176  VAL176     -0.1231
     70  CA        17.7830   77.6160  -11.0660 C.3   176  VAL176      0.1692
     71  C         18.9260   76.6400  -11.2880 C.2   176  VAL176      0.2592
     72  O         19.1290   76.1350  -12.4150 O.2   176  VAL176     -0.2718
     73  CB        16.4850   76.8100  -10.7280 C.3   176  VAL176      0.0266
     74  CG1       15.3990   77.7490  -10.2870 C.3   176  VAL176      0.0020
     75  CG2       15.9950   75.8960  -11.9070 C.3   176  VAL176      0.0020
     76  N         19.6350   76.3910  -10.2190 N.am  177  GLU177     -0.1966
     77  CA        20.7650   75.4340  -10.3090 C.3   177  GLU177      0.1733
     78  C         21.0710   74.8680   -8.9160 C.2   177  GLU177      0.2616
     79  O         20.2730   75.0340   -7.9820 O.2   177  GLU177     -0.2715
     80  CB        21.9950   76.0230  -11.0910 C.3   177  GLU177      0.0429
     81  CG        22.1740   77.5410  -10.8540 C.3   177  GLU177      0.1163
     82  CD        22.9790   77.8600   -9.5970 C.2   177  GLU177      0.3649
     83  OE1       22.7780   77.1970   -8.5360 O.co2 177  GLU177     -0.2457
     84  OE2       23.9020   78.7490   -9.6740 O.co2 177  GLU177     -0.2457
     85  N         22.1510   74.0870   -8.7980 N.am  178  MET178     -0.1963
     86  CA        22.4130   73.2710   -7.5910 C.3   178  MET178      0.1736
     87  C         23.6730   73.6580   -6.8360 C.2   178  MET178      0.2616
     88  O         23.9960   73.0130   -5.8580 O.2   178  MET178     -0.2715
     89  CB        22.3600   71.7880   -7.9070 C.3   178  MET178      0.0427
     90  CG        20.9750   71.3740   -8.4670 C.3   178  MET178      0.0599
     91  SD        20.9880   69.6630   -9.1230 S.3   178  MET178     -0.1393
     92  CE        21.2150   68.7450   -7.6340 C.3   178  MET178      0.0692
     93  N         24.3480   74.6950   -7.2940 N.am  179  GLU179     -0.1977
     94  CA        25.6090   75.1010   -6.5930 C.3   179  GLU179      0.1602
     95  C         25.7290   76.6150   -6.3050 C.2   179  GLU179      0.2287
     96  O         26.5450   76.9420   -5.3880 O.2   179  GLU179     -0.2864
     97  CB        26.9140   74.7180   -7.3040 C.3   179  GLU179      0.0415
     98  CG        27.0040   73.2060   -7.6130 C.3   179  GLU179      0.1163
     99  CD        26.1310   72.7130   -8.8040 C.2   179  GLU179      0.3649
    100  OE1       25.9770   73.5000   -9.7820 O.co2 179  GLU179     -0.2457
    101  OE2       25.8450   71.5020   -8.8380 O.co2 179  GLU179     -0.2457
    102  N         25.8610   81.5530  -15.4850 N.3   198  ARG198     -0.1245
    103  CA        25.2650   80.2960  -15.9910 C.3   198  ARG198      0.1563
    104  C         24.7540   80.4820  -17.4150 C.2   198  ARG198      0.2260
    105  O         24.3710   81.5970  -17.7630 O.2   198  ARG198     -0.2867
    106  CB        24.0310   79.8950  -15.1160 C.3   198  ARG198      0.0307
    107  CG        24.4300   79.5790  -13.6250 C.3   198  ARG198      0.0489
    108  CD        25.1610   78.2250  -13.4960 C.3   198  ARG198      0.2205
    109  NE        25.3900   77.8410  -12.0920 N.pl3 198  ARG198     -0.0865
    110  CZ        25.6320   76.5820  -11.7320 C.cat 198  ARG198      0.5346
    111  NH1       25.5640   75.6200  -12.6290 N.pl3 198  ARG198      0.1354
    112  NH2       25.8940   76.3180  -10.4590 N.pl3 198  ARG198      0.1354
    113  N         20.5710   75.3690  -19.9780 N.3   201  SER201     -0.1202
    114  CA        20.5710   74.0630  -20.6630 C.3   201  SER201      0.2020
    115  C         19.1540   73.6070  -20.8920 C.2   201  SER201      0.2618
    116  O         18.9880   72.6330  -21.6840 O.2   201  SER201     -0.2717
    117  CB        21.3090   73.0070  -19.8160 C.3   201  SER201      0.2103
    118  OG        20.8430   73.0350  -18.4880 O.3   201  SER201     -0.2182
    119  N         18.1710   74.1870  -20.2270 N.am  202  ASP202     -0.1973
    120  CA        16.7770   73.6530  -20.2870 C.3   202  ASP202      0.1709
    121  C         15.8710   74.7260  -19.7000 C.2   202  ASP202      0.2293
    122  O         16.3680   75.8280  -19.2880 O.2   202  ASP202     -0.2864
    123  CB        16.6450   72.2670  -19.5810 C.3   202  ASP202      0.1436
    124  CG        17.1070   72.3510  -18.1430 C.2   202  ASP202      0.3671
    125  OD1       16.3370   72.8420  -17.2870 O.co2 202  ASP202     -0.2456
    126  OD2       18.2930   71.9930  -17.9510 O.co2 202  ASP202     -0.2456
    127  N         13.5620   73.6780  -17.2370 N.3   204  ALA204     -0.1245
    128  CA        13.1350   73.0670  -15.9360 C.3   204  ALA204      0.1562
    129  C         11.7470   72.4990  -16.0860 C.2   204  ALA204      0.2260
    130  O         11.0340   72.4500  -15.1070 O.2   204  ALA204     -0.2867
    131  CB        13.1300   74.1830  -14.8140 C.3   204  ALA204      0.0290
    132  N         18.2990   68.8850  -20.9130 N.3   212  PHE212     -0.1241
    133  CA        19.6440   69.0640  -20.3450 C.3   212  PHE212      0.1605
    134  C         20.6270   68.1590  -21.0470 C.2   212  PHE212      0.2264
    135  O         21.7430   68.6090  -21.4450 O.2   212  PHE212     -0.2867
    136  CB        19.5360   68.7030  -18.8500 C.3   212  PHE212      0.0534
    137  CG        20.9030   68.5980  -18.1660 C.ar  212  PHE212     -0.0203
    138  CD1       21.4200   69.6730  -17.4030 C.ar  212  PHE212     -0.0042
    139  CD2       21.6220   67.4160  -18.2730 C.ar  212  PHE212     -0.0042
    140  CE1       22.6700   69.5200  -16.7570 C.ar  212  PHE212     -0.0003
    141  CE2       22.8800   67.2320  -17.6800 C.ar  212  PHE212     -0.0003
    142  CZ        23.4020   68.3190  -16.9110 C.ar  212  PHE212     -0.0000
@<TRIPOS>BOND
     1   116   115    2
     2   135   134    2
     3   134   133    1
     4   132   133    1
     5   115   114    1
     6   115   119   am
     7   114   113    1
     8   114   117    1
     9   133   136    1
    10   120   119    1
    11   120   121    1
    12   120   123    1
    13   117   118    1
    14   121   122    2
    15   123   124    1
    16   136   137    1
    17   139   137   ar
    18   139   141   ar
    19   137   138   ar
    20   124   126   ar
    21   124   125   ar
    22    14    15    1
    23   105   104    2
    24    15    16    1
    25    15    18    1
    26   141   142   ar
    27    16    17    2
    28   104   103    1
    29   138   140   ar
    30    34    31    1
    31    34    35    1
    32    39    38    2
    33   127   128    1
    34   142   140   ar
    35    31    30    1
    36    31    32    1
    37    19    18    1
    38    19    20    1
    39    36    32   am
    40    36    37    1
    41   129   128    1
    42   129   130    2
    43    38    37    1
    44    38    41   am
    45   103   102    1
    46   103   106    1
    47   128   131    1
    48    43    42    1
    49    43    44    2
    50    42    41    1
    51    32    33    2
    52     9     8    2
    53    61    60   ar
    54    61    59   ar
    55    20    22   ar
    56    20    21   ar
    57    37    40    1
    58     8     7    1
    59   106   107    1
    60    10     7    1
    61    10    11    1
    62    13    12    1
    63    60    58   ar
    64    59    57   ar
    65    12    11    1
    66     7     6    1
    67   107   108    1
    68    65    64    2
    69   108   109    1
    70    58    56   ar
    71    57    56   ar
    72     6     3   am
    73    56    55    1
    74   111   110    1
    75    64    63    1
    76    72    71    2
    77    69    70    1
    78   109   110    2
    79     3     4    2
    80     3     2    1
    81    75    73    1
    82     1     2    1
    83   110   112    1
    84    71    70    1
    85    71    76   am
    86    55    52    1
    87     2     5    1
    88    63    62    1
    89    63    66    1
    90    67    66    1
    91    80    81    1
    92    80    77    1
    93    70    73    1
    94    62    53   am
    95    66    68    1
    96    81    82    1
    97    73    74    1
    98    53    54    2
    99    53    52    1
   100    29    27    1
   101    52    51    1
   102    77    76    1
   103    77    78    1
   104   100    99   ar
   105    84    82   ar
   106    82    83   ar
   107    91    90    1
   108    91    92    1
   109    51    47   am
   110    27    28    1
   111    27    24    1
   112    78    85   am
   113    78    79    2
   114   101    99   ar
   115    99    98    1
   116    85    86    1
   117    90    89    1
   118    23    24    1
   119    48    47    2
   120    24    25    1
   121    47    46    1
   122    89    86    1
   123    98    97    1
   124    86    87    1
   125    97    94    1
   126    93    87   am
   127    93    94    1
   128    87    88    2
   129    25    26    2
   130    46    49    1
   131    46    45    1
   132    94    95    1
   133    95    96    2
   134    49    50    1
