@<TRIPOS>MOLECULE
tmp/4g44A01.pdb
 134 127 0 0 0
SMALL
GASTEIGER

@<TRIPOS>ATOM
      1  N          1.1840   17.6970   -3.6020 N.3    61  MET61      -0.1245
      2  CA        -0.0170   17.2760   -2.8960 C.3    61  MET61       0.1570
      3  C         -0.9370   16.6290   -3.8870 C.2    61  MET61       0.2261
      4  O         -1.4980   15.5330   -3.6090 O.2    61  MET61      -0.2867
      5  CB        -0.7410   18.5270   -2.2890 C.3    61  MET61       0.0387
      6  CG        -2.3520   18.1780   -1.7960 C.3    61  MET61       0.0595
      7  SD        -3.0600   19.6740   -1.1670 S.3    61  MET61      -0.1393
      8  CE        -2.1490   19.9240    0.3110 C.3    61  MET61       0.0692
      9  N        -10.7350   16.3350   -5.6720 N.3    81  VAL81      -0.1231
     10  CA       -10.9010   17.2490   -4.5490 C.3    81  VAL81       0.1692
     11  C         -9.6600   17.3840   -3.7090 C.2    81  VAL81       0.2591
     12  O         -9.4100   18.3150   -2.9900 O.2    81  VAL81      -0.2718
     13  CB       -12.2170   16.8580   -3.7530 C.3    81  VAL81       0.0266
     14  CG1      -12.3410   17.7070   -2.4670 C.3    81  VAL81       0.0020
     15  CG2      -13.4180   17.0240   -4.6270 C.3    81  VAL81       0.0020
     16  N         -8.6900   16.4170   -3.8910 N.am   82  VAL82      -0.1980
     17  CA        -7.4800   16.5510   -3.1800 C.3    82  VAL82       0.1595
     18  C         -6.7990   17.8590   -3.7060 C.2    82  VAL82       0.2287
     19  O         -6.0850   18.4530   -2.9340 O.2    82  VAL82      -0.2864
     20  CB        -6.5440   15.2800   -3.4500 C.3    82  VAL82       0.0276
     21  CG1       -5.1080   15.4790   -2.9410 C.3    82  VAL82       0.0022
     22  CG2       -7.2770   14.0600   -2.7140 C.3    82  VAL82       0.0022
     23  N         -8.1260   20.6750   -4.2060 N.3    84  ASN84      -0.1225
     24  CA        -9.2280   21.6420   -4.0500 C.3    84  ASN84       0.1785
     25  C         -8.7310   23.0790   -4.2470 C.2    84  ASN84       0.2597
     26  O         -9.3450   23.8350   -5.0140 O.2    84  ASN84      -0.2718
     27  CB        -9.8020   21.4100   -2.6500 C.3    84  ASN84       0.1169
     28  CG       -11.1290   22.1300   -2.3900 C.2    84  ASN84       0.2627
     29  OD1      -11.9720   22.1890   -3.2410 O.2    84  ASN84      -0.2716
     30  ND2      -11.3040   22.5830   -1.1840 N.am   84  ASN84      -0.0877
     31  N         -7.7120   23.5210   -3.5010 N.am   85  MET85      -0.1979
     32  CA        -7.3160   24.9180   -3.6590 C.3    85  MET85       0.1605
     33  C         -6.7980   25.1790   -5.0080 C.2    85  MET85       0.2287
     34  O         -7.0320   26.3150   -5.5490 O.2    85  MET85      -0.2864
     35  CB        -6.2110   25.2860   -2.6540 C.3    85  MET85       0.0413
     36  CG        -6.7600   25.7770   -1.3190 C.3    85  MET85       0.0598
     37  SD        -7.7690   27.2800   -1.3030 S.3    85  MET85      -0.1393
     38  CE        -6.5870   28.5650   -1.1300 C.3    85  MET85       0.0692
     39  N        -13.1930   12.8910    8.4120 N.3   167  PHE167     -0.1241
     40  CA       -11.7900   13.1160    8.7380 C.3   167  PHE167      0.1605
     41  C        -11.1150   11.8670    9.3390 C.2   167  PHE167      0.2264
     42  O        -10.0500   11.9760    9.9350 O.2   167  PHE167     -0.2867
     43  CB       -11.5850   14.3890    9.5960 C.3   167  PHE167      0.0534
     44  CG       -11.7810   15.6100    8.7100 C.ar  167  PHE167     -0.0203
     45  CD1      -12.9910   16.1590    8.5650 C.ar  167  PHE167     -0.0042
     46  CD2      -10.6930   16.1210    7.9980 C.ar  167  PHE167     -0.0042
     47  CE1      -13.1750   17.2810    7.6330 C.ar  167  PHE167     -0.0003
     48  CE2      -10.8640   17.2580    7.0880 C.ar  167  PHE167     -0.0003
     49  CZ       -12.1250   17.7350    6.9770 C.ar  167  PHE167     -0.0000
     50  N        -16.0380   21.5130    1.7640 N.3   228  THR228     -0.1203
     51  CA       -14.6600   21.3260    2.1880 C.3   228  THR228      0.1993
     52  C        -14.2150   22.4070    3.1420 C.2   228  THR228      0.2614
     53  O        -13.4420   22.1380    4.0870 O.2   228  THR228     -0.2717
     54  CB       -13.7230   21.3020    0.9580 C.3   228  THR228      0.1784
     55  OG1      -13.8690   22.4870    0.1780 O.3   228  THR228     -0.2211
     56  CG2      -13.9690   20.0710    0.1140 C.3   228  THR228      0.0376
     57  N        -14.6310   23.6700    2.9190 N.am  229  PHE229     -0.2029
     58  CA       -14.2500   24.7190    3.8490 C.3   229  PHE229      0.1325
     59  C        -14.9950   24.5720    5.1540 C.3   229  PHE229      0.2039
     60  O        -14.3210   24.8050    6.2260 O.3   229  PHE229     -0.2185
     61  CB       -14.4150   26.1530    3.2410 C.3   229  PHE229      0.0507
     62  CG       -13.2340   26.5270    2.3520 C.ar  229  PHE229     -0.0204
     63  CD1      -12.8370   25.7270    1.2720 C.ar  229  PHE229     -0.0042
     64  CD2      -12.4420   27.5790    2.6360 C.ar  229  PHE229     -0.0042
     65  CE1      -11.7430   26.0720    0.4840 C.ar  229  PHE229     -0.0003
     66  CE2      -11.3490   27.9260    1.8150 C.ar  229  PHE229     -0.0003
     67  CZ       -11.0290   27.1270    0.7540 C.ar  229  PHE229     -0.0000
     68  N        -13.1050   21.2620    6.8160 N.3   232  ALA232     -0.1231
     69  CA       -11.7210   21.4500    7.1980 C.3   232  ALA232      0.1694
     70  C        -11.5910   22.5520    8.2300 C.2   232  ALA232      0.2592
     71  O        -10.8000   22.4600    9.1840 O.2   232  ALA232     -0.2718
     72  CB       -10.8630   21.7570    5.9370 C.3   232  ALA232      0.0304
     73  N        -12.3670   23.6290    8.1200 N.am  233  GLY233     -0.1957
     74  CA       -12.2580   24.6760    9.0510 C.3   233  GLY233      0.1869
     75  C        -12.8090   24.2420   10.4540 C.2   233  GLY233      0.2309
     76  O        -12.1360   24.5530   11.4800 O.2   233  GLY233     -0.2863
     77  N        -10.4920   21.6470   12.0480 N.3   236  SER236     -0.1217
     78  CA        -9.1860   22.1330   12.3780 C.3   236  SER236      0.1889
     79  C         -9.2160   23.0800   13.5840 C.2   236  SER236      0.2288
     80  O         -8.4130   22.9670   14.5150 O.2   236  SER236     -0.2866
     81  CB        -8.5230   22.8380   11.2400 C.3   236  SER236      0.2089
     82  OG        -8.3370   21.9370   10.1240 O.3   236  SER236     -0.2183
     83  N         -2.4850   17.4900   14.5400 N.3   279  PHE279     -0.1241
     84  CA        -2.3910   16.6700   13.2840 C.3   279  PHE279      0.1605
     85  C         -1.8830   15.3130   13.6060 C.2   279  PHE279      0.2264
     86  O         -0.7760   15.1440   14.1030 O.2   279  PHE279     -0.2867
     87  CB        -1.4920   17.3780   12.2420 C.3   279  PHE279      0.0534
     88  CG        -2.2490   18.3620   11.4360 C.ar  279  PHE279     -0.0203
     89  CD1       -2.7390   19.5040   12.0350 C.ar  279  PHE279     -0.0042
     90  CD2       -2.5570   18.1490   10.1090 C.ar  279  PHE279     -0.0042
     91  CE1       -3.5450   20.4310   11.2450 C.ar  279  PHE279     -0.0003
     92  CE2       -3.3280   19.0650    9.3660 C.ar  279  PHE279     -0.0003
     93  CZ        -3.7710   20.1610    9.9620 C.ar  279  PHE279     -0.0000
     94  N          1.9520   15.4670    6.9070 N.3   283  LEU283     -0.1245
     95  CA         1.3510   15.9350    5.6870 C.3   283  LEU283      0.1561
     96  C          1.9120   15.1490    4.5090 C.2   283  LEU283      0.2260
     97  O          3.1250   15.0920    4.3370 O.2   283  LEU283     -0.2867
     98  CB         1.6570   17.4270    5.4200 C.3   283  LEU283      0.0270
     99  CG         1.2310   18.3830    6.5910 C.3   283  LEU283      0.0019
    100  CD1        1.6200   19.7890    6.1890 C.3   283  LEU283      0.0001
    101  CD2       -0.2600   18.2180    6.9590 C.3   283  LEU283      0.0001
    102  N         -2.0390   27.2340    4.8980 N.3   344  CYS344     -0.1221
    103  CA        -3.4590   27.2960    5.2610 C.3   344  CYS344      0.1794
    104  C         -4.0640   28.6900    4.9460 C.2   344  CYS344      0.2443
    105  O         -3.6360   29.6830    5.5240 O.2   344  CYS344     -0.2733
    106  CB        -3.6080   27.0420    6.7590 C.3   344  CYS344      0.0970
    107  SG        -5.3580   27.0710    7.2510 S.3   344  CYS344     -0.0800
    108  N         -5.0960   28.7750    4.1550 N.am  345  PRO345     -0.2729
    109  CA        -5.7460   30.0830    3.8850 C.3   345  PRO345      0.1401
    110  C         -6.6600   30.4490    5.0070 C.2   345  PRO345      0.2269
    111  O         -7.1050   31.6480    5.0750 O.2   345  PRO345     -0.2865
    112  CB        -6.5860   29.8140    2.5950 C.3   345  PRO345      0.0296
    113  CG        -6.9390   28.4070    2.7350 C.3   345  PRO345      0.0237
    114  CD        -5.6690   27.7030    3.3190 C.3   345  PRO345      0.0939
    115  N         -7.7110   11.9080   11.3890 N.3   384  GLN384     -0.1231
    116  CA        -6.7060   12.8750   10.8690 C.3   384  GLN384      0.1698
    117  C         -6.3040   13.8950   11.9270 C.2   384  GLN384      0.2588
    118  O         -5.3450   14.6780   11.6770 O.2   384  GLN384     -0.2718
    119  CB        -7.2220   13.5780    9.5910 C.3   384  GLN384      0.0381
    120  CG        -7.3730   12.5760    8.4230 C.3   384  GLN384      0.0905
    121  CD        -8.0440   13.1820    7.2370 C.2   384  GLN384      0.2608
    122  OE1       -8.9260   12.5170    6.5420 O.2   384  GLN384     -0.2717
    123  NE2       -7.8010   14.4260    6.9010 N.am  384  GLN384     -0.0878
    124  N         -7.0220   13.9780   13.0200 N.am  385  ARG385     -0.2033
    125  CA        -6.6520   14.8050   14.1610 C.3   385  ARG385      0.1283
    126  C         -6.4910   13.9760   15.3840 C.3   385  ARG385      0.2036
    127  O         -7.1220   12.8550   15.4970 O.3   385  ARG385     -0.2185
    128  CB        -7.6870   15.9230   14.4010 C.3   385  ARG385      0.0281
    129  CG        -7.8270   16.9380   13.2540 C.3   385  ARG385      0.0488
    130  CD        -6.5330   17.7280   12.9870 C.3   385  ARG385      0.2205
    131  NE        -6.7480   18.7340   11.9190 N.pl3 385  ARG385     -0.0865
    132  CZ        -6.7670   18.4280   10.6590 C.cat 385  ARG385      0.5346
    133  NH1       -7.0530   19.3470    9.7430 N.pl3 385  ARG385      0.1354
    134  NH2       -6.4290   17.1850   10.2420 N.pl3 385  ARG385      0.1354
@<TRIPOS>BOND
     1     9    10    1
     2    34    33    2
     3    26    25    2
     4    33    32    1
     5    15    13    1
     6    10    13    1
     7    10    11    1
     8    25    24    1
     9    25    31   am
    10    23    24    1
    11    24    27    1
    12    16    11   am
    13    16    17    1
    14     3     4    2
    15     3     2    1
    16    13    14    1
    17    11    12    2
    18    18    17    1
    19    18    19    2
    20    32    31    1
    21    32    35    1
    22     1     2    1
    23    20    17    1
    24    20    21    1
    25    20    22    1
    26    29    28    2
    27     2     5    1
    28    35    36    1
    29    27    28    1
    30    28    30   am
    31     5     6    1
    32     6     7    1
    33    36    37    1
    34    37    38    1
    35     7     8    1
    36    56    54    1
    37    55    54    1
    38    65    67   ar
    39    65    63   ar
    40    67    66   ar
    41    54    51    1
    42    63    62   ar
    43    50    51    1
    44    66    64   ar
    45    51    52    1
    46    62    64   ar
    47    62    61    1
    48   112   113    1
    49   112   109    1
    50   113   114    1
    51    57    52   am
    52    57    58    1
    53    52    53    2
    54    61    58    1
    55   114   108    1
    56    58    59    1
    57   109   108    1
    58   109   110    1
    59   108   104   am
    60    97    96    2
    61    96    95    1
    62   102   103    1
    63   104   103    1
    64   104   105    2
    65   110   111    2
    66    59    60    1
    67   103   106    1
    68    98    95    1
    69    98    99    1
    70    95    94    1
    71    72    69    1
    72   100    99    1
    73   122   121    2
    74    99   101    1
    75   106   107    1
    76    68    69    1
    77   123   121   am
    78    49    48   ar
    79    49    47   ar
    80    48    46   ar
    81    69    70    1
    82   121   120    1
    83    47    45   ar
    84    46    44   ar
    85    73    70   am
    86    73    74    1
    87    70    71    2
    88    39    40    1
    89   120   119    1
    90    45    44   ar
    91    44    43    1
    92    40    41    1
    93    40    43    1
    94    74    75    1
    95    41    42    2
    96    92    93   ar
    97    92    90   ar
    98   119   116    1
    99   133   132    1
   100    93    91   ar
   101    90    88   ar
   102    82    81    1
   103   134   132    1
   104    75    76    2
   105   132   131    2
   106   116   115    1
   107   116   117    1
   108    81    78    1
   109    91    89   ar
   110    88    89   ar
   111    88    87    1
   112   118   117    2
   113   131   130    1
   114   117   124   am
   115    77    78    1
   116    87    84    1
   117    78    79    1
   118   130   129    1
   119   124   125    1
   120   129   128    1
   121    84    85    1
   122    84    83    1
   123    79    80    2
   124    85    86    2
   125   125   128    1
   126   125   126    1
   127   126   127    1
