@<TRIPOS>MOLECULE
tmp/4g44A02.pdb
 94 96 0 0 0
SMALL
GASTEIGER

@<TRIPOS>ATOM
      1  N         -8.6960    7.7350    0.5040 N.3    75  LEU75      -0.1231
      2  CA        -9.4150    9.0050    0.2450 C.3    75  LEU75       0.1693
      3  C        -10.7850    8.9650    0.8540 C.2    75  LEU75       0.2593
      4  O        -11.5240    7.9890    0.7370 O.2    75  LEU75      -0.2718
      5  CB        -9.5710    9.1700   -1.2910 C.3    75  LEU75       0.0284
      6  CG        -8.2740    9.4120   -2.0550 C.3    75  LEU75       0.0019
      7  CD1       -8.5990    9.4450   -3.5460 C.3    75  LEU75       0.0001
      8  CD2       -7.7590   10.7430   -1.6260 C.3    75  LEU75       0.0001
      9  N        -11.2350   10.0860    1.4480 N.am   76  THR76      -0.1939
     10  CA       -12.5660   10.2580    1.9210 C.3    76  THR76       0.2028
     11  C        -13.3340   11.2760    1.0700 C.2    76  THR76       0.2642
     12  O        -14.4730   11.6200    1.4220 O.2    76  THR76      -0.2714
     13  CB       -12.7100   10.6700    3.4050 C.3    76  THR76       0.1808
     14  OG1      -12.1060   11.9010    3.5610 O.3    76  THR76      -0.2208
     15  CG2      -11.9060    9.7250    4.2910 C.3    76  THR76       0.0379
     16  N        -12.7000   11.7770    0.0140 N.am   77  VAL77      -0.1963
     17  CA       -13.3130   12.7360   -0.9110 C.3    77  VAL77       0.1712
     18  C        -13.0330   12.1860   -2.2810 C.2    77  VAL77       0.2458
     19  O        -12.1210   11.3650   -2.5400 O.2    77  VAL77      -0.2730
     20  CB       -12.6790   14.1190   -0.7620 C.3    77  VAL77       0.0289
     21  CG1      -12.9770   14.6830    0.6470 C.3    77  VAL77       0.0023
     22  CG2      -11.2070   14.1200   -0.9840 C.3    77  VAL77       0.0023
     23  N        -13.6910   12.7290   -3.3430 N.am   78  PRO78      -0.2716
     24  CA       -13.3120   12.3460   -4.7170 C.3    78  PRO78       0.1521
     25  C        -11.8920   12.7660   -5.0130 C.2    78  PRO78       0.2440
     26  O        -11.4370   13.7240   -4.4970 O.2    78  PRO78      -0.2731
     27  CB       -14.3390   13.1380   -5.6050 C.3    78  PRO78       0.0310
     28  CG       -15.4710   13.4150   -4.6790 C.3    78  PRO78       0.0237
     29  CD       -14.9110   13.5800   -3.2850 C.3    78  PRO78       0.0939
     30  N        -11.1670   11.9820   -5.8930 N.am   79  PRO79      -0.2727
     31  CA        -9.7220   12.2890   -6.0440 C.3    79  PRO79       0.1402
     32  C         -9.3350   13.7280   -6.5750 C.2    79  PRO79       0.2269
     33  O         -8.3780   14.2920   -6.1860 O.2    79  PRO79      -0.2865
     34  CB        -9.1900   11.1770   -7.0310 C.3    79  PRO79       0.0296
     35  CG       -10.1480   10.0480   -6.8520 C.3    79  PRO79       0.0237
     36  CD       -11.5030   10.6560   -6.4760 C.3    79  PRO79       0.0939
     37  N        -11.3430    2.4560    2.0130 N.3   173  PRO173     -0.2102
     38  CA       -12.4840    3.3740    1.7730 C.3   173  PRO173      0.1504
     39  C        -13.5680    3.1970    2.7530 C.2   173  PRO173      0.2576
     40  O        -13.8280    2.0930    3.2630 O.2   173  PRO173     -0.2718
     41  CB       -12.9140    3.0340    0.3410 C.3   173  PRO173      0.0282
     42  CG       -11.6890    2.4100   -0.3360 C.3   173  PRO173      0.0208
     43  CD       -10.9790    1.6530    0.7970 C.3   173  PRO173      0.0893
     44  N        -14.2560    4.2910    3.0410 N.am  174  ILE174     -0.1967
     45  CA       -15.2580    4.3460    4.1040 C.3   174  ILE174      0.1712
     46  C        -16.6090    4.5930    3.4840 C.2   174  ILE174      0.2458
     47  O        -16.9200    5.7200    3.0290 O.2   174  ILE174     -0.2730
     48  CB       -14.9220    5.4770    5.1220 C.3   174  ILE174      0.0289
     49  CG1      -13.5020    5.3800    5.5910 C.3   174  ILE174      0.0022
     50  CG2      -15.9070    5.4090    6.2740 C.3   174  ILE174      0.0023
     51  CD1      -13.0520    6.5540    6.4010 C.3   174  ILE174      0.0001
     52  N        -17.5410    3.6110    3.4790 N.am  175  PRO175     -0.2727
     53  CA       -18.7990    3.7860    2.7770 C.3   175  PRO175      0.1402
     54  C        -19.5790    4.9910    3.3070 C.2   175  PRO175      0.2269
     55  O        -20.1740    5.7980    2.5220 O.2   175  PRO175     -0.2865
     56  CB       -19.5410    2.4460    3.0210 C.3   175  PRO175      0.0296
     57  CG       -18.3830    1.4430    3.0530 C.3   175  PRO175      0.0237
     58  CD       -17.2940    2.1910    3.8130 C.3   175  PRO175      0.0939
     59  N        -18.4510    7.7510    4.4400 N.3   177  ALA177     -0.1231
     60  CA       -17.8800    9.0490    3.9910 C.3   177  ALA177      0.1694
     61  C        -18.5230    9.4450    2.6590 C.2   177  ALA177      0.2591
     62  O        -18.8250   10.6650    2.4680 O.2   177  ALA177     -0.2718
     63  CB       -16.4050    8.9780    3.8640 C.3   177  ALA177      0.0304
     64  N        -18.7640    8.5070    1.7440 N.am  178  LYS178     -0.1980
     65  CA       -19.4570    8.8730    0.5040 C.3   178  LYS178      0.1596
     66  C        -20.8900    9.2270    0.7450 C.2   178  LYS178      0.2287
     67  O        -21.4150   10.2090    0.1410 O.2   178  LYS178     -0.2864
     68  CB       -19.3320    7.7050   -0.4950 C.3   178  LYS178      0.0298
     69  CG       -20.1750    8.0120   -1.7360 C.3   178  LYS178      0.0038
     70  CD       -19.7990    7.0290   -2.8910 C.3   178  LYS178      0.0206
     71  CE       -20.9000    7.1420   -4.0040 C.3   178  LYS178      0.1093
     72  NZ       -21.0800    8.4600   -4.6820 N.3   178  LYS178     -0.1314
     73  N        -20.8220   12.7480    2.2160 N.3   181  TRP181     -0.1227
     74  CA       -20.2860   13.7050    1.1920 C.3   181  TRP181      0.1737
     75  C        -21.4130   13.9990    0.2310 C.2   181  TRP181      0.2595
     76  O        -21.6820   15.2260   -0.0710 O.2   181  TRP181     -0.2718
     77  CB       -19.1020   13.0690    0.4860 C.3   181  TRP181      0.0564
     78  CG       -18.6020   13.9070   -0.6920 C.ar  181  TRP181      0.0003
     79  CD1      -19.0010   13.7850   -2.0120 C.ar  181  TRP181      0.0946
     80  CD2      -17.7280   14.9950   -0.6130 C.ar  181  TRP181      0.0152
     81  NE1      -18.3290   14.7570   -2.7490 N.ar  181  TRP181     -0.2442
     82  CE2      -17.5750   15.5300   -1.9390 C.ar  181  TRP181      0.0810
     83  CE3      -17.0120   15.5830    0.4090 C.ar  181  TRP181      0.0012
     84  CZ2      -16.7230   16.5940   -2.2290 C.ar  181  TRP181      0.0191
     85  CZ3      -16.1600   16.6830    0.1270 C.ar  181  TRP181      0.0001
     86  CH2      -16.0880   17.1850   -1.1900 C.ar  181  TRP181      0.0015
     87  N        -22.0580   13.0170   -0.3300 N.am  182  ASP182     -0.1974
     88  CA       -23.0950   13.3140   -1.3530 C.3   182  ASP182      0.1709
     89  C        -24.2520   14.0610   -0.7310 C.2   182  ASP182      0.2293
     90  O        -24.7980   14.9980   -1.3900 O.2   182  ASP182     -0.2864
     91  CB       -23.5520   11.9690   -1.9410 C.3   182  ASP182      0.1436
     92  CG       -22.5210   11.3570   -2.8560 C.2   182  ASP182      0.3671
     93  OD1      -21.6680   11.9410   -3.3550 O.co2 182  ASP182     -0.2456
     94  OD2      -22.7270   10.0720   -3.0840 O.co2 182  ASP182     -0.2456
@<TRIPOS>BOND
     1    34    35    1
     2    34    31    1
     3    35    36    1
     4    32    33    2
     5    32    31    1
     6    36    30    1
     7    31    30    1
     8    30    25   am
     9    27    24    1
    10    27    28    1
    11    25    24    1
    12    25    26    2
    13    24    23    1
    14    72    71    1
    15    28    29    1
    16    71    70    1
    17     7     6    1
    18    93    92   ar
    19    23    29    1
    20    23    18   am
    21    94    92   ar
    22    70    69    1
    23    92    91    1
    24    81    79   ar
    25    81    82   ar
    26    19    18    2
    27    18    17    1
    28    84    82   ar
    29    84    86   ar
    30     6     8    1
    31     6     5    1
    32    79    78   ar
    33    91    88    1
    34    82    80   ar
    35    69    68    1
    36    90    89    2
    37    88    89    1
    38    88    87    1
    39     5     2    1
    40    86    85   ar
    41    22    20    1
    42    17    20    1
    43    17    16    1
    44    20    21    1
    45    78    80   ar
    46    78    77    1
    47    80    83   ar
    48    68    65    1
    49    42    41    1
    50    42    43    1
    51    87    75   am
    52    76    75    2
    53    16    11   am
    54    85    83   ar
    55    67    66    2
    56    75    74    1
    57     2     1    1
    58     2     3    1
    59    41    38    1
    60    77    74    1
    61    65    66    1
    62    65    64    1
    63     4     3    2
    64    43    37    1
    65     3     9   am
    66    11    12    2
    67    11    10    1
    68    74    73    1
    69     9    10    1
    70    64    61   am
    71    38    37    1
    72    38    39    1
    73    10    13    1
    74    62    61    2
    75    55    54    2
    76    61    60    1
    77    39    44   am
    78    39    40    2
    79    53    56    1
    80    53    54    1
    81    53    52    1
    82    56    57    1
    83    47    46    2
    84    44    45    1
    85    57    58    1
    86    13    14    1
    87    13    15    1
    88    52    46   am
    89    52    58    1
    90    46    45    1
    91    63    60    1
    92    60    59    1
    93    45    48    1
    94    48    49    1
    95    48    50    1
    96    49    51    1
