@<TRIPOS>MOLECULE
tmp/4g45A01.pdb
 130 123 0 0 0
SMALL
GASTEIGER

@<TRIPOS>ATOM
      1  N          1.1320   17.7500   -3.5520 N.3    61  MET61      -0.1245
      2  CA        -0.0960   17.3840   -2.8090 C.3    61  MET61       0.1570
      3  C         -1.0120   16.6740   -3.7860 C.2    61  MET61       0.2261
      4  O         -1.5670   15.5860   -3.4580 O.2    61  MET61      -0.2867
      5  CB        -0.7770   18.6280   -2.1400 C.3    61  MET61       0.0387
      6  CG        -2.2250   18.2750   -1.6170 C.3    61  MET61       0.0595
      7  SD        -3.0170   19.8260   -1.0620 S.3    61  MET61      -0.1393
      8  CE        -2.1580   20.0800    0.4390 C.3    61  MET61       0.0692
      9  N        -10.8160   16.4940   -5.6640 N.3    81  VAL81      -0.1231
     10  CA       -11.0160   17.3080   -4.4610 C.3    81  VAL81       0.1692
     11  C         -9.7670   17.5280   -3.5160 C.2    81  VAL81       0.2588
     12  O         -9.6320   18.4840   -2.7120 O.2    81  VAL81      -0.2718
     13  CB       -12.3460   16.8310   -3.6930 C.3    81  VAL81       0.0266
     14  CG1      -12.5850   17.5770   -2.3830 C.3    81  VAL81       0.0020
     15  CG2      -13.5890   16.9030   -4.5480 C.3    81  VAL81       0.0020
     16  N         -8.7940   16.6170   -3.6490 N.am   82  VAL82      -0.2033
     17  CA        -7.5160   16.7920   -2.8970 C.3    82  VAL82       0.1282
     18  C         -6.8400   18.1500   -3.3140 C.3    82  VAL82       0.2035
     19  O         -6.3520   18.9240   -2.3700 O.3    82  VAL82      -0.2185
     20  CB        -6.6330   15.5390   -3.1820 C.3    82  VAL82       0.0226
     21  CG1       -5.1580   15.7270   -2.7310 C.3    82  VAL82       0.0018
     22  CG2       -7.2630   14.2990   -2.4850 C.3    82  VAL82       0.0018
     23  N         -8.3630   20.9200   -4.2100 N.3    84  ASN84      -0.1225
     24  CA        -9.4220   21.9140   -4.1620 C.3    84  ASN84       0.1785
     25  C         -8.8500   23.2950   -4.2380 C.2    84  ASN84       0.2597
     26  O         -9.3860   24.1370   -4.9870 O.2    84  ASN84      -0.2718
     27  CB       -10.3650   21.8840   -2.8990 C.3    84  ASN84       0.1169
     28  CG       -11.6690   22.7360   -3.0600 C.2    84  ASN84       0.2627
     29  OD1      -12.4190   22.5030   -4.0060 O.2    84  ASN84      -0.2716
     30  ND2      -11.9420   23.7490   -2.1310 N.am   84  ASN84      -0.0877
     31  N         -7.8070   23.6270   -3.4900 N.am   85  MET85      -0.1979
     32  CA        -7.2970   25.0120   -3.6370 C.3    85  MET85       0.1605
     33  C         -6.7470   25.3430   -4.9910 C.2    85  MET85       0.2287
     34  O         -6.9550   26.4480   -5.5090 O.2    85  MET85      -0.2864
     35  CB        -6.2330   25.2730   -2.5670 C.3    85  MET85       0.0413
     36  CG        -6.8970   25.6920   -1.2780 C.3    85  MET85       0.0598
     37  SD        -7.6090   27.3490   -1.1700 S.3    85  MET85      -0.1393
     38  CE        -6.2470   28.4750   -0.9240 C.3    85  MET85       0.0692
     39  N        -13.1780   12.9400    8.4170 N.3   167  PHE167     -0.1241
     40  CA       -11.7760   13.1260    8.7010 C.3   167  PHE167      0.1605
     41  C        -11.1150   11.9350    9.3490 C.2   167  PHE167      0.2264
     42  O        -10.0550   12.0350    9.9050 O.2   167  PHE167     -0.2867
     43  CB       -11.5170   14.4290    9.5350 C.3   167  PHE167      0.0534
     44  CG       -11.6950   15.6880    8.6880 C.ar  167  PHE167     -0.0203
     45  CD1      -12.9340   16.2680    8.5710 C.ar  167  PHE167     -0.0042
     46  CD2      -10.5960   16.1660    7.9690 C.ar  167  PHE167     -0.0042
     47  CE1      -13.1140   17.3880    7.6920 C.ar  167  PHE167     -0.0003
     48  CE2      -10.8160   17.2980    7.1220 C.ar  167  PHE167     -0.0003
     49  CZ       -12.0290   17.8200    7.0280 C.ar  167  PHE167     -0.0000
     50  N        -15.8900   21.6810    1.6520 N.3   228  THR228     -0.1218
     51  CA       -14.4800   21.4970    2.0430 C.3   228  THR228      0.1862
     52  C        -14.0690   22.5790    3.1000 C.2   228  THR228      0.2287
     53  O        -13.3540   22.2700    4.0710 O.2   228  THR228     -0.2866
     54  CB       -13.5360   21.4940    0.7880 C.3   228  THR228      0.1770
     55  OG1      -12.1630   21.8560    1.0780 O.3   228  THR228     -0.2211
     56  CG2      -13.9880   22.3920   -0.1910 C.3   228  THR228      0.0375
     57  N        -13.0260   21.3690    6.8110 N.3   232  ALA232     -0.1231
     58  CA       -11.6540   21.5620    7.1880 C.3   232  ALA232      0.1694
     59  C        -11.4780   22.6370    8.2510 C.2   232  ALA232      0.2592
     60  O        -10.7300   22.4680    9.2090 O.2   232  ALA232     -0.2718
     61  CB       -10.7310   21.8370    5.9590 C.3   232  ALA232      0.0304
     62  N        -12.2290   23.7350    8.1410 N.am  233  GLY233     -0.1957
     63  CA       -12.1250   24.8040    9.1110 C.3   233  GLY233      0.1869
     64  C        -12.6660   24.3540   10.4620 C.2   233  GLY233      0.2309
     65  O        -11.9910   24.6180   11.4810 O.2   233  GLY233     -0.2863
     66  N        -10.4150   21.6700   12.0810 N.3   236  SER236     -0.1217
     67  CA        -9.0840   22.1640   12.4630 C.3   236  SER236      0.1889
     68  C         -9.1090   23.1330   13.6300 C.2   236  SER236      0.2288
     69  O         -8.3370   22.9920   14.5570 O.2   236  SER236     -0.2866
     70  CB        -8.3740   22.8380   11.2810 C.3   236  SER236      0.2089
     71  OG        -8.2310   21.9360   10.1750 O.3   236  SER236     -0.2183
     72  N         -2.4140   17.5280   14.4950 N.3   279  PHE279     -0.1241
     73  CA        -2.3530   16.6410   13.2700 C.3   279  PHE279      0.1605
     74  C         -1.8150   15.2990   13.6010 C.2   279  PHE279      0.2264
     75  O         -0.7360   15.1460   14.1320 O.2   279  PHE279     -0.2867
     76  CB        -1.4560   17.3650   12.1680 C.3   279  PHE279      0.0534
     77  CG        -2.2190   18.3920   11.4150 C.ar  279  PHE279     -0.0203
     78  CD1       -2.7370   19.5360   12.1030 C.ar  279  PHE279     -0.0042
     79  CD2       -2.5110   18.1960   10.0760 C.ar  279  PHE279     -0.0042
     80  CE1       -3.5110   20.4690   11.3380 C.ar  279  PHE279     -0.0003
     81  CE2       -3.3130   19.1270    9.3700 C.ar  279  PHE279     -0.0003
     82  CZ        -3.8020   20.2410    9.9920 C.ar  279  PHE279     -0.0000
     83  N          2.0660   15.4740    7.0110 N.3   283  LEU283     -0.1231
     84  CA         1.4060   15.9380    5.8040 C.3   283  LEU283      0.1678
     85  C          1.9420   15.1750    4.5620 C.2   283  LEU283      0.2434
     86  O          3.1650   15.1120    4.4200 O.2   283  LEU283     -0.2733
     87  CB         1.7070   17.4590    5.5560 C.3   283  LEU283      0.0284
     88  CG         1.3170   18.3530    6.7360 C.3   283  LEU283      0.0019
     89  CD1        1.6910   19.8160    6.3170 C.3   283  LEU283      0.0001
     90  CD2       -0.1840   18.2530    7.0840 C.3   283  LEU283      0.0001
     91  N          1.0680   14.5380    3.7770 N.am  284  PRO284     -0.2729
     92  CA         1.5990   13.6880    2.6750 C.3   284  PRO284      0.1401
     93  C          1.8660   14.5140    1.4050 C.2   284  PRO284      0.2269
     94  O          1.1520   15.5040    1.0740 O.2   284  PRO284     -0.2865
     95  CB         0.4430   12.6770    2.4410 C.3   284  PRO284      0.0296
     96  CG        -0.8150   13.4340    2.9070 C.3   284  PRO284      0.0237
     97  CD        -0.4090   14.3780    4.0270 C.3   284  PRO284      0.0939
     98  N         -1.9560   27.2550    4.9680 N.3   344  CYS344     -0.1221
     99  CA        -3.3920   27.3390    5.2820 C.3   344  CYS344      0.1794
    100  C         -4.0260   28.7060    4.9380 C.2   344  CYS344      0.2443
    101  O         -3.5720   29.6850    5.5150 O.2   344  CYS344     -0.2733
    102  CB        -3.5410   27.0840    6.8150 C.3   344  CYS344      0.0970
    103  SG        -5.2890   27.0270    7.3030 S.3   344  CYS344     -0.0800
    104  N         -5.0680   28.7100    4.1550 N.am  345  PRO345     -0.2729
    105  CA        -5.7180   30.0110    3.8370 C.3   345  PRO345      0.1401
    106  C         -6.5630   30.4990    5.0230 C.2   345  PRO345      0.2269
    107  O         -7.0320   31.6610    5.0270 O.2   345  PRO345     -0.2865
    108  CB        -6.5940   29.6830    2.6120 C.3   345  PRO345      0.0296
    109  CG        -6.9630   28.1840    2.7730 C.3   345  PRO345      0.0237
    110  CD        -5.6550   27.5720    3.3580 C.3   345  PRO345      0.0939
    111  N         -7.7210   11.9350   11.4120 N.3   384  GLN384     -0.1231
    112  CA        -6.7270   12.9040   10.8970 C.3   384  GLN384      0.1698
    113  C         -6.3180   13.9330   11.9320 C.2   384  GLN384      0.2592
    114  O         -5.3060   14.6470   11.6790 O.2   384  GLN384     -0.2718
    115  CB        -7.1980   13.6250    9.6190 C.3   384  GLN384      0.0381
    116  CG        -7.3530   12.6280    8.4090 C.3   384  GLN384      0.0905
    117  CD        -8.0590   13.2450    7.2090 C.2   384  GLN384      0.2608
    118  OE1       -8.8830   12.5670    6.4680 O.2   384  GLN384     -0.2717
    119  NE2       -7.7120   14.4990    6.9030 N.am  384  GLN384     -0.0878
    120  N         -7.0140   13.9870   13.0530 N.am  385  ARG385     -0.1980
    121  CA        -6.6120   14.8130   14.1590 C.3   385  ARG385      0.1597
    122  C         -6.4910   14.0020   15.3870 C.2   385  ARG385      0.2287
    123  O         -7.1070   12.9000   15.4960 O.2   385  ARG385     -0.2864
    124  CB        -7.6890   15.9320   14.4120 C.3   385  ARG385      0.0334
    125  CG        -7.7760   16.9580   13.2590 C.3   385  ARG385      0.0492
    126  CD        -6.4750   17.7660   13.0500 C.3   385  ARG385      0.2205
    127  NE        -6.7120   18.7640   11.9820 N.pl3 385  ARG385     -0.0865
    128  CZ        -6.6620   18.4530   10.6820 C.cat 385  ARG385      0.5346
    129  NH1       -6.9570   19.3780    9.7220 N.pl3 385  ARG385      0.1354
    130  NH2       -6.3070   17.1710   10.3100 N.pl3 385  ARG385      0.1354
@<TRIPOS>BOND
     1     9    10    1
     2    34    33    2
     3    33    32    1
     4    26    25    2
     5    15    13    1
     6    10    13    1
     7    10    11    1
     8    25    24    1
     9    25    31   am
    10    23    24    1
    11    24    27    1
    12    29    28    2
    13     3     4    2
    14     3     2    1
    15    13    14    1
    16    16    11   am
    17    16    17    1
    18    32    31    1
    19    32    35    1
    20     1     2    1
    21    11    12    2
    22    18    17    1
    23    18    19    1
    24    20    17    1
    25    20    21    1
    26    20    22    1
    27    28    27    1
    28    28    30   am
    29     2     5    1
    30    35    36    1
    31     5     6    1
    32     6     7    1
    33    36    37    1
    34    37    38    1
    35     7     8    1
    36    56    54    1
    37    54    55    1
    38    54    51    1
    39    94    93    2
    40    93    92    1
    41    50    51    1
    42    51    52    1
    43    95    92    1
    44    95    96    1
    45   108   109    1
    46   108   105    1
    47    92    91    1
    48   109   110    1
    49    96    97    1
    50    52    53    2
    51   110   104    1
    52    91    97    1
    53    91    85   am
    54   105   104    1
    55   105   106    1
    56   104   100   am
    57    86    85    2
    58    85    84    1
    59   100    99    1
    60   100   101    2
    61    98    99    1
    62   106   107    2
    63    99   102    1
    64    87    84    1
    65    87    88    1
    66    84    83    1
    67    61    58    1
    68    89    88    1
    69   118   117    2
    70    88    90    1
    71    57    58    1
    72   102   103    1
    73   119   117   am
    74    49    48   ar
    75    49    47   ar
    76    48    46   ar
    77    58    59    1
    78   117   116    1
    79    47    45   ar
    80    46    44   ar
    81    62    59   am
    82    62    63    1
    83    59    60    2
    84   116   115    1
    85    39    40    1
    86    45    44   ar
    87    44    43    1
    88    40    41    1
    89    40    43    1
    90    63    64    1
    91    41    42    2
    92    81    82   ar
    93    81    79   ar
    94   115   112    1
    95   129   128    1
    96    82    80   ar
    97    79    77   ar
    98    71    70    1
    99   130   128    1
   100    64    65    2
   101   128   127    2
   102   112   111    1
   103   112   113    1
   104    70    67    1
   105    80    78   ar
   106    77    78   ar
   107    77    76    1
   108   114   113    2
   109   113   120   am
   110   127   126    1
   111    66    67    1
   112    76    73    1
   113    67    68    1
   114   126   125    1
   115   120   121    1
   116   125   124    1
   117    73    74    1
   118    73    72    1
   119    74    75    2
   120    68    69    2
   121   121   124    1
   122   121   122    1
   123   122   123    2
