@<TRIPOS>MOLECULE
tmp/4g46A01.pdb
 114 108 0 0 0
SMALL
GASTEIGER

@<TRIPOS>ATOM
      1  N         -8.7090    7.7440    0.3420 N.3    75  LEU75      -0.1231
      2  CA        -9.4470    9.0180    0.0950 C.3    75  LEU75       0.1693
      3  C        -10.8340    8.9920    0.7760 C.2    75  LEU75       0.2593
      4  O        -11.5440    7.9790    0.7400 O.2    75  LEU75      -0.2718
      5  CB        -9.6790    9.1840   -1.4380 C.3    75  LEU75       0.0284
      6  CG        -8.3750    9.3910   -2.1970 C.3    75  LEU75       0.0019
      7  CD1       -8.7700    9.1530   -3.6680 C.3    75  LEU75       0.0001
      8  CD2       -7.8230   10.7560   -1.9070 C.3    75  LEU75       0.0001
      9  N        -11.2330   10.1480    1.3170 N.am   76  THR76      -0.1939
     10  CA       -12.6030   10.2780    1.8170 C.3    76  THR76       0.2028
     11  C        -13.3640   11.3250    0.9900 C.2    76  THR76       0.2642
     12  O        -14.5340   11.6130    1.2990 O.2    76  THR76      -0.2714
     13  CB       -12.6760   10.7090    3.3100 C.3    76  THR76       0.1808
     14  OG1      -12.0740   11.9690    3.3980 O.3    76  THR76      -0.2208
     15  CG2      -11.8410    9.7920    4.2160 C.3    76  THR76       0.0379
     16  N        -12.7600   11.8040   -0.1120 N.am   77  VAL77      -0.1977
     17  CA       -13.4240   12.7580   -1.0450 C.3    77  VAL77       0.1596
     18  C        -13.0840   12.2370   -2.4230 C.2    77  VAL77       0.2287
     19  O        -12.1200   11.4620   -2.6080 O.2    77  VAL77      -0.2864
     20  CB       -12.8560   14.1890   -0.8800 C.3    77  VAL77       0.0276
     21  CG1      -13.2200   14.7120    0.5070 C.3    77  VAL77       0.0022
     22  CG2      -11.3360   14.2580   -1.1050 C.3    77  VAL77       0.0022
     23  N        -10.9520   16.3650   -5.8160 N.3    81  VAL81      -0.1231
     24  CA       -11.0800   17.3020   -4.6850 C.3    81  VAL81       0.1692
     25  C         -9.8150   17.4020   -3.8830 C.2    81  VAL81       0.2591
     26  O         -9.5690   18.3170   -3.1280 O.2    81  VAL81      -0.2718
     27  CB       -12.3540   16.8580   -3.8310 C.3    81  VAL81       0.0266
     28  CG1      -12.5600   17.7240   -2.5830 C.3    81  VAL81       0.0020
     29  CG2      -13.5800   16.9670   -4.6830 C.3    81  VAL81       0.0020
     30  N         -8.8810   16.4340   -4.0180 N.am   82  VAL82      -0.1980
     31  CA        -7.6390   16.5580   -3.3270 C.3    82  VAL82       0.1595
     32  C         -6.8970   17.8150   -3.8150 C.2    82  VAL82       0.2287
     33  O         -6.2240   18.4850   -3.0290 O.2    82  VAL82      -0.2864
     34  CB        -6.7710   15.2420   -3.6220 C.3    82  VAL82       0.0276
     35  CG1       -5.3240   15.3990   -3.1710 C.3    82  VAL82       0.0022
     36  CG2       -7.4410   14.0700   -2.8140 C.3    82  VAL82       0.0022
     37  N         -8.2140   20.6750   -4.3510 N.3    84  ASN84      -0.1240
     38  CA        -9.2650   21.6650   -4.1600 C.3    84  ASN84       0.1653
     39  C         -8.7410   23.0670   -4.3000 C.2    84  ASN84       0.2266
     40  O         -9.3110   23.8860   -5.0870 O.2    84  ASN84      -0.2867
     41  CB       -10.0900   21.3690   -2.9050 C.3    84  ASN84       0.1155
     42  CG       -11.3160   22.2640   -2.7910 C.2    84  ASN84       0.2627
     43  OD1      -12.2080   22.2750   -3.6650 O.2    84  ASN84      -0.2716
     44  ND2      -11.3490   23.0660   -1.7040 N.am   84  ASN84      -0.0877
     45  N        -18.3960   15.0500   10.3320 N.3   163  LEU163     -0.1301
     46  CA       -16.9440   15.2230   10.3540 C.3   163  LEU163      0.1247
     47  C        -16.2110   14.0600   11.0760 C.3   163  LEU163      0.2009
     48  O        -15.0130   13.7500   10.7280 O.3   163  LEU163     -0.2188
     49  CB       -16.5150   16.5600   11.0020 C.3   163  LEU163      0.0217
     50  CG       -17.1660   17.7250   10.2390 C.3   163  LEU163      0.0015
     51  CD1      -16.7370   19.0300   11.0070 C.3   163  LEU163      0.0000
     52  CD2      -16.7550   17.8030    8.7350 C.3   163  LEU163      0.0000
     53  N        -15.7900   12.0280    7.9350 N.3   166  ALA166     -0.1231
     54  CA       -15.1090   12.6480    6.8090 C.3   166  ALA166      0.1694
     55  C        -13.6560   12.8140    7.0310 C.2   166  ALA166      0.2592
     56  O        -12.8880   12.7570    6.1170 O.2   166  ALA166     -0.2718
     57  CB       -15.7970   14.0250    6.5810 C.3   166  ALA166      0.0304
     58  N        -13.2210   13.0740    8.2680 N.am  167  PHE167     -0.1976
     59  CA       -11.8060   13.2760    8.5560 C.3   167  PHE167      0.1639
     60  C        -11.1790   12.0560    9.2050 C.2   167  PHE167      0.2290
     61  O        -10.1320   12.1550    9.7770 O.2   167  PHE167     -0.2864
     62  CB       -11.5770   14.5850    9.4010 C.3   167  PHE167      0.0560
     63  CG       -11.6880   15.8210    8.5270 C.ar  167  PHE167     -0.0200
     64  CD1      -12.9170   16.3590    8.2480 C.ar  167  PHE167     -0.0042
     65  CD2      -10.5120   16.2910    7.9160 C.ar  167  PHE167     -0.0042
     66  CE1      -13.0420   17.4740    7.3460 C.ar  167  PHE167     -0.0003
     67  CE2      -10.6630   17.4370    7.0410 C.ar  167  PHE167     -0.0003
     68  CZ       -11.9220   17.9410    6.7850 C.ar  167  PHE167     -0.0000
     69  N        -20.8710   12.8560    2.1810 N.3   181  TRP181     -0.1241
     70  CA       -20.3060   13.8340    1.1380 C.3   181  TRP181      0.1605
     71  C        -21.4120   14.1630    0.1570 C.2   181  TRP181      0.2264
     72  O        -21.6470   15.3630   -0.1170 O.2   181  TRP181     -0.2867
     73  CB       -19.1200   13.1520    0.4710 C.3   181  TRP181      0.0550
     74  CG       -18.5880   14.0310   -0.6960 C.ar  181  TRP181      0.0003
     75  CD1      -18.8770   13.9200   -2.0030 C.ar  181  TRP181      0.0946
     76  CD2      -17.6970   15.1580   -0.5370 C.ar  181  TRP181      0.0152
     77  NE1      -18.1940   14.8850   -2.7030 N.ar  181  TRP181     -0.2442
     78  CE2      -17.4800   15.6820   -1.8670 C.ar  181  TRP181      0.0810
     79  CE3      -17.0330   15.7630    0.5710 C.ar  181  TRP181      0.0012
     80  CZ2      -16.6550   16.8320   -2.1040 C.ar  181  TRP181      0.0191
     81  CZ3      -16.1980   16.9030    0.3120 C.ar  181  TRP181      0.0001
     82  CH2      -16.0350   17.4170   -1.0140 C.ar  181  TRP181      0.0015
     83  N        -18.4930   22.6600    1.1560 N.3   227  VAL227     -0.1231
     84  CA       -18.3510   21.4980    2.0710 C.3   227  VAL227      0.1692
     85  C        -16.9130   21.4220    2.5640 C.2   227  VAL227      0.2592
     86  O        -16.7570   21.1410    3.8080 O.2   227  VAL227     -0.2718
     87  CB       -18.7060   20.2020    1.2800 C.3   227  VAL227      0.0266
     88  CG1      -18.4850   18.9690    2.1970 C.3   227  VAL227      0.0020
     89  CG2      -20.1410   20.2170    0.7220 C.3   227  VAL227      0.0020
     90  N        -15.9280   21.6860    1.6900 N.am  228  THR228     -0.1953
     91  CA       -14.5310   21.5050    2.1300 C.3   228  THR228      0.1897
     92  C        -14.1160   22.5880    3.1370 C.2   228  THR228      0.2313
     93  O        -13.3380   22.3060    4.0690 O.2   228  THR228     -0.2863
     94  CB       -13.5880   21.4470    0.9710 C.3   228  THR228      0.1794
     95  OG1      -13.7430   22.6290    0.1700 O.3   228  THR228     -0.2208
     96  CG2      -13.8860   20.2140    0.0890 C.3   228  THR228      0.0378
     97  N        -15.8260   21.9480    6.4720 N.3   231  GLY231     -0.1210
     98  CA       -15.3240   20.7690    7.2080 C.3   231  GLY231      0.1956
     99  C        -13.8830   21.0220    7.6690 C.2   231  GLY231      0.2611
    100  O        -13.5430   20.7700    8.8410 O.2   231  GLY231     -0.2717
    101  N        -12.9700   21.4950    6.8040 N.am  232  ALA232     -0.1979
    102  CA       -11.6130   21.7530    7.2140 C.3   232  ALA232      0.1597
    103  C        -11.5330   22.7850    8.3290 C.2   232  ALA232      0.2287
    104  O        -10.8480   22.6330    9.3320 O.2   232  ALA232     -0.2864
    105  CB       -10.7580   22.2390    6.0170 C.3   232  ALA232      0.0319
    106  N         -7.7920   12.0040   11.3070 N.3   384  GLN384     -0.1245
    107  CA        -6.7560   12.9540   10.7920 C.3   384  GLN384      0.1566
    108  C         -6.3940   13.9860   11.8500 C.2   384  GLN384      0.2260
    109  O         -5.4040   14.7090   11.6250 O.2   384  GLN384     -0.2867
    110  CB        -7.2610   13.6610    9.5230 C.3   384  GLN384      0.0367
    111  CG        -7.4460   12.6640    8.2890 C.3   384  GLN384      0.0905
    112  CD        -8.0560   13.3370    7.1240 C.2   384  GLN384      0.2608
    113  OE1       -7.7420   14.5680    6.8230 O.2   384  GLN384     -0.2717
    114  NE2       -8.9470   12.6440    6.3930 N.am  384  GLN384     -0.0878
@<TRIPOS>BOND
     1    23    24    1
     2    40    39    2
     3    24    25    1
     4    24    27    1
     5    29    27    1
     6    37    38    1
     7    39    38    1
     8    38    41    1
     9    30    25   am
    10    30    31    1
    11    25    26    2
    12    27    28    1
    13    32    31    1
    14    32    33    2
    15     7     6    1
    16    43    42    2
    17    34    31    1
    18    34    35    1
    19    34    36    1
    20    41    42    1
    21    42    44   am
    22    77    75   ar
    23    77    78   ar
    24    19    18    2
    25    18    17    1
    26     6     8    1
    27     6     5    1
    28    80    78   ar
    29    80    82   ar
    30    75    74   ar
    31    78    76   ar
    32     5     2    1
    33    22    20    1
    34    17    20    1
    35    17    16    1
    36    82    81   ar
    37    20    21    1
    38    74    76   ar
    39    74    73    1
    40    76    79   ar
    41    72    71    2
    42    16    11   am
    43    96    94    1
    44     2     1    1
    45     2     3    1
    46    71    70    1
    47    95    94    1
    48    81    79   ar
    49    73    70    1
    50    89    87    1
    51     4     3    2
    52     3     9   am
    53    94    91    1
    54    11    12    2
    55    11    10    1
    56    70    69    1
    57    83    84    1
    58    87    84    1
    59    87    88    1
    60     9    10    1
    61    90    91    1
    62    90    85   am
    63    10    13    1
    64    84    85    1
    65    91    92    1
    66    85    86    2
    67    92    93    2
    68    13    14    1
    69    13    15    1
    70   105   102    1
    71    56    55    2
    72   114   112   am
    73    97    98    1
    74    57    54    1
    75    68    67   ar
    76    68    66   ar
    77   101   102    1
    78   101    99   am
    79    54    55    1
    80    54    53    1
    81   113   112    2
    82    55    58   am
    83    67    65   ar
    84   112   111    1
    85    98    99    1
    86   102   103    1
    87    66    64   ar
    88    99   100    2
    89    65    63   ar
    90    64    63   ar
    91    58    59    1
    92   111   110    1
    93   103   104    2
    94    63    62    1
    95    59    60    1
    96    59    62    1
    97    52    50    1
    98    60    61    2
    99   110   107    1
   100    50    49    1
   101    50    51    1
   102    45    46    1
   103    46    49    1
   104    46    47    1
   105    48    47    1
   106   107   106    1
   107   107   108    1
   108   109   108    2
