@<TRIPOS>MOLECULE
tmp/4g47A01.pdb
 100 94 0 0 0
SMALL
GASTEIGER

@<TRIPOS>ATOM
      1  N          1.1580   17.6400   -3.5760 N.3    61  MET61      -0.1245
      2  CA        -0.0600   17.2280   -2.9290 C.3    61  MET61       0.1570
      3  C         -0.9830   16.6240   -3.9430 C.2    61  MET61       0.2261
      4  O         -1.5760   15.5360   -3.6650 O.2    61  MET61      -0.2867
      5  CB        -0.7810   18.4600   -2.2470 C.3    61  MET61       0.0387
      6  CG        -2.3240   18.1010   -1.7680 C.3    61  MET61       0.0595
      7  SD        -3.0820   19.6170   -1.1170 S.3    61  MET61      -0.1393
      8  CE        -2.2460   19.7420    0.4050 C.3    61  MET61       0.0692
      9  N        -11.2260   10.1380    1.3940 N.3    76  THR76      -0.1203
     10  CA       -12.5690   10.3010    1.8680 C.3    76  THR76       0.1994
     11  C        -13.2980   11.3390    1.0150 C.2    76  THR76       0.2617
     12  O        -14.4510   11.6670    1.3420 O.2    76  THR76      -0.2717
     13  CB       -12.6610   10.6650    3.3500 C.3    76  THR76       0.1784
     14  OG1      -12.0160   11.9200    3.5310 O.3    76  THR76      -0.2211
     15  CG2      -11.8700    9.7070    4.2400 C.3    76  THR76       0.0376
     16  N        -12.6230   11.8810   -0.0120 N.am   77  VAL77      -0.1979
     17  CA       -13.2710   12.8710   -0.9280 C.3    77  VAL77       0.1595
     18  C        -12.9380   12.3160   -2.2950 C.2    77  VAL77       0.2287
     19  O        -11.9980   11.5130   -2.5370 O.2    77  VAL77      -0.2864
     20  CB       -12.6360   14.2700   -0.7490 C.3    77  VAL77       0.0276
     21  CG1      -12.9140   14.8410    0.6620 C.3    77  VAL77       0.0022
     22  CG2      -11.1280   14.3050   -0.9600 C.3    77  VAL77       0.0022
     23  N        -10.7460   16.4510   -5.6690 N.3    81  VAL81      -0.1231
     24  CA       -10.9080   17.3590   -4.5230 C.3    81  VAL81       0.1692
     25  C         -9.6350   17.4110   -3.6770 C.2    81  VAL81       0.2591
     26  O         -9.3460   18.3660   -2.9690 O.2    81  VAL81      -0.2718
     27  CB       -12.2100   16.9590   -3.7040 C.3    81  VAL81       0.0266
     28  CG1      -12.3440   17.7960   -2.4540 C.3    81  VAL81       0.0020
     29  CG2      -13.4650   17.0560   -4.5470 C.3    81  VAL81       0.0020
     30  N         -8.6820   16.4560   -3.8660 N.am   82  VAL82      -0.1980
     31  CA        -7.4250   16.6150   -3.1970 C.3    82  VAL82       0.1595
     32  C         -6.7190   17.8920   -3.7260 C.2    82  VAL82       0.2287
     33  O         -5.9720   18.5480   -2.9600 O.2    82  VAL82      -0.2864
     34  CB        -6.5830   15.3130   -3.5140 C.3    82  VAL82       0.0276
     35  CG1       -5.1580   15.4720   -3.0450 C.3    82  VAL82       0.0022
     36  CG2       -7.2750   14.1010   -2.7970 C.3    82  VAL82       0.0022
     37  N         -8.1270   20.6620   -4.2900 N.3    84  ASN84      -0.1225
     38  CA        -9.1850   21.6930   -4.0680 C.3    84  ASN84       0.1785
     39  C         -8.6480   23.0790   -4.2620 C.2    84  ASN84       0.2597
     40  O         -9.2470   23.8740   -5.0400 O.2    84  ASN84      -0.2718
     41  CB        -9.7120   21.4600   -2.6640 C.3    84  ASN84       0.1169
     42  CG       -11.0320   22.1420   -2.3780 C.2    84  ASN84       0.2627
     43  OD1      -11.9170   22.2600   -3.2290 O.2    84  ASN84      -0.2716
     44  ND2      -11.1690   22.5400   -1.1050 N.am   84  ASN84      -0.0877
     45  N         -7.5540   23.4960   -3.6260 N.am   85  MET85      -0.1979
     46  CA        -7.0770   24.8620   -3.8130 C.3    85  MET85       0.1605
     47  C         -6.6140   25.1730   -5.1920 C.2    85  MET85       0.2287
     48  O         -6.8360   26.2830   -5.6800 O.2    85  MET85      -0.2864
     49  CB        -6.0490   25.2620   -2.7320 C.3    85  MET85       0.0413
     50  CG        -6.6460   25.5620   -1.3520 C.3    85  MET85       0.0598
     51  SD        -7.7440   26.9840   -1.2270 S.3    85  MET85      -0.1393
     52  CE        -6.5640   28.3400   -1.0730 C.3    85  MET85       0.0692
     53  N        -15.7310   11.9400    8.0020 N.3   166  ALA166     -0.1231
     54  CA       -15.0450   12.5740    6.8590 C.3   166  ALA166      0.1694
     55  C        -13.6300   12.7760    7.0670 C.2   166  ALA166      0.2592
     56  O        -12.8220   12.6770    6.1440 O.2   166  ALA166     -0.2718
     57  CB       -15.7010   13.9130    6.5860 C.3   166  ALA166      0.0304
     58  N        -13.2130   12.9710    8.3350 N.am  167  PHE167     -0.1976
     59  CA       -11.7930   13.1650    8.6520 C.3   167  PHE167      0.1639
     60  C        -11.1360   11.9310    9.2630 C.2   167  PHE167      0.2290
     61  O        -10.0720   12.0280    9.8260 O.2   167  PHE167     -0.2864
     62  CB       -11.5620   14.4400    9.5010 C.3   167  PHE167      0.0560
     63  CG       -11.6490   15.6690    8.6210 C.ar  167  PHE167     -0.0200
     64  CD1      -12.8910   16.2610    8.3900 C.ar  167  PHE167     -0.0042
     65  CD2      -10.4670   16.1790    8.0390 C.ar  167  PHE167     -0.0042
     66  CE1      -12.9580   17.4260    7.4930 C.ar  167  PHE167     -0.0003
     67  CE2      -10.6130   17.3120    7.1640 C.ar  167  PHE167     -0.0003
     68  CZ       -11.8070   17.8360    6.9270 C.ar  167  PHE167     -0.0000
     69  N        -15.9810   21.6310    1.7830 N.3   228  THR228     -0.1203
     70  CA       -14.5990   21.4680    2.2330 C.3   228  THR228      0.1994
     71  C        -14.1890   22.5440    3.1970 C.2   228  THR228      0.2617
     72  O        -13.3890   22.2760    4.1170 O.2   228  THR228     -0.2717
     73  CB       -13.6340   21.3670    1.0550 C.3   228  THR228      0.1784
     74  OG1      -13.7430   22.5250    0.2300 O.3   228  THR228     -0.2211
     75  CG2      -13.9060   20.0730    0.2510 C.3   228  THR228      0.0376
     76  N        -14.5980   23.7900    2.9670 N.am  229  PHE229     -0.1975
     77  CA       -14.1490   24.8970    3.8890 C.3   229  PHE229      0.1639
     78  C        -14.9190   24.7540    5.1820 C.2   229  PHE229      0.2290
     79  O        -14.2820   24.9410    6.2500 O.2   229  PHE229     -0.2864
     80  CB       -14.2720   26.2990    3.2310 C.3   229  PHE229      0.0560
     81  CG       -13.0980   26.6150    2.4270 C.ar  229  PHE229     -0.0200
     82  CD1      -12.7890   25.8710    1.2700 C.ar  229  PHE229     -0.0042
     83  CD2      -12.2050   27.5930    2.8360 C.ar  229  PHE229     -0.0042
     84  CE1      -11.6150   26.1850    0.5590 C.ar  229  PHE229     -0.0003
     85  CE2      -11.0360   27.8470    2.0950 C.ar  229  PHE229     -0.0003
     86  CZ       -10.7560   27.1990    0.9610 C.ar  229  PHE229     -0.0000
     87  N        -13.0420   21.4080    6.8180 N.3   232  ALA232     -0.1245
     88  CA       -11.6870   21.6360    7.2270 C.3   232  ALA232      0.1562
     89  C        -11.5790   22.6780    8.3240 C.2   232  ALA232      0.2260
     90  O        -10.8530   22.5370    9.2880 O.2   232  ALA232     -0.2867
     91  CB       -10.8260   22.0910    6.0130 C.3   232  ALA232      0.0290
     92  N         -7.7280   11.9380   11.3280 N.3   384  GLN384     -0.1245
     93  CA        -6.7280   12.9000   10.8410 C.3   384  GLN384      0.1566
     94  C         -6.3610   13.9310   11.8940 C.2   384  GLN384      0.2260
     95  O         -5.3890   14.6680   11.6510 O.2   384  GLN384     -0.2867
     96  CB        -7.2460   13.5780    9.5530 C.3   384  GLN384      0.0367
     97  CG        -7.3640   12.5970    8.3850 C.3   384  GLN384      0.0905
     98  CD        -8.0030   13.2670    7.2010 C.2   384  GLN384      0.2608
     99  OE1       -7.7230   14.4440    6.8420 O.2   384  GLN384     -0.2717
    100  NE2       -8.9050   12.5810    6.4550 N.am  384  GLN384     -0.0878
@<TRIPOS>BOND
     1    48    47    2
     2    23    24    1
     3    47    46    1
     4    40    39    2
     5    29    27    1
     6    24    27    1
     7    24    25    1
     8    37    38    1
     9    39    38    1
    10    39    45   am
    11    38    41    1
    12     3     4    2
    13     3     2    1
    14    30    25   am
    15    30    31    1
    16    46    45    1
    17    46    49    1
    18    32    31    1
    19    32    33    2
    20    27    28    1
    21    25    26    2
    22     1     2    1
    23    34    31    1
    24    34    35    1
    25    34    36    1
    26    43    42    2
    27     2     5    1
    28    49    50    1
    29    41    42    1
    30    19    18    2
    31    42    44   am
    32    18    17    1
    33     5     6    1
    34     6     7    1
    35    50    51    1
    36    51    52    1
    37     7     8    1
    38    22    20    1
    39    17    20    1
    40    17    16    1
    41    20    21    1
    42    16    11   am
    43    74    73    1
    44    75    73    1
    45    84    86   ar
    46    84    82   ar
    47    86    85   ar
    48    11    12    2
    49    11    10    1
    50    73    70    1
    51    82    81   ar
    52     9    10    1
    53    69    70    1
    54    10    13    1
    55    85    83   ar
    56    70    71    1
    57    81    83   ar
    58    81    80    1
    59    76    71   am
    60    76    77    1
    61    71    72    2
    62    80    77    1
    63    13    14    1
    64    13    15    1
    65    77    78    1
    66    78    79    2
    67    91    88    1
    68    56    55    2
    69   100    98   am
    70    57    54    1
    71    87    88    1
    72    99    98    2
    73    54    55    1
    74    54    53    1
    75    68    67   ar
    76    68    66   ar
    77    55    58   am
    78    67    65   ar
    79    98    97    1
    80    88    89    1
    81    66    64   ar
    82    65    63   ar
    83    89    90    2
    84    58    59    1
    85    97    96    1
    86    64    63   ar
    87    63    62    1
    88    59    60    1
    89    59    62    1
    90    60    61    2
    91    96    93    1
    92    93    92    1
    93    93    94    1
    94    95    94    2
