@<TRIPOS>MOLECULE
tmp/4g48A01.pdb
 147 140 0 0 0
SMALL
GASTEIGER

@<TRIPOS>ATOM
      1  N          1.1780  -17.6530    3.5780 N.3    61  MET61      -0.1245
      2  CA        -0.0500  -17.2430    2.8910 C.3    61  MET61       0.1570
      3  C         -0.9830  -16.5630    3.8850 C.2    61  MET61       0.2261
      4  O         -1.4650  -15.4600    3.6410 O.2    61  MET61      -0.2867
      5  CB        -0.7630  -18.4320    2.2080 C.3    61  MET61       0.0387
      6  CG        -2.2510  -18.1580    1.8120 C.3    61  MET61       0.0595
      7  SD        -3.0570  -19.6210    1.0840 S.3    61  MET61      -0.1393
      8  CE        -2.2200  -19.7220   -0.4850 C.3    61  MET61       0.0692
      9  N        -11.1060  -10.1470   -1.3430 N.3    76  THR76      -0.1203
     10  CA       -12.4810  -10.2920   -1.8080 C.3    76  THR76       0.1994
     11  C        -13.2400  -11.3230   -0.9790 C.2    76  THR76       0.2617
     12  O        -14.3990  -11.6250   -1.2640 O.2    76  THR76      -0.2717
     13  CB       -12.5480  -10.6790   -3.2900 C.3    76  THR76       0.1784
     14  OG1      -11.8420  -11.9030   -3.4820 O.3    76  THR76      -0.2211
     15  CG2      -11.9030   -9.6020   -4.1520 C.3    76  THR76       0.0376
     16  N        -12.5690  -11.8540    0.0450 N.am   77  VAL77      -0.1979
     17  CA       -13.1690  -12.7790    1.0030 C.3    77  VAL77       0.1595
     18  C        -12.8470  -12.2870    2.4070 C.2    77  VAL77       0.2287
     19  O        -11.9520  -11.4660    2.5880 O.2    77  VAL77      -0.2864
     20  CB       -12.6060  -14.2070    0.8470 C.3    77  VAL77       0.0276
     21  CG1      -12.9300  -14.7570   -0.5360 C.3    77  VAL77       0.0022
     22  CG2      -11.1060  -14.2340    1.0810 C.3    77  VAL77       0.0022
     23  N        -10.7830  -16.4490    5.8010 N.3    81  VAL81      -0.1231
     24  CA       -10.8960  -17.3980    4.6980 C.3    81  VAL81       0.1692
     25  C         -9.5830  -17.5570    3.9200 C.2    81  VAL81       0.2591
     26  O         -9.3820  -18.5400    3.2120 O.2    81  VAL81      -0.2718
     27  CB       -12.0490  -16.9940    3.7500 C.3    81  VAL81       0.0266
     28  CG1      -12.1450  -17.9480    2.5680 C.3    81  VAL81       0.0020
     29  CG2      -13.3610  -16.9530    4.5100 C.3    81  VAL81       0.0020
     30  N         -8.6730  -16.6010    4.0640 N.am   82  VAL82      -0.1980
     31  CA        -7.3640  -16.7260    3.4390 C.3    82  VAL82       0.1595
     32  C         -6.6360  -17.9740    3.9730 C.2    82  VAL82       0.2287
     33  O         -5.8480  -18.5980    3.2650 O.2    82  VAL82      -0.2864
     34  CB        -6.5180  -15.4470    3.6630 C.3    82  VAL82       0.0276
     35  CG1       -5.1220  -15.6230    3.1020 C.3    82  VAL82       0.0022
     36  CG2       -7.2030  -14.2440    3.0160 C.3    82  VAL82       0.0022
     37  N         -8.0390  -20.7560    4.4930 N.3    84  ASN84      -0.1225
     38  CA        -9.0540  -21.7720    4.2110 C.3    84  ASN84       0.1785
     39  C         -8.5650  -23.2090    4.4210 C.2    84  ASN84       0.2597
     40  O         -9.1950  -23.9860    5.1400 O.2    84  ASN84      -0.2718
     41  CB        -9.5790  -21.5880    2.7770 C.3    84  ASN84       0.1169
     42  CG       -10.8990  -22.3130    2.5190 C.2    84  ASN84       0.2627
     43  OD1      -11.7570  -22.4190    3.3930 O.2    84  ASN84      -0.2716
     44  ND2      -11.0670  -22.7960    1.2920 N.am   84  ASN84      -0.0877
     45  N         -7.4560  -23.5880    3.7960 N.am   85  MET85      -0.1979
     46  CA        -7.0270  -24.9850    3.9130 C.3    85  MET85       0.1605
     47  C         -6.5600  -25.3270    5.3260 C.2    85  MET85       0.2287
     48  O         -6.7540  -26.4480    5.7930 O.2    85  MET85      -0.2864
     49  CB        -5.9470  -25.3320    2.8820 C.3    85  MET85       0.0413
     50  CG        -6.4720  -25.5020    1.4600 C.3    85  MET85       0.0598
     51  SD        -7.6070  -26.8870    1.2300 S.3    85  MET85      -0.1393
     52  CE        -6.4980  -28.2910    1.3590 C.3    85  MET85       0.0692
     53  N        -21.0400  -15.0440  -10.1730 N.3   162  SER162     -0.1202
     54  CA       -20.3300  -14.3280   -9.1180 C.3   162  SER162      0.2020
     55  C        -18.8550  -14.1510   -9.4580 C.2   162  SER162      0.2618
     56  O        -18.1910  -13.2510   -8.9350 O.2   162  SER162     -0.2717
     57  CB       -20.4300  -15.0830   -7.7860 C.3   162  SER162      0.2103
     58  OG       -21.7520  -15.0570   -7.2710 O.3   162  SER162     -0.2182
     59  N        -18.3270  -15.0000  -10.3320 N.am  163  LEU163     -0.1979
     60  CA       -16.8770  -15.1430  -10.4100 C.3   163  LEU163      0.1596
     61  C        -16.1220  -14.0130  -11.1170 C.2   163  LEU163      0.2287
     62  O        -14.9530  -13.7620  -10.7950 O.2   163  LEU163     -0.2864
     63  CB       -16.4970  -16.5090  -10.9910 C.3   163  LEU163      0.0297
     64  CG       -17.1240  -17.7060  -10.2640 C.3   163  LEU163      0.0022
     65  CD1      -16.7400  -19.0030  -10.9700 C.3   163  LEU163      0.0001
     66  CD2      -16.7260  -17.7520   -8.7970 C.3   163  LEU163      0.0001
     67  N        -15.7680  -11.9470   -8.0370 N.3   166  ALA166     -0.1231
     68  CA       -15.1150  -12.6150   -6.9180 C.3   166  ALA166      0.1694
     69  C        -13.6130  -12.7520   -7.1190 C.2   166  ALA166      0.2592
     70  O        -12.8370  -12.6540   -6.1710 O.2   166  ALA166     -0.2718
     71  CB       -15.7400  -13.9780   -6.7000 C.3   166  ALA166      0.0304
     72  N        -13.2020  -12.9940   -8.3590 N.am  167  PHE167     -0.1976
     73  CA       -11.7850  -13.1850   -8.6360 C.3   167  PHE167      0.1639
     74  C        -11.1070  -11.9640   -9.2300 C.2   167  PHE167      0.2290
     75  O        -10.0480  -12.0680   -9.8450 O.2   167  PHE167     -0.2864
     76  CB       -11.5390  -14.4610   -9.4530 C.3   167  PHE167      0.0560
     77  CG       -11.5730  -15.6900   -8.6110 C.ar  167  PHE167     -0.0200
     78  CD1      -12.7770  -16.2830   -8.2860 C.ar  167  PHE167     -0.0042
     79  CD2      -10.3980  -16.2160   -8.0910 C.ar  167  PHE167     -0.0042
     80  CE1      -12.8130  -17.4090   -7.4600 C.ar  167  PHE167     -0.0003
     81  CE2      -10.4330  -17.3360   -7.2680 C.ar  167  PHE167     -0.0003
     82  CZ       -11.6350  -17.9260   -6.9640 C.ar  167  PHE167     -0.0000
     83  N        -20.7660  -12.8970   -2.1400 N.3   181  TRP181     -0.1241
     84  CA       -20.2230  -13.8330   -1.1490 C.3   181  TRP181      0.1605
     85  C        -21.2940  -14.2350   -0.1440 C.2   181  TRP181      0.2264
     86  O        -21.5140  -15.4230    0.1000 O.2   181  TRP181     -0.2867
     87  CB       -19.0370  -13.2120   -0.4150 C.3   181  TRP181      0.0550
     88  CG       -18.5110  -14.0760    0.6990 C.ar  181  TRP181      0.0003
     89  CD1      -18.8150  -13.9800    2.0320 C.ar  181  TRP181      0.0946
     90  CD2      -17.6030  -15.1730    0.5720 C.ar  181  TRP181      0.0152
     91  NE1      -18.1340  -14.9430    2.7400 N.ar  181  TRP181     -0.2442
     92  CE2      -17.3890  -15.6930    1.8680 C.ar  181  TRP181      0.0810
     93  CE3      -16.9480  -15.7700   -0.5110 C.ar  181  TRP181      0.0012
     94  CZ2      -16.5510  -16.7840    2.1060 C.ar  181  TRP181      0.0191
     95  CZ3      -16.1130  -16.8510   -0.2710 C.ar  181  TRP181      0.0001
     96  CH2      -15.9280  -17.3510    1.0280 C.ar  181  TRP181      0.0015
     97  N        -23.9140  -16.4440   -1.7590 N.3   184  ASP184     -0.1239
     98  CA       -23.4100  -17.7770   -2.0850 C.3   184  ASP184      0.1674
     99  C        -23.2280  -18.6310   -0.8320 C.2   184  ASP184      0.2266
    100  O        -23.4930  -19.8430   -0.8520 O.2   184  ASP184     -0.2867
    101  CB       -22.1220  -17.6940   -2.9050 C.3   184  ASP184      0.1410
    102  CG       -22.3580  -17.1150   -4.2910 C.2   184  ASP184      0.3668
    103  OD1      -23.5340  -17.0520   -4.7290 O.co2 184  ASP184     -0.2456
    104  OD2      -21.3660  -16.7200   -4.9440 O.co2 184  ASP184     -0.2456
    105  N        -18.3920  -22.8910   -1.1310 N.3   227  VAL227     -0.1231
    106  CA       -18.2300  -21.6810   -1.9370 C.3   227  VAL227      0.1692
    107  C        -16.8310  -21.5770   -2.5350 C.2   227  VAL227      0.2593
    108  O        -16.6830  -21.3150   -3.7330 O.2   227  VAL227     -0.2718
    109  CB       -18.5630  -20.3990   -1.1270 C.3   227  VAL227      0.0266
    110  CG1      -18.3220  -19.1490   -1.9680 C.3   227  VAL227      0.0020
    111  CG2      -19.9990  -20.4350   -0.6190 C.3   227  VAL227      0.0020
    112  N        -15.8080  -21.7850   -1.7140 N.am  228  THR228     -0.1939
    113  CA       -14.4330  -21.6180   -2.1750 C.3   228  THR228      0.2028
    114  C        -14.0070  -22.7110   -3.1580 C.2   228  THR228      0.2642
    115  O        -13.2970  -22.4410   -4.1270 O.2   228  THR228     -0.2714
    116  CB       -13.4290  -21.5270   -1.0020 C.3   228  THR228      0.1808
    117  OG1      -13.5050  -22.7180   -0.2040 O.3   228  THR228     -0.2208
    118  CG2      -13.7080  -20.2970   -0.1380 C.3   228  THR228      0.0379
    119  N        -14.4340  -23.9470   -2.9230 N.am  229  PHE229     -0.1973
    120  CA       -14.0340  -25.0080   -3.8430 C.3   229  PHE229      0.1639
    121  C        -14.7480  -24.8910   -5.1850 C.2   229  PHE229      0.2290
    122  O        -14.1360  -25.1040   -6.2340 O.2   229  PHE229     -0.2864
    123  CB       -14.1510  -26.3940   -3.1960 C.3   229  PHE229      0.0560
    124  CG       -12.9420  -26.7520   -2.3800 C.ar  229  PHE229     -0.0200
    125  CD1      -12.6670  -26.0790   -1.1900 C.ar  229  PHE229     -0.0042
    126  CD2      -12.0430  -27.7110   -2.8300 C.ar  229  PHE229     -0.0042
    127  CE1      -11.5310  -26.3790   -0.4500 C.ar  229  PHE229     -0.0003
    128  CE2      -10.9050  -28.0180   -2.0960 C.ar  229  PHE229     -0.0003
    129  CZ       -10.6540  -27.3600   -0.9010 C.ar  229  PHE229     -0.0000
    130  N        -15.7930  -21.9750   -6.4920 N.3   231  GLY231     -0.1210
    131  CA       -15.2280  -20.7980   -7.1350 C.3   231  GLY231      0.1956
    132  C        -13.8110  -20.9920   -7.6460 C.2   231  GLY231      0.2611
    133  O        -13.5260  -20.7350   -8.8190 O.2   231  GLY231     -0.2717
    134  N        -12.9140  -21.4660   -6.7900 N.am  232  ALA232     -0.1979
    135  CA       -11.5370  -21.6910   -7.2060 C.3   232  ALA232      0.1597
    136  C        -11.4670  -22.7460   -8.3150 C.2   232  ALA232      0.2287
    137  O        -10.7460  -22.5830   -9.2990 O.2   232  ALA232     -0.2864
    138  CB       -10.6760  -22.0940   -6.0120 C.3   232  ALA232      0.0319
    139  N         -7.7230  -11.9830  -11.3740 N.3   384  GLN384     -0.1245
    140  CA        -6.7290  -12.9050  -10.8350 C.3   384  GLN384      0.1566
    141  C         -6.3130  -13.9500  -11.8550 C.2   384  GLN384      0.2260
    142  O         -5.3480  -14.6870  -11.6280 O.2   384  GLN384     -0.2867
    143  CB        -7.2330  -13.5780   -9.5520 C.3   384  GLN384      0.0367
    144  CG        -7.3280  -12.6300   -8.3570 C.3   384  GLN384      0.0905
    145  CD        -7.9310  -13.2900   -7.1360 C.2   384  GLN384      0.2608
    146  OE1       -7.6260  -14.4480   -6.8320 O.2   384  GLN384     -0.2717
    147  NE2       -8.8130  -12.5680   -6.4380 N.am  384  GLN384     -0.0878
@<TRIPOS>BOND
     1   141   142    2
     2   141   140    1
     3   139   140    1
     4    61    62    2
     5    61    60    1
     6    63    60    1
     7    63    64    1
     8    65    64    1
     9   140   143    1
    10    60    59    1
    11    59    55   am
    12    64    66    1
    13    53    54    1
    14    75    74    2
    15   143   144    1
    16    55    54    1
    17    55    56    2
    18    76    73    1
    19    76    77    1
    20   137   136    2
    21    74    73    1
    22    54    57    1
    23   133   132    2
    24    73    72    1
    25    77    78   ar
    26    77    79   ar
    27    72    69   am
    28   144   145    1
    29   136   135    1
    30    78    80   ar
    31    79    81   ar
    32    67    68    1
    33    57    58    1
    34   132   131    1
    35   132   134   am
    36    80    82   ar
    37    81    82   ar
    38   135   134    1
    39   135   138    1
    40   145   146    2
    41   145   147   am
    42   131   130    1
    43    69    68    1
    44    69    70    2
    45    68    71    1
    46   122   121    2
    47   121   120    1
    48   104   102   ar
    49   103   102   ar
    50   102   101    1
    51    15    13    1
    52   115   114    2
    53   120   123    1
    54   120   119    1
    55   108   107    2
    56    14    13    1
    57    13    10    1
    58   123   124    1
    59   114   119   am
    60   114   113    1
    61   101    98    1
    62   126   124   ar
    63   126   128   ar
    64   107   106    1
    65   107   112   am
    66   124   125   ar
    67   113   112    1
    68   113   116    1
    69    83    84    1
    70   128   129   ar
    71    98    97    1
    72    98    99    1
    73   110   109    1
    74   106   105    1
    75   106   109    1
    76    10     9    1
    77    10    11    1
    78    12    11    2
    79   125   127   ar
    80    84    87    1
    81    84    85    1
    82   109   111    1
    83   116   117    1
    84   116   118    1
    85    11    16   am
    86   129   127   ar
    87   100    99    2
    88    21    20    1
    89    93    95   ar
    90    93    90   ar
    91     8     7    1
    92    87    88    1
    93    95    96   ar
    94    85    86    2
    95    16    17    1
    96    90    88   ar
    97    90    92   ar
    98    88    89   ar
    99    20    17    1
   100    20    22    1
   101    17    18    1
   102    96    94   ar
   103     7     6    1
   104    51    52    1
   105    51    50    1
   106    44    42   am
   107    50    49    1
   108     6     5    1
   109    92    94   ar
   110    92    91   ar
   111    89    91   ar
   112     5     2    1
   113    18    19    2
   114    42    41    1
   115    42    43    2
   116    28    27    1
   117    41    38    1
   118    49    46    1
   119     2     1    1
   120     2     3    1
   121    36    34    1
   122    35    34    1
   123    26    25    2
   124    33    32    2
   125    31    34    1
   126    31    32    1
   127    31    30    1
   128     4     3    2
   129    27    29    1
   130    27    24    1
   131    45    46    1
   132    45    39   am
   133    46    47    1
   134    25    30   am
   135    25    24    1
   136    38    39    1
   137    38    37    1
   138    39    40    2
   139    24    23    1
   140    47    48    2
