@<TRIPOS>MOLECULE
tmp/4g4pA01.pdb
 123 117 0 0 0
SMALL
GASTEIGER

@<TRIPOS>ATOM
      1  N         22.2200   14.3440   33.8920 N.3    21  ASP21      -0.1239
      2  CA        22.9530   13.4000   33.0540 C.3    21  ASP21       0.1674
      3  C         23.2550   12.1290   33.8490 C.2    21  ASP21       0.2266
      4  O         23.1920   12.1230   35.0820 O.2    21  ASP21      -0.2867
      5  CB        24.2340   14.0860   32.5470 C.3    21  ASP21       0.1410
      6  CG        24.8490   13.4390   31.3110 C.2    21  ASP21       0.3668
      7  OD1       24.4090   12.3610   30.8350 O.co2  21  ASP21      -0.2456
      8  OD2       25.8340   14.0470   30.8170 O.co2  21  ASP21      -0.2456
      9  N         28.6740   12.6440   34.4720 N.3    24  PHE24      -0.1241
     10  CA        29.2650   13.8560   33.9200 C.3    24  PHE24       0.1605
     11  C         30.1030   14.4570   35.0410 C.2    24  PHE24       0.2264
     12  O         29.8370   15.5540   35.5260 O.2    24  PHE24      -0.2867
     13  CB        28.1610   14.8120   33.4550 C.3    24  PHE24       0.0534
     14  CG        28.6340   15.8930   32.5180 C.ar   24  PHE24      -0.0203
     15  CD1       29.2630   15.5560   31.3340 C.ar   24  PHE24      -0.0042
     16  CD2       28.4050   17.2390   32.7820 C.ar   24  PHE24      -0.0042
     17  CE1       29.6860   16.5360   30.4490 C.ar   24  PHE24      -0.0003
     18  CE2       28.8310   18.2120   31.8890 C.ar   24  PHE24      -0.0003
     19  CZ        29.4480   17.8490   30.7190 C.ar   24  PHE24      -0.0000
     20  N         21.8540   13.4690   29.0270 N.3    62  PHE62      -0.1241
     21  CA        21.7210   14.8690   28.6920 C.3    62  PHE62       0.1605
     22  C         20.6240   15.1510   27.6720 C.2    62  PHE62       0.2264
     23  O         19.7060   15.9060   27.9520 O.2    62  PHE62      -0.2867
     24  CB        23.0450   15.4920   28.2400 C.3    62  PHE62       0.0534
     25  CG        22.9050   16.9570   27.9630 C.ar   62  PHE62      -0.0203
     26  CD1       22.8240   17.8690   29.0070 C.ar   62  PHE62      -0.0042
     27  CD2       22.7250   17.4170   26.6690 C.ar   62  PHE62      -0.0042
     28  CE1       22.6250   19.2150   28.7500 C.ar   62  PHE62      -0.0003
     29  CE2       22.5170   18.7650   26.4160 C.ar   62  PHE62      -0.0003
     30  CZ        22.4660   19.6590   27.4590 C.ar   62  PHE62      -0.0000
     31  N         22.5420   19.7620   34.5750 N.3    79  ALA79      -0.1231
     32  CA        23.3270   18.7250   33.9010 C.3    79  ALA79       0.1694
     33  C         24.5130   19.3450   33.1920 C.2    79  ALA79       0.2593
     34  O         24.7930   19.0370   32.0300 O.2    79  ALA79      -0.2718
     35  CB        22.4650   17.9550   32.8840 C.3    79  ALA79       0.0304
     36  N         25.2190   20.2250   33.8860 N.am   80  GLY80      -0.1942
     37  CA        26.3080   20.9590   33.2640 C.3    80  GLY80       0.2014
     38  C         25.8710   21.5600   31.9430 C.2    80  GLY80       0.2639
     39  O         26.5670   21.4450   30.9260 O.2    80  GLY80      -0.2714
     40  N         24.7130   22.2070   31.9690 N.am   81  MET81      -0.1963
     41  CA        24.0520   22.6630   30.7450 C.3    81  MET81       0.1736
     42  C         24.4380   24.0720   30.3410 C.2    81  MET81       0.2617
     43  O         24.2040   25.0370   31.0730 O.2    81  MET81      -0.2715
     44  CB        22.5370   22.6050   30.9030 C.3    81  MET81       0.0427
     45  CG        21.8000   22.9070   29.6310 C.3    81  MET81       0.0599
     46  SD        20.0480   22.6200   29.8700 S.3    81  MET81      -0.1393
     47  CE        19.4300   22.8840   28.2110 C.3    81  MET81       0.0692
     48  N         24.9980   24.1900   29.1400 N.am   82  SER82      -0.1950
     49  CA        25.4180   25.4780   28.6150 C.3    82  SER82       0.1924
     50  C         24.2480   26.3750   28.2610 C.2    82  SER82       0.2314
     51  O         23.3260   25.9690   27.5490 O.2    82  SER82      -0.2863
     52  CB        26.2690   25.2700   27.3740 C.3    82  SER82       0.2116
     53  OG        27.4290   24.5160   27.6780 O.3    82  SER82      -0.2180
     54  N         19.3630   27.9900   22.6640 N.3    87  ARG87      -0.1245
     55  CA        18.5760   27.3020   23.6730 C.3    87  ARG87       0.1563
     56  C         17.6030   28.2300   24.3930 C.2    87  ARG87       0.2260
     57  O         16.5540   27.7740   24.8450 O.2    87  ARG87      -0.2867
     58  CB        19.4660   26.5850   24.6760 C.3    87  ARG87       0.0307
     59  CG        20.1480   25.3760   24.0910 C.3    87  ARG87       0.0489
     60  CD        21.2050   24.8200   25.0170 C.3    87  ARG87       0.2205
     61  NE        21.7350   23.5610   24.5060 N.pl3  87  ARG87      -0.0865
     62  CZ        22.6900   22.8700   25.1000 C.cat  87  ARG87       0.5346
     63  NH1       23.2570   23.3440   26.1980 N.pl3  87  ARG87       0.1354
     64  NH2       23.0910   21.7200   24.5880 N.pl3  87  ARG87       0.1354
     65  N         28.7850   13.3570   22.4890 N.3   127  LYS127     -0.1245
     66  CA        27.4780   12.9580   22.9840 C.3   127  LYS127      0.1561
     67  C         26.3780   13.6820   22.2260 C.2   127  LYS127      0.2260
     68  O         26.4590   14.8840   21.9640 O.2   127  LYS127     -0.2867
     69  CB        27.3690   13.2570   24.4760 C.3   127  LYS127      0.0271
     70  CG        28.1820   12.3230   25.3350 C.3   127  LYS127      0.0035
     71  CD        28.5530   12.9790   26.6770 C.3   127  LYS127      0.0206
     72  CE        27.3660   13.2200   27.5590 C.3   127  LYS127      0.1093
     73  NZ        27.7520   13.8550   28.8420 N.3   127  LYS127     -0.1314
     74  N         24.5970   17.7240   22.4170 N.3   130  THR130     -0.1203
     75  CA        25.4170   18.5840   23.2570 C.3   130  THR130      0.1994
     76  C         26.0980   19.6610   22.4530 C.2   130  THR130      0.2618
     77  O         26.1430   19.6090   21.2160 O.2   130  THR130     -0.2717
     78  CB        26.5360   17.7790   23.9570 C.3   130  THR130      0.1784
     79  OG1       27.4010   17.2060   22.9640 O.3   130  THR130     -0.2211
     80  CG2       25.9620   16.6740   24.8280 C.3   130  THR130      0.0376
     81  N         26.6690   20.6330   23.1600 N.am  131  GLU131     -0.1965
     82  CA        27.5120   21.6260   22.5210 C.3   131  GLU131      0.1733
     83  C         28.6880   21.0000   21.7750 C.2   131  GLU131      0.2617
     84  O         29.1060   21.5130   20.7200 O.2   131  GLU131     -0.2715
     85  CB        27.9830   22.6380   23.5560 C.3   131  GLU131      0.0429
     86  CG        26.8050   23.5110   24.0070 C.3   131  GLU131      0.1163
     87  CD        26.1710   24.2830   22.8270 C.2   131  GLU131      0.3649
     88  OE1       26.8940   25.1170   22.2640 O.co2 131  GLU131     -0.2457
     89  OE2       24.9650   24.0500   22.4520 O.co2 131  GLU131     -0.2457
     90  N         29.2350   19.9080   22.3070 N.am  132  SER132     -0.1950
     91  CA        30.3040   19.2130   21.6020 C.3   132  SER132      0.1924
     92  C         29.8050   18.6900   20.2530 C.2   132  SER132      0.2314
     93  O         30.5050   18.7820   19.2540 O.2   132  SER132     -0.2863
     94  CB        30.8530   18.0440   22.4280 C.3   132  SER132      0.2116
     95  OG        31.5540   18.5080   23.5770 O.3   132  SER132     -0.2180
     96  N         34.4250   16.8570   24.4650 N.3   170  ASP170     -0.1225
     97  CA        33.5330   16.9060   25.6280 C.3   170  ASP170      0.1805
     98  C         33.8550   18.1870   26.3690 C.2   170  ASP170      0.2597
     99  O         34.7700   18.9310   25.9940 O.2   170  ASP170     -0.2718
    100  CB        33.7490   15.6730   26.5300 C.3   170  ASP170      0.1424
    101  CG        32.5510   15.3730   27.4620 C.2   170  ASP170      0.3668
    102  OD1       31.5970   16.1850   27.5220 O.co2 170  ASP170     -0.2456
    103  OD2       32.5900   14.3160   28.1600 O.co2 170  ASP170     -0.2456
    104  N         33.1340   18.4740   27.4360 N.am  171  ASP171     -0.1974
    105  CA        33.3920   19.7230   28.1450 C.3   171  ASP171      0.1709
    106  C         34.7600   19.7530   28.8180 C.2   171  ASP171      0.2293
    107  O         35.2420   18.7530   29.3690 O.2   171  ASP171     -0.2864
    108  CB        32.2950   19.9820   29.1910 C.3   171  ASP171      0.1436
    109  CG        31.0210   20.5470   28.5890 C.2   171  ASP171      0.3671
    110  OD1       30.8590   20.5300   27.3460 O.co2 171  ASP171     -0.2456
    111  OD2       30.1430   20.9650   29.3760 O.co2 171  ASP171     -0.2456
    112  N         27.3460   27.4500   32.6140 N.3   197  TYR197     -0.1241
    113  CA        26.2770   26.5030   32.9150 C.3   197  TYR197      0.1605
    114  C         25.1480   27.2000   33.6620 C.2   197  TYR197      0.2264
    115  O         25.3930   28.0980   34.4850 O.2   197  TYR197     -0.2867
    116  CB        26.7760   25.3670   33.7870 C.3   197  TYR197      0.0534
    117  CG        27.8370   24.4530   33.2100 C.ar  197  TYR197     -0.0201
    118  CD1       28.0680   24.3510   31.8480 C.ar  197  TYR197     -0.0009
    119  CD2       28.5900   23.6460   34.0640 C.ar  197  TYR197     -0.0009
    120  CE1       29.0200   23.4760   31.3570 C.ar  197  TYR197      0.0417
    121  CE2       29.5450   22.7790   33.5880 C.ar  197  TYR197      0.0417
    122  CZ        29.7570   22.6930   32.2310 C.ar  197  TYR197      0.1957
    123  OH        30.7350   21.8250   31.7870 O.3   197  TYR197     -0.2866
@<TRIPOS>BOND
     1    93    92    2
     2    92    91    1
     3    84    83    2
     4    77    76    2
     5    91    90    1
     6    91    94    1
     7    83    90   am
     8    83    82    1
     9    68    67    2
    10    67    66    1
    11    88    87   ar
    12    74    75    1
    13    94    95    1
    14    89    87   ar
    15    76    81   am
    16    76    75    1
    17    65    66    1
    18    82    81    1
    19    82    85    1
    20    54    55    1
    21    87    86    1
    22    79    78    1
    23    66    69    1
    24    75    78    1
    25    85    86    1
    26    55    56    1
    27    55    58    1
    28    78    80    1
    29    59    58    1
    30    59    60    1
    31    56    57    2
    32    96    97    1
    33    69    70    1
    34    61    60    1
    35    61    62    2
    36    64    62    1
    37    62    63    1
    38    70    71    1
    39    97    98    1
    40    97   100    1
    41    99    98    2
    42    98   104   am
    43    29    27   ar
    44    29    30   ar
    45   100   101    1
    46    27    25   ar
    47    71    72    1
    48   110   109   ar
    49    52    53    1
    50    52    49    1
    51   104   105    1
    52    30    28   ar
    53   101   102   ar
    54   101   103   ar
    55    51    50    2
    56    72    73    1
    57    22    23    2
    58    22    21    1
    59    25    24    1
    60    25    26   ar
    61   105   106    1
    62   105   108    1
    63    47    46    1
    64    24    21    1
    65    50    49    1
    66   109   108    1
    67   109   111   ar
    68    49    48    1
    69    21    20    1
    70    28    26   ar
    71   106   107    2
    72    48    42   am
    73    45    46    1
    74    45    44    1
    75    42    41    1
    76    42    43    2
    77    17    19   ar
    78    17    15   ar
    79    19    18   ar
    80    41    44    1
    81    41    40    1
    82     8     6   ar
    83     7     6   ar
    84    39    38    2
    85     6     5    1
    86    15    14   ar
    87   120   118   ar
    88   120   122   ar
    89   123   122    1
    90   118   117   ar
    91    18    16   ar
    92    38    40   am
    93    38    37    1
    94    34    33    2
    95   122   121   ar
    96    14    16   ar
    97    14    13    1
    98     5     2    1
    99   112   113    1
   100    35    32    1
   101   113   114    1
   102   113   116    1
   103     2     3    1
   104     2     1    1
   105    33    36   am
   106    33    32    1
   107   117   116    1
   108   117   119   ar
   109    37    36    1
   110    13    10    1
   111   121   119   ar
   112   114   115    2
   113     3     4    2
   114    32    31    1
   115    10     9    1
   116    10    11    1
   117    11    12    2
