@<TRIPOS>MOLECULE
tmp/4g4vA00.pdb
 100 95 0 0 0
SMALL
GASTEIGER

@<TRIPOS>ATOM
      1  N         -9.5710   -2.6060   -2.2000 N.3    12  TYR12      -0.1227
      2  CA        -9.8180   -1.1870   -1.9820 C.3    12  TYR12       0.1736
      3  C        -11.2960   -0.8580   -1.7620 C.2    12  TYR12       0.2595
      4  O        -12.1630   -1.3010   -2.5130 O.2    12  TYR12      -0.2718
      5  CB        -9.2640   -0.3820   -3.1670 C.3    12  TYR12       0.0548
      6  CG        -9.5440    1.1040   -3.1160 C.ar   12  TYR12      -0.0200
      7  CD1      -10.6400    1.6500   -3.7830 C.ar   12  TYR12      -0.0009
      8  CD2       -8.6920    1.9680   -2.4340 C.ar   12  TYR12      -0.0009
      9  CE1      -10.8770    3.0250   -3.7790 C.ar   12  TYR12       0.0417
     10  CE2       -8.9180    3.3500   -2.4230 C.ar   12  TYR12       0.0417
     11  CZ       -10.0090    3.8650   -3.0990 C.ar   12  TYR12       0.1957
     12  OH       -10.2280    5.2150   -3.1090 O.3    12  TYR12      -0.2866
     13  N        -11.5580   -0.0800   -0.7130 N.am   13  ASP13      -0.1974
     14  CA       -12.9030    0.3590   -0.3480 C.3    13  ASP13       0.1709
     15  C        -13.9320   -0.7680   -0.2620 C.2    13  ASP13       0.2293
     16  O        -15.1330   -0.5330   -0.4240 O.2    13  ASP13      -0.2864
     17  CB       -13.3860    1.4200   -1.3450 C.3    13  ASP13       0.1436
     18  CG       -14.3200    2.4370   -0.7140 C.2    13  ASP13       0.3671
     19  OD1      -14.8590    3.2840   -1.4570 O.co2  13  ASP13      -0.2456
     20  OD2      -14.5100    2.3980    0.5240 O.co2  13  ASP13      -0.2456
     21  N         -7.5960   -0.3440    7.6780 N.3    46  THR46      -0.1203
     22  CA        -7.6290    0.1370    6.2970 C.3    46  THR46       0.1994
     23  C         -6.2390    0.6470    5.9270 C.2    46  THR46       0.2617
     24  O         -5.3540    0.7340    6.7800 O.2    46  THR46      -0.2717
     25  CB        -8.6080    1.3350    6.1250 C.3    46  THR46       0.1784
     26  OG1       -8.0580    2.4990    6.7620 O.3    46  THR46      -0.2211
     27  CG2       -9.9560    1.0270    6.7440 C.3    46  THR46       0.0376
     28  N         -6.0320    0.9640    4.6540 N.am   47  ASP47      -0.1973
     29  CA        -4.7580    1.5340    4.2700 C.3    47  ASP47       0.1709
     30  C         -4.9460    3.0420    4.5130 C.2    47  ASP47       0.2293
     31  O         -6.0680    3.4960    4.7540 O.2    47  ASP47      -0.2864
     32  CB        -4.3980    1.1860    2.8060 C.3    47  ASP47       0.1436
     33  CG        -5.3960    1.7160    1.7910 C.2    47  ASP47       0.3671
     34  OD1       -5.7040    0.9760    0.8280 O.co2  47  ASP47      -0.2456
     35  OD2       -5.8550    2.8690    1.9330 O.co2  47  ASP47      -0.2456
     36  N         -5.2530    5.6750    2.7460 N.3    49  ARG49      -0.1231
     37  CA        -6.0490    6.5150    1.8550 C.3    49  ARG49       0.1694
     38  C         -7.4390    6.8800    2.3890 C.2    49  ARG49       0.2592
     39  O         -8.1900    6.0170    2.8410 O.2    49  ARG49      -0.2718
     40  CB        -6.1690    5.8390    0.4830 C.3    49  ARG49       0.0321
     41  CG        -4.8370    5.7510   -0.2740 C.3    49  ARG49       0.0489
     42  CD        -4.9600    5.0000   -1.6060 C.3    49  ARG49       0.2205
     43  NE        -5.1790    3.5620   -1.4340 N.pl3  49  ARG49      -0.0865
     44  CZ        -5.2000    2.6780   -2.4310 C.cat  49  ARG49       0.5346
     45  NH1       -5.0190    3.0740   -3.6870 N.pl3  49  ARG49       0.1354
     46  NH2       -5.3870    1.3900   -2.1730 N.pl3  49  ARG49       0.1354
     47  N         -7.7770    8.1670    2.3230 N.am   50  GLY50      -0.1957
     48  CA        -9.0760    8.6220    2.7970 C.3    50  GLY50       0.1869
     49  C         -9.0170    9.2780    4.1640 C.2    50  GLY50       0.2309
     50  O         -7.9700    9.2850    4.8110 O.2    50  GLY50      -0.2863
     51  N        -13.7200    8.2570    7.5220 N.3    54  TYR54      -0.1227
     52  CA       -14.1430    7.3100    6.4990 C.3    54  TYR54       0.1736
     53  C        -13.5740    5.9200    6.7600 C.2    54  TYR54       0.2595
     54  O        -14.2770    4.9120    6.6370 O.2    54  TYR54      -0.2718
     55  CB       -13.6830    7.7610    5.1100 C.3    54  TYR54       0.0548
     56  CG       -14.2560    6.9030    4.0110 C.ar   54  TYR54      -0.0200
     57  CD1      -15.4700    7.2340    3.4120 C.ar   54  TYR54      -0.0009
     58  CD2      -13.6300    5.7140    3.6230 C.ar   54  TYR54      -0.0009
     59  CE1      -16.0530    6.4070    2.4630 C.ar   54  TYR54       0.0417
     60  CE2      -14.2060    4.8750    2.6690 C.ar   54  TYR54       0.0417
     61  CZ       -15.4210    5.2290    2.0970 C.ar   54  TYR54       0.1957
     62  OH       -16.0240    4.4070    1.1730 O.3    54  TYR54      -0.2866
     63  N        -12.2950    5.8720    7.1140 N.am   55  ASN55      -0.1974
     64  CA       -11.6480    4.5970    7.3600 C.3    55  ASN55       0.1688
     65  C        -12.0350    3.9380    8.6730 C.2    55  ASN55       0.2292
     66  O        -11.9880    2.7170    8.7820 O.2    55  ASN55      -0.2864
     67  CB       -10.1350    4.7490    7.2210 C.3    55  ASN55       0.1181
     68  CG        -9.7160    4.8820    5.7720 C.2    55  ASN55       0.2629
     69  OD1      -10.0770    4.0440    4.9430 O.2    55  ASN55      -0.2716
     70  ND2       -8.9620    5.9320    5.4540 N.am   55  ASN55      -0.0877
     71  N        -15.0320    2.1030    7.6280 N.3    58  LEU58      -0.1245
     72  CA       -14.6680    0.9960    6.7410 C.3    58  LEU58       0.1561
     73  C        -14.0390   -0.1380    7.5550 C.2    58  LEU58       0.2260
     74  O        -14.3330   -1.3180    7.3390 O.2    58  LEU58      -0.2867
     75  CB       -13.6910    1.4790    5.6610 C.3    58  LEU58       0.0270
     76  CG       -13.0390    0.4190    4.7510 C.3    58  LEU58       0.0019
     77  CD1      -14.1090   -0.4320    4.0870 C.3    58  LEU58       0.0001
     78  CD2      -12.1740    1.1130    3.7000 C.3    58  LEU58       0.0001
     79  N        -15.4480   -3.9910    7.9710 N.3    62  ARG62      -0.1245
     80  CA       -14.6070   -5.1600    7.7290 C.3    62  ARG62       0.1563
     81  C        -14.6340   -6.1180    8.9220 C.2    62  ARG62       0.2260
     82  O        -14.7990   -7.3290    8.7500 O.2    62  ARG62      -0.2867
     83  CB       -13.1700   -4.7220    7.4110 C.3    62  ARG62       0.0307
     84  CG       -13.0070   -4.2600    5.9490 C.3    62  ARG62       0.0489
     85  CD       -11.6910   -3.5570    5.6420 C.3    62  ARG62       0.2205
     86  NE       -11.5640   -3.3110    4.2000 N.pl3  62  ARG62      -0.0865
     87  CZ       -10.7630   -2.4000    3.6480 C.cat  62  ARG62       0.5346
     88  NH1       -9.9960   -1.6300    4.4040 N.pl3  62  ARG62       0.1354
     89  NH2      -10.7400   -2.2490    2.3270 N.pl3  62  ARG62       0.1354
     90  N         -5.0460   -3.4020    4.4400 N.3   104  ARG104     -0.1245
     91  CA        -6.4930   -3.6030    4.3260 C.3   104  ARG104      0.1563
     92  C         -6.7460   -4.9850    4.9270 C.2   104  ARG104      0.2260
     93  O         -6.6750   -5.9920    4.2290 O.2   104  ARG104     -0.2867
     94  CB        -6.9360   -3.5790    2.8540 C.3   104  ARG104      0.0307
     95  CG        -6.7530   -2.2190    2.1570 C.3   104  ARG104      0.0489
     96  CD        -7.4620   -2.1820    0.8060 C.3   104  ARG104      0.2205
     97  NE        -6.8760   -3.0970   -0.1740 N.pl3 104  ARG104     -0.0865
     98  CZ        -5.7700   -2.8420   -0.8700 C.cat 104  ARG104      0.5346
     99  NH1       -5.1250   -1.6950   -0.7040 N.pl3 104  ARG104      0.1354
    100  NH2       -5.3020   -3.7390   -1.7260 N.pl3 104  ARG104      0.1354
@<TRIPOS>BOND
     1     7     9   ar
     2     7     6   ar
     3     9    11   ar
     4    45    44    1
     5     5     6    1
     6     5     2    1
     7     6     8   ar
     8    12    11    1
     9    11    10   ar
    10     4     3    2
    11     8    10   ar
    12    44    46    1
    13    44    43    2
    14     1     2    1
    15     2     3    1
    16     3    13   am
    17   100    98    1
    18    42    43    1
    19    42    41    1
    20    19    18   ar
    21    17    18    1
    22    17    14    1
    23    98    99    1
    24    98    97    2
    25    18    20   ar
    26    13    14    1
    27    16    15    2
    28    14    15    1
    29    41    40    1
    30    97    96    1
    31    40    37    1
    32    96    95    1
    33    34    33   ar
    34    62    61    1
    35    33    35   ar
    36    33    32    1
    37    37    38    1
    38    37    36    1
    39    61    59   ar
    40    61    60   ar
    41    95    94    1
    42    47    38   am
    43    47    48    1
    44    89    87    1
    45    38    39    2
    46    59    57   ar
    47    60    58   ar
    48    48    49    1
    49    32    29    1
    50    94    91    1
    51    57    56   ar
    52    58    56   ar
    53    87    86    2
    54    87    88    1
    55    78    76    1
    56    56    55    1
    57    77    76    1
    58    49    50    2
    59    86    85    1
    60    93    92    2
    61    29    30    1
    62    29    28    1
    63    91    90    1
    64    91    92    1
    65    30    31    2
    66    28    23   am
    67    76    75    1
    68    69    68    2
    69    55    52    1
    70    70    68   am
    71    85    84    1
    72    75    72    1
    73    68    67    1
    74    23    22    1
    75    23    24    2
    76    84    83    1
    77    25    22    1
    78    25    27    1
    79    25    26    1
    80    22    21    1
    81    52    53    1
    82    52    51    1
    83    54    53    2
    84    72    73    1
    85    72    71    1
    86    53    63   am
    87    63    64    1
    88    67    64    1
    89    74    73    2
    90    64    65    1
    91    83    80    1
    92    80    79    1
    93    80    81    1
    94    65    66    2
    95    82    81    2
