@<TRIPOS>MOLECULE
tmp/4g51C00.pdb
 208 199 0 0 0
SMALL
GASTEIGER

@<TRIPOS>ATOM
      1  N        -17.8010    8.9160    2.8530 N.3    32  MET32      -0.1245
      2  CA       -16.6900    8.9390    3.7850 C.3    32  MET32       0.1570
      3  C        -17.0960    9.6200    5.0890 C.2    32  MET32       0.2261
      4  O        -16.8970    9.0360    6.1520 O.2    32  MET32      -0.2867
      5  CB       -15.4850    9.6380    3.1530 C.3    32  MET32       0.0387
      6  CG       -14.1810    8.9110    3.4390 C.3    32  MET32       0.0595
      7  SD       -12.8150   10.0450    3.7310 S.3    32  MET32      -0.1393
      8  CE       -13.5620   11.6000    3.2760 C.3    32  MET32       0.0692
      9  N        -13.8500   12.0080    9.9940 N.3    39  THR39      -0.1218
     10  CA       -12.8150   12.4110    9.0400 C.3    39  THR39       0.1862
     11  C        -13.0940   13.8540    8.5980 C.2    39  THR39       0.2287
     12  O        -12.3800   14.4370    7.7880 O.2    39  THR39      -0.2866
     13  CB       -12.6950   11.5110    7.8020 C.3    39  THR39       0.1770
     14  OG1      -13.8130   11.7080    6.9310 O.3    39  THR39      -0.2211
     15  CG2      -12.7360   10.0320    8.1600 C.3    39  THR39       0.0375
     16  N        -10.6310   17.2620    9.2780 N.3    42  TYR42      -0.1227
     17  CA        -9.7780   18.0180    8.3650 C.3    42  TYR42       0.1736
     18  C        -10.5840   19.0210    7.5610 C.2    42  TYR42       0.2595
     19  O        -10.1090   20.0810    7.1570 O.2    42  TYR42      -0.2718
     20  CB        -9.0340   17.0860    7.3990 C.3    42  TYR42       0.0548
     21  CG        -8.3790   15.9230    8.1030 C.ar   42  TYR42      -0.0200
     22  CD1       -7.1190   16.0360    8.6750 C.ar   42  TYR42      -0.0009
     23  CD2       -9.0490   14.7080    8.1860 C.ar   42  TYR42      -0.0009
     24  CE1       -6.5390   14.9470    9.3180 C.ar   42  TYR42       0.0417
     25  CE2       -8.4760   13.6280    8.8250 C.ar   42  TYR42       0.0417
     26  CZ        -7.2230   13.7550    9.3870 C.ar   42  TYR42       0.1957
     27  OH        -6.6750   12.6660   10.0180 O.3    42  TYR42      -0.2866
     28  N        -11.8390   18.6610    7.3180 N.am   43  PHE43      -0.1976
     29  CA       -12.6550   19.4770    6.4170 C.3    43  PHE43       0.1639
     30  C        -13.3580   20.6150    7.1310 C.2    43  PHE43       0.2290
     31  O        -13.8900   21.5300    6.4900 O.2    43  PHE43      -0.2864
     32  CB       -13.6430   18.5420    5.7160 C.3    43  PHE43       0.0560
     33  CG       -12.9880   17.5590    4.7550 C.ar   43  PHE43      -0.0200
     34  CD1      -12.5380   17.9800    3.5140 C.ar   43  PHE43      -0.0042
     35  CD2      -12.8320   16.2260    5.1020 C.ar   43  PHE43      -0.0042
     36  CE1      -11.9470   17.1050    2.6210 C.ar   43  PHE43      -0.0003
     37  CE2      -12.2420   15.3440    4.2120 C.ar   43  PHE43      -0.0003
     38  CZ       -11.8000   15.7760    2.9700 C.ar   43  PHE43      -0.0000
     39  N        -13.1830   23.4660    7.9940 N.3    45  HIS45      -0.1226
     40  CA       -13.1610   24.8190    7.4660 C.3    45  HIS45       0.1752
     41  C        -14.0820   24.9770    6.2620 C.2    45  HIS45       0.2596
     42  O        -14.1180   26.0270    5.6180 O.2    45  HIS45      -0.2718
     43  CB       -11.7250   25.1900    7.0710 C.3    45  HIS45       0.0759
     44  CG       -11.0250   24.0450    6.4060 C.ar   45  HIS45       0.0818
     45  ND1      -10.9000   23.9380    5.0410 N.ar   45  HIS45      -0.2268
     46  CD2      -10.4150   22.9530    6.9220 C.ar   45  HIS45       0.1154
     47  CE1      -10.2420   22.8320    4.7380 C.ar   45  HIS45       0.1986
     48  NE2       -9.9350   22.2150    5.8670 N.ar   45  HIS45      -0.2212
     49  N        -14.8450   23.9400    5.9330 N.am   46  TRP46      -0.1976
     50  CA       -15.8080   23.9890    4.8430 C.3    46  TRP46       0.1640
     51  C        -17.2430   24.0250    5.3860 C.2    46  TRP46       0.2290
     52  O        -17.7310   22.9920    5.8540 O.2    46  TRP46      -0.2864
     53  CB       -15.7070   22.7930    3.9090 C.3    46  TRP46       0.0576
     54  CG       -14.4140   22.4750    3.2520 C.ar   46  TRP46       0.0006
     55  CD1      -13.2080   23.1030    3.3200 C.ar   46  TRP46       0.0946
     56  CD2      -14.2220   21.3560    2.3690 C.ar   46  TRP46       0.0152
     57  NE1      -12.2780   22.4510    2.5390 N.ar   46  TRP46      -0.2442
     58  CE2      -12.8820   21.3760    1.9470 C.ar   46  TRP46       0.0810
     59  CE3      -15.0730   20.3490    1.9110 C.ar   46  TRP46       0.0012
     60  CZ2      -12.3820   20.4140    1.0770 C.ar   46  TRP46       0.0191
     61  CZ3      -14.5710   19.3990    1.0480 C.ar   46  TRP46       0.0001
     62  CH2      -13.2320   19.4390    0.6390 C.ar   46  TRP46       0.0015
     63  N        -14.7710   18.7190   -4.7020 N.3    59  HIS59      -0.1241
     64  CA       -13.5310   18.0270   -4.3590 C.3    59  HIS59       0.1621
     65  C        -13.4990   16.6260   -4.9600 C.2    59  HIS59       0.2264
     66  O        -12.4390   16.1770   -5.3910 O.2    59  HIS59      -0.2867
     67  CB       -13.3530   17.9510   -2.8410 C.3    59  HIS59       0.0745
     68  CG       -11.9760   17.5130   -2.4520 C.ar   59  HIS59       0.0817
     69  ND1      -10.8420   18.0960   -2.9770 N.ar   59  HIS59      -0.2268
     70  CD2      -11.5460   16.5580   -1.5980 C.ar   59  HIS59       0.1154
     71  CE1       -9.7730   17.5150   -2.4570 C.ar   59  HIS59       0.1986
     72  NE2      -10.1750   16.5770   -1.6180 N.ar   59  HIS59      -0.2212
     73  N        -11.3500   16.2350   -7.9810 N.3    62  LYS62      -0.1231
     74  CA        -9.9130   16.3310   -7.7660 C.3    62  LYS62       0.1693
     75  C         -9.3670   15.3040   -6.7910 C.2    62  LYS62       0.2591
     76  O         -8.3750   15.5570   -6.1010 O.2    62  LYS62      -0.2718
     77  CB        -9.5820   17.7450   -7.2590 C.3    62  LYS62       0.0285
     78  CG       -10.4740   18.8050   -7.8960 C.3    62  LYS62       0.0035
     79  CD       -10.2260   20.1510   -7.2280 C.3    62  LYS62       0.0206
     80  CE        -8.7590   20.5380   -7.3400 C.3    62  LYS62       0.1093
     81  NZ        -8.5920   22.0150   -7.4460 N.3    62  LYS62      -0.1314
     82  N         -9.9910   14.1360   -6.7260 N.am   63  VAL63      -0.1980
     83  CA        -9.5730   13.0520   -5.8590 C.3    63  VAL63       0.1595
     84  C         -9.6370   11.7350   -6.6270 C.2    63  VAL63       0.2287
     85  O         -8.8530   10.8400   -6.3430 O.2    63  VAL63      -0.2864
     86  CB       -10.4400   12.9020   -4.5950 C.3    63  VAL63       0.0276
     87  CG1      -10.4960   11.4430   -4.1580 C.3    63  VAL63       0.0022
     88  CG2       -9.8950   13.7940   -3.4930 C.3    63  VAL63       0.0022
     89  N         -7.2420   12.0820   -9.0400 N.3    66  GLY66      -0.1210
     90  CA        -6.0700   11.7480   -8.2380 C.3    66  GLY66       0.1956
     91  C         -5.8650   10.2380   -8.3020 C.2    66  GLY66       0.2611
     92  O         -4.7460    9.7310   -8.2520 O.2    66  GLY66      -0.2717
     93  N         -6.9970    9.5540   -8.4220 N.am   67  ILE67      -0.1979
     94  CA        -7.0370    8.1050   -8.5860 C.3    67  ILE67       0.1595
     95  C         -6.8100    7.7700  -10.0560 C.2    67  ILE67       0.2287
     96  O         -6.4630    6.6550  -10.4270 O.2    67  ILE67      -0.2864
     97  CB        -8.3670    7.5260   -8.0810 C.3    67  ILE67       0.0276
     98  CG1       -8.3960    7.3010   -6.5660 C.3    67  ILE67       0.0022
     99  CG2       -8.7350    6.2500   -8.8220 C.3    67  ILE67       0.0022
    100  CD1       -7.2470    6.4860   -6.0160 C.3    67  ILE67       0.0001
    101  N          1.6370   14.4230   -4.3210 N.3    84  LEU84      -0.1245
    102  CA         0.4980   14.3060   -3.4180 C.3    84  LEU84       0.1561
    103  C          1.0160   14.1160   -1.9930 C.2    84  LEU84       0.2260
    104  O          0.5650   14.7790   -1.0610 O.2    84  LEU84      -0.2867
    105  CB        -0.4200   13.1550   -3.8200 C.3    84  LEU84       0.0270
    106  CG        -1.4990   13.4820   -4.8570 C.3    84  LEU84       0.0019
    107  CD1       -2.5110   12.3500   -4.9540 C.3    84  LEU84       0.0001
    108  CD2       -2.1790   14.8040   -4.5300 C.3    84  LEU84       0.0001
    109  N          1.6950   17.1570   -0.4820 N.3    87  GLN87      -0.1231
    110  CA         0.3640   17.7050   -0.2640 C.3    87  GLN87       0.1698
    111  C         -0.2670   17.1850    1.0120 C.2    87  GLN87       0.2592
    112  O         -0.6820   17.9240    1.9050 O.2    87  GLN87      -0.2718
    113  CB        -0.5040   17.3610   -1.4810 C.3    87  GLN87       0.0381
    114  CG        -1.8680   18.0220   -1.5170 C.3    87  GLN87       0.0905
    115  CD        -2.3040   18.4870   -2.8900 C.2    87  GLN87       0.2608
    116  OE1       -1.6960   18.1630   -3.9120 O.2    87  GLN87      -0.2717
    117  NE2       -3.3780   19.2690   -2.9350 N.am   87  GLN87      -0.0878
    118  N         -0.3850   15.8640    1.1720 N.am   88  HIS88      -0.1976
    119  CA        -1.1350   15.4020    2.3430 C.3    88  HIS88       0.1656
    120  C         -0.2550   15.2390    3.5760 C.2    88  HIS88       0.2291
    121  O         -0.7930   15.1150    4.6780 O.2    88  HIS88      -0.2864
    122  CB        -1.8370   14.0860    2.0060 C.3    88  HIS88       0.0771
    123  CG        -3.1350   14.2140    1.2700 C.ar   88  HIS88       0.0820
    124  ND1       -3.2090   14.3460   -0.1000 N.ar   88  HIS88      -0.2267
    125  CD2       -4.4170   14.2240    1.7060 C.ar   88  HIS88       0.1154
    126  CE1       -4.4750   14.4360   -0.4720 C.ar   88  HIS88       0.1986
    127  NE2       -5.2350   14.3620    0.6080 N.ar   88  HIS88      -0.2212
    128  N         -1.9720   19.4400    4.4830 N.3    92  LEU92      -0.1245
    129  CA        -3.1120   18.8910    5.1950 C.3    92  LEU92       0.1561
    130  C         -2.7700   17.5500    5.8480 C.2    92  LEU92       0.2260
    131  O         -3.4370   16.5650    5.5220 O.2    92  LEU92      -0.2867
    132  CB        -4.2980   18.6730    4.2560 C.3    92  LEU92       0.0270
    133  CG        -4.1140   19.1320    2.8110 C.3    92  LEU92       0.0019
    134  CD1       -4.5510   18.0540    1.8350 C.3    92  LEU92       0.0001
    135  CD2       -4.8770   20.4280    2.5800 C.3    92  LEU92       0.0001
    136  N         -2.7090   14.5920    6.8680 N.3    94  VAL94      -0.1245
    137  CA        -3.7380   13.5870    6.9690 C.3    94  VAL94       0.1561
    138  C         -3.2280   12.2540    7.4970 C.2    94  VAL94       0.2260
    139  O         -2.3560   11.6160    6.9150 O.2    94  VAL94      -0.2867
    140  CB        -4.3810   13.2760    5.6000 C.3    94  VAL94       0.0252
    141  CG1       -4.9580   11.8610    5.6150 C.3    94  VAL94       0.0019
    142  CG2       -5.4240   14.3240    5.2680 C.3    94  VAL94       0.0019
    143  N         -6.7360    6.9170    7.6020 N.3    98  ASN98      -0.1225
    144  CA        -7.9270    7.4040    6.9370 C.3    98  ASN98       0.1785
    145  C         -8.0040    7.0270    5.4660 C.2    98  ASN98       0.2597
    146  O         -9.1190    7.0050    4.9370 O.2    98  ASN98      -0.2718
    147  CB        -7.9830    8.9360    7.0520 C.3    98  ASN98       0.1169
    148  CG        -8.6510    9.3400    8.3560 C.2    98  ASN98       0.2627
    149  OD1       -9.8550    9.1200    8.5010 O.2    98  ASN98      -0.2716
    150  ND2       -7.8790    9.9080    9.2720 N.am   98  ASN98      -0.0877
    151  N         -6.8780    6.7460    4.8110 N.am   99  PHE99      -0.1976
    152  CA        -6.9250    6.4000    3.3880 C.3    99  PHE99       0.1639
    153  C         -7.6330    5.0610    3.2150 C.2    99  PHE99       0.2290
    154  O         -8.3390    4.8440    2.2300 O.2    99  PHE99      -0.2864
    155  CB        -5.5380    6.3590    2.7500 C.3    99  PHE99       0.0560
    156  CG        -4.7550    7.6590    2.8720 C.ar   99  PHE99      -0.0200
    157  CD1       -5.3060    8.8620    2.4760 C.ar   99  PHE99      -0.0042
    158  CD2       -3.4670    7.6580    3.3910 C.ar   99  PHE99      -0.0042
    159  CE1       -4.5930   10.0440    2.5960 C.ar   99  PHE99      -0.0003
    160  CE2       -2.7490    8.8290    3.5200 C.ar   99  PHE99      -0.0003
    161  CZ        -3.3150   10.0300    3.1240 C.ar   99  PHE99      -0.0000
    162  N        -11.3440    5.7390    3.0560 N.3   102  LEU102     -0.1231
    163  CA       -11.6980    6.3000    1.7590 C.3   102  LEU102      0.1693
    164  C        -11.7550    5.2230    0.6770 C.2   102  LEU102      0.2592
    165  O        -12.7100    5.2470   -0.0980 O.2   102  LEU102     -0.2718
    166  CB       -10.7210    7.3910    1.2870 C.3   102  LEU102      0.0284
    167  CG       -11.0360    8.0070   -0.0790 C.3   102  LEU102      0.0019
    168  CD1      -12.5250    8.3020   -0.2190 C.3   102  LEU102      0.0001
    169  CD2      -10.2360    9.2770   -0.3060 C.3   102  LEU102      0.0001
    170  N        -10.7550    4.3500    0.6520 N.am  103  ASN103     -0.1974
    171  CA       -10.6920    3.3220   -0.3770 C.3   103  ASN103      0.1688
    172  C        -12.0140    2.5510   -0.3100 C.2   103  ASN103      0.2292
    173  O        -12.7420    2.4380   -1.2860 O.2   103  ASN103     -0.2864
    174  CB        -9.5380    2.3540   -0.2150 C.3   103  ASN103      0.1181
    175  CG        -8.1440    2.8780   -0.4690 C.2   103  ASN103      0.2629
    176  OD1       -7.9310    4.0040   -0.9210 O.2   103  ASN103     -0.2716
    177  ND2       -7.1480    2.0390   -0.1790 N.am  103  ASN103     -0.0877
    178  N        -14.7750    3.7920   -1.7990 N.3   106  ILE106     -0.1245
    179  CA       -14.5350    3.8720   -3.2340 C.3   106  ILE106      0.1561
    180  C        -14.8060    2.5140   -3.8710 C.2   106  ILE106      0.2260
    181  O        -15.0850    2.4000   -5.0630 O.2   106  ILE106     -0.2867
    182  CB       -13.1040    4.2860   -3.6160 C.3   106  ILE106      0.0252
    183  CG1      -12.9780    5.6610   -4.2730 C.3   106  ILE106      0.0019
    184  CG2      -12.4720    3.2410   -4.5230 C.3   106  ILE106      0.0019
    185  CD1      -12.8110    6.7990   -3.2900 C.3   106  ILE106      0.0001
    186  N         -5.3170   -0.0480   -4.4420 N.3   130  LEU130     -0.1245
    187  CA        -5.7590    1.0240   -3.5440 C.3   130  LEU130      0.1561
    188  C         -4.7520    1.1550   -2.4010 C.2   130  LEU130      0.2260
    189  O         -4.3450    2.2790   -2.0940 O.2   130  LEU130     -0.2867
    190  CB        -7.1570    0.7980   -2.9910 C.3   130  LEU130      0.0270
    191  CG        -8.3540    1.0510   -3.8950 C.3   130  LEU130      0.0019
    192  CD1       -9.0340    2.3850   -3.6060 C.3   130  LEU130      0.0001
    193  CD2       -7.9510    1.0330   -5.3580 C.3   130  LEU130      0.0001
    194  N         -1.8510    2.8420   -3.6770 N.3   133  VAL133     -0.1245
    195  CA        -2.0380    4.2920   -3.6560 C.3   133  VAL133      0.1561
    196  C         -1.9090    4.8620   -2.2550 C.2   133  VAL133      0.2260
    197  O         -1.6280    6.0360   -2.0080 O.2   133  VAL133     -0.2867
    198  CB        -3.4220    4.6530   -4.2330 C.3   133  VAL133      0.0252
    199  CG1       -3.4740    6.0940   -4.7080 C.3   133  VAL133      0.0019
    200  CG2       -3.7660    3.7170   -5.3790 C.3   133  VAL133      0.0019
    201  N          1.2750    7.7430   -0.9400 N.3   137  LEU137     -0.1245
    202  CA         0.8130    8.9080   -0.1920 C.3   137  LEU137      0.1561
    203  C          1.5930    9.0350    1.1110 C.2   137  LEU137      0.2260
    204  O          1.9920   10.1170    1.5380 O.2   137  LEU137     -0.2867
    205  CB        -0.6930    8.7600    0.0370 C.3   137  LEU137      0.0270
    206  CG        -1.4870    8.7310   -1.2760 C.3   137  LEU137      0.0019
    207  CD1       -2.9590    8.4820   -1.0070 C.3   137  LEU137      0.0001
    208  CD2       -1.2760   10.0280   -2.0360 C.3   137  LEU137      0.0001
@<TRIPOS>BOND
     1    96    95    2
     2    95    94    1
     3    89    90    1
     4    99    97    1
     5    94    93    1
     6    94    97    1
     7    93    91   am
     8    91    92    2
     9    91    90    1
    10    97    98    1
    11    73    74    1
    12    78    77    1
    13    78    79    1
    14    74    77    1
    15    74    75    1
    16    81    80    1
    17    80    79    1
    18    75    82   am
    19    75    76    2
    20    82    83    1
    21    84    85    2
    22    84    83    1
    23    98   100    1
    24    83    86    1
    25    66    65    2
    26   200   198    1
    27   193   191    1
    28   181   180    2
    29    65    64    1
    30   107   106    1
    31   106   108    1
    32   106   105    1
    33   199   198    1
    34    63    64    1
    35    86    87    1
    36    86    88    1
    37   184   182    1
    38   186   187    1
    39    64    67    1
    40   101   102    1
    41   183   182    1
    42   183   185    1
    43   198   195    1
    44   116   115    2
    45   191   192    1
    46   191   190    1
    47   180   179    1
    48   105   102    1
    49   194   195    1
    50   195   196    1
    51   182   179    1
    52   187   190    1
    53   187   188    1
    54   102   103    1
    55   179   178    1
    56    69    71   ar
    57    69    68   ar
    58   117   115   am
    59   115   114    1
    60    67    68    1
    61    71    72   ar
    62    68    70   ar
    63   188   189    2
    64   196   197    2
    65   208   206    1
    66   103   104    2
    67    72    70   ar
    68   114   113    1
    69   113   110    1
    70   173   172    2
    71   206   207    1
    72   206   205    1
    73   201   202    1
    74   176   175    2
    75   109   110    1
    76   126   124   ar
    77   126   127   ar
    78   175   174    1
    79   175   177   am
    80   171   172    1
    81   171   174    1
    82   171   170    1
    83   169   167    1
    84   110   111    1
    85   168   167    1
    86   202   205    1
    87   202   203    1
    88   124   123   ar
    89   165   164    2
    90   167   166    1
    91   127   125   ar
    92    62    61   ar
    93    62    60   ar
    94   170   164   am
    95   164   163    1
    96   111   118   am
    97   111   112    2
    98    61    59   ar
    99    60    58   ar
   100   203   204    2
   101   118   119    1
   102   123   125   ar
   103   123   122    1
   104   166   163    1
   105   163   162    1
   106   134   133    1
   107    59    56   ar
   108    58    56   ar
   109    58    57   ar
   110   122   119    1
   111   154   153    2
   112   119   120    1
   113    56    54   ar
   114   157   159   ar
   115   157   156   ar
   116    57    55   ar
   117   135   133    1
   118   159   161   ar
   119    36    38   ar
   120    36    34   ar
   121   155   156    1
   122   155   152    1
   123   133   132    1
   124     1     2    1
   125   156   158   ar
   126    38    37   ar
   127   161   160   ar
   128     5     6    1
   129     5     2    1
   130   153   152    1
   131    54    55   ar
   132    54    53    1
   133     8     7    1
   134   152   151    1
   135   158   160   ar
   136     6     7    1
   137    34    33   ar
   138   120   121    2
   139     2     3    1
   140    53    50    1
   141    37    35   ar
   142   132   129    1
   143   128   129    1
   144    47    45   ar
   145    47    48   ar
   146    33    35   ar
   147    33    32    1
   148   151   145   am
   149    50    51    1
   150    50    49    1
   151   146   145    2
   152    45    44   ar
   153     3     4    2
   154   129   130    1
   155   142   140    1
   156    51    52    2
   157   145   144    1
   158   131   130    2
   159   140   141    1
   160   140   137    1
   161    42    41    2
   162    32    29    1
   163    48    46   ar
   164    49    41   am
   165    41    40    1
   166    44    46   ar
   167    44    43    1
   168    29    30    1
   169    29    28    1
   170    31    30    2
   171   136   137    1
   172   139   138    2
   173    14    13    1
   174   144   147    1
   175   144   143    1
   176   137   138    1
   177   147   148    1
   178    43    40    1
   179    19    18    2
   180    28    18   am
   181    20    21    1
   182    20    17    1
   183    40    39    1
   184    18    17    1
   185    12    11    2
   186    13    15    1
   187    13    10    1
   188    21    23   ar
   189    21    22   ar
   190    23    25   ar
   191   148   149    2
   192   148   150   am
   193    17    16    1
   194    11    10    1
   195    22    24   ar
   196    25    26   ar
   197    10     9    1
   198    24    26   ar
   199    26    27    1
