@<TRIPOS>MOLECULE
tmp/4g55A02.pdb
 108 101 0 0 0
SMALL
GASTEIGER

@<TRIPOS>ATOM
      1  N         52.0540   -0.7380   20.3780 N.3    51  VAL51      -0.1245
      2  CA        50.6540   -0.7020   19.8690 C.3    51  VAL51       0.1561
      3  C         49.7860   -0.0480   20.9480 C.2    51  VAL51       0.2260
      4  O         49.8730   -0.3800   22.1660 O.2    51  VAL51      -0.2867
      5  CB        50.1560   -2.0590   19.4750 C.3    51  VAL51       0.0252
      6  CG1       48.7440   -1.9610   18.9090 C.3    51  VAL51       0.0019
      7  CG2       51.0620   -2.7260   18.4320 C.3    51  VAL51       0.0019
      8  N         45.8940    0.9770   21.9920 N.3    53  ILE53      -0.1245
      9  CA        44.4150    0.7670   21.8410 C.3    53  ILE53       0.1561
     10  C         43.6420    1.8530   22.6050 C.2    53  ILE53       0.2260
     11  O         43.7460    1.9860   23.8430 O.2    53  ILE53      -0.2867
     12  CB        43.9750   -0.6350   22.2950 C.3    53  ILE53       0.0252
     13  CG1       44.7720   -1.6960   21.5120 C.3    53  ILE53       0.0019
     14  CG2       42.4970   -0.7940   22.0330 C.3    53  ILE53       0.0019
     15  CD1       44.6850   -3.1030   22.1080 C.3    53  ILE53       0.0001
     16  N         45.5040    2.1960   26.1220 N.3    63  ILE63      -0.1245
     17  CA        46.4280    1.1610   26.5910 C.3    63  ILE63       0.1561
     18  C         47.5550    0.9920   25.6120 C.2    63  ILE63       0.2260
     19  O         47.3260    0.6990   24.4380 O.2    63  ILE63      -0.2867
     20  CB        45.7130   -0.1690   26.8070 C.3    63  ILE63       0.0252
     21  CG1       44.5800    0.0050   27.8460 C.3    63  ILE63       0.0019
     22  CG2       46.7040   -1.2250   27.2680 C.3    63  ILE63       0.0019
     23  CD1       44.9900    0.6120   29.1850 C.3    63  ILE63       0.0001
     24  N         51.3010   -0.8590   24.6850 N.3    65  ARG65      -0.1231
     25  CA        52.1810   -2.0040   24.9930 C.3    65  ARG65       0.1679
     26  C         53.2140   -2.2470   23.9580 C.2    65  ARG65       0.2434
     27  O         53.0330   -1.9260   22.7560 O.2    65  ARG65      -0.2733
     28  CB        51.3510   -3.2650   25.2390 C.3    65  ARG65       0.0321
     29  CG        50.4900   -3.2720   26.5100 C.3    65  ARG65       0.0489
     30  CD        51.2930   -3.2630   27.8470 C.3    65  ARG65       0.2205
     31  NE        52.1900   -4.4260   27.9840 N.pl3  65  ARG65      -0.0865
     32  CZ        53.4130   -4.4300   28.5270 C.cat  65  ARG65       0.5346
     33  NH1       53.9400   -3.3060   29.0280 N.pl3  65  ARG65       0.1354
     34  NH2       54.1450   -5.5450   28.5330 N.pl3  65  ARG65       0.1354
     35  N         54.3310   -2.8900   24.3620 N.am   66  PRO66      -0.2718
     36  CA        55.3320   -3.2280   23.3960 C.3    66  PRO66       0.1535
     37  C         54.9210   -4.4710   22.6950 C.2    66  PRO66       0.2598
     38  O         54.9780   -5.5630   23.2450 O.2    66  PRO66      -0.2715
     39  CB        56.6270   -3.3930   24.2190 C.3    66  PRO66       0.0310
     40  CG        56.1280   -3.6780   25.5790 C.3    66  PRO66       0.0237
     41  CD        54.7850   -3.0690   25.7410 C.3    66  PRO66       0.0939
     42  N         54.5480   -4.3180   21.4520 N.am   67  ILE67      -0.1978
     43  CA        54.0440   -5.3950   20.6560 C.3    67  ILE67       0.1596
     44  C         54.5550   -5.1840   19.2730 C.2    67  ILE67       0.2287
     45  O         54.3710   -4.0850   18.7360 O.2    67  ILE67      -0.2864
     46  CB        52.5180   -5.2880   20.5600 C.3    67  ILE67       0.0276
     47  CG1       51.8200   -5.4450   21.9330 C.3    67  ILE67       0.0022
     48  CG2       51.9850   -6.2140   19.5190 C.3    67  ILE67       0.0022
     49  CD1       52.0260   -6.8110   22.5710 C.3    67  ILE67       0.0001
     50  N         41.9830   -8.7940   19.1170 N.3    81  ILE81      -0.1245
     51  CA        42.8440   -8.0410   18.1320 C.3    81  ILE81       0.1561
     52  C         43.4930   -9.0350   17.1750 C.2    81  ILE81       0.2260
     53  O         43.8370  -10.1580   17.6030 O.2    81  ILE81      -0.2867
     54  CB        43.8940   -7.1520   18.8420 C.3    81  ILE81       0.0252
     55  CG1       44.5430   -6.2100   17.8390 C.3    81  ILE81       0.0019
     56  CG2       44.9400   -7.9850   19.6060 C.3    81  ILE81       0.0019
     57  CD1       45.2610   -5.0630   18.5520 C.3    81  ILE81       0.0001
     58  N         46.7730   -9.5070   14.6920 N.3    83  LEU83      -0.1245
     59  CA        48.1240   -9.0080   14.5580 C.3    83  LEU83       0.1561
     60  C         48.8080   -9.7570   13.4290 C.2    83  LEU83       0.2260
     61  O         48.6460  -10.9760   13.3290 O.2    83  LEU83      -0.2867
     62  CB        48.9100   -9.2250   15.8600 C.3    83  LEU83       0.0270
     63  CG        48.3190   -8.4810   17.0310 C.3    83  LEU83       0.0019
     64  CD1       48.8880   -8.9570   18.3640 C.3    83  LEU83       0.0001
     65  CD2       48.5090   -6.9540   16.8620 C.3    83  LEU83       0.0001
     66  N         44.1640  -12.6080   18.9450 N.3    92  PHE92      -0.1241
     67  CA        44.4180  -12.6510   20.3810 C.3    92  PHE92       0.1605
     68  C         43.2330  -12.1100   21.1430 C.2    92  PHE92       0.2264
     69  O         42.6430  -11.0920   20.7930 O.2    92  PHE92      -0.2867
     70  CB        45.7620  -11.8620   20.6150 C.3    92  PHE92       0.0534
     71  CG        46.2950  -11.9340   21.9870 C.ar   92  PHE92      -0.0203
     72  CD1       47.1020  -12.9770   22.3250 C.ar   92  PHE92      -0.0042
     73  CD2       45.9450  -10.9690   22.9320 C.ar   92  PHE92      -0.0042
     74  CE1       47.6130  -13.0450   23.6050 C.ar   92  PHE92      -0.0003
     75  CE2       46.4280  -10.9970   24.2560 C.ar   92  PHE92      -0.0003
     76  CZ        47.3220  -12.0900   24.5750 C.ar   92  PHE92      -0.0000
     77  N         42.1420  -10.2540   24.2310 N.3    94  ILE94      -0.1245
     78  CA        42.8240   -9.3240   25.0940 C.3    94  ILE94       0.1561
     79  C         42.3240   -9.4810   26.4900 C.2    94  ILE94       0.2260
     80  O         43.0790   -9.4490   27.4440 O.2    94  ILE94      -0.2867
     81  CB        42.6830   -7.8450   24.6600 C.3    94  ILE94       0.0252
     82  CG1       43.2740   -7.6820   23.2940 C.3    94  ILE94       0.0019
     83  CG2       43.4370   -6.9540   25.7210 C.3    94  ILE94       0.0019
     84  CD1       42.9800   -6.2980   22.6650 C.3    94  ILE94       0.0001
     85  N         43.7970  -12.4500   27.8980 N.3    97  LYS97      -0.1231
     86  CA        45.2640  -12.4720   27.6830 C.3    97  LYS97       0.1693
     87  C         45.7200  -13.8200   27.0470 C.2    97  LYS97       0.2593
     88  O         46.7290  -14.4070   27.4580 O.2    97  LYS97      -0.2718
     89  CB        46.0210  -12.1270   28.9950 C.3    97  LYS97       0.0285
     90  CG        45.6130  -10.7670   29.5730 C.3    97  LYS97       0.0035
     91  CD        46.3400   -9.6150   28.8720 C.3    97  LYS97       0.0206
     92  CE        45.8660   -8.2100   29.3720 C.3    97  LYS97       0.1093
     93  NZ        44.3810   -7.9420   29.3500 N.3    97  LYS97      -0.1314
     94  N         45.0310  -14.2440   25.9930 N.am   98  SER98      -0.1938
     95  CA        45.2360  -15.5480   25.4250 C.3    98  SER98       0.2055
     96  C         45.1790  -15.5600   23.9530 C.2    98  SER98       0.2642
     97  O         44.3140  -14.9310   23.3640 O.2    98  SER98      -0.2714
     98  CB        44.1710  -16.5370   25.9370 C.3    98  SER98       0.2130
     99  OG        44.3370  -16.7850   27.3040 O.3    98  SER98      -0.2179
    100  N         46.0740  -16.3250   23.3510 N.am   99  LYS99      -0.1977
    101  CA        46.0730  -16.5920   21.9020 C.3    99  LYS99       0.1596
    102  C         44.8620  -17.4010   21.4660 C.2    99  LYS99       0.2287
    103  O         44.6130  -18.5120   21.9870 O.2    99  LYS99      -0.2864
    104  CB        47.3440  -17.3300   21.4580 C.3    99  LYS99       0.0298
    105  CG        48.6150  -16.5680   21.7120 C.3    99  LYS99       0.0038
    106  CD        49.8180  -17.2810   21.1030 C.3    99  LYS99       0.0206
    107  CE        51.0830  -16.5010   21.2920 C.3    99  LYS99       0.1093
    108  NZ        50.8170  -15.0340   21.2840 N.3    99  LYS99      -0.1314
@<TRIPOS>BOND
     1    61    60    2
     2    60    59    1
     3    59    58    1
     4    59    62    1
     5    62    63    1
     6    65    63    1
     7    63    64    1
     8    52    53    2
     9    52    51    1
    10    55    57    1
    11    55    54    1
    12    51    54    1
    13    51    50    1
    14     7     5    1
    15    45    44    2
    16    54    56    1
    17     6     5    1
    18    66    67    1
    19    44    43    1
    20     5     2    1
    21    48    46    1
    22     2     1    1
    23     2     3    1
    24    67    70    1
    25    67    68    1
    26    46    43    1
    27    46    47    1
    28    70    71    1
    29    43    42    1
    30    69    68    2
    31     3     4    2
    32   106   107    1
    33   106   105    1
    34   108   107    1
    35    42    37   am
    36   104   105    1
    37   104   101    1
    38   102   101    1
    39   102   103    2
    40    13    15    1
    41    13    12    1
    42     9     8    1
    43     9    12    1
    44     9    10    1
    45   101   100    1
    46    47    49    1
    47    71    72   ar
    48    71    73   ar
    49    14    12    1
    50    72    74   ar
    51    10    11    2
    52    84    82    1
    53    37    38    2
    54    37    36    1
    55    27    26    2
    56    73    75   ar
    57    82    81    1
    58   100    96   am
    59    97    96    2
    60    36    39    1
    61    36    35    1
    62    74    76   ar
    63    96    95    1
    64    26    35   am
    65    26    25    1
    66    39    40    1
    67    77    78    1
    68    75    76   ar
    69    35    41    1
    70    19    18    2
    71    81    78    1
    72    81    83    1
    73    24    25    1
    74    25    28    1
    75    78    79    1
    76    28    29    1
    77    95    98    1
    78    95    94    1
    79    40    41    1
    80    18    17    1
    81    98    99    1
    82    94    87   am
    83    16    17    1
    84    79    80    2
    85    29    30    1
    86    17    20    1
    87    20    22    1
    88    20    21    1
    89    87    88    2
    90    87    86    1
    91    86    85    1
    92    86    89    1
    93    21    23    1
    94    30    31    1
    95    31    32    2
    96    32    34    1
    97    32    33    1
    98    91    92    1
    99    91    90    1
   100    89    90    1
   101    93    92    1
