@<TRIPOS>MOLECULE
tmp/4g56C00.pdb
 187 178 0 0 0
SMALL
GASTEIGER

@<TRIPOS>ATOM
      1  N         94.5440   15.1050   71.4860 N.3   273  PRO273     -0.2102
      2  CA        93.6890   15.6950   70.4500 C.3   273  PRO273      0.1504
      3  C         93.1420   14.6490   69.4840 C.2   273  PRO273      0.2575
      4  O         92.0440   14.8200   68.9570 O.2   273  PRO273     -0.2718
      5  CB        94.6390   16.6440   69.7120 C.3   273  PRO273      0.0282
      6  CG        95.7150   16.9470   70.6980 C.3   273  PRO273      0.0208
      7  CD        95.9000   15.6810   71.4710 C.3   273  PRO273      0.0893
      8  N         93.9010   13.5790   69.2630 N.am  274  LEU274     -0.1980
      9  CA        93.4950   12.5240   68.3420 C.3   274  LEU274      0.1596
     10  C         92.3770   11.6580   68.9200 C.2   274  LEU274      0.2287
     11  O         91.5060   11.1830   68.1910 O.2   274  LEU274     -0.2864
     12  CB        94.6970   11.6520   67.9680 C.3   274  LEU274      0.0297
     13  CG        94.4260   10.4410   67.0720 C.3   274  LEU274      0.0022
     14  CD1       93.8030   10.8720   65.7530 C.3   274  LEU274      0.0001
     15  CD2       95.7030    9.6510   66.8340 C.3   274  LEU274      0.0001
     16  N         88.6760   18.3360   71.2790 N.3   277  LEU277     -0.1245
     17  CA        89.0150   19.4500   72.1580 C.3   277  LEU277      0.1561
     18  C         87.8900   20.4770   72.2550 C.2   277  LEU277      0.2260
     19  O         87.0520   20.5840   71.3600 O.2   277  LEU277     -0.2867
     20  CB        90.3030   20.1290   71.6840 C.3   277  LEU277      0.0270
     21  CG        91.5470   19.2420   71.5960 C.3   277  LEU277      0.0019
     22  CD1       92.7400   20.0360   71.0860 C.3   277  LEU277      0.0001
     23  CD2       91.8560   18.6100   72.9450 C.3   277  LEU277      0.0001
     24  N         91.3210   25.2810   72.3070 N.3   282  TYR282     -0.1241
     25  CA        91.9330   25.7730   71.0770 C.3   282  TYR282      0.1605
     26  C         92.4570   27.1920   71.2510 C.2   282  TYR282      0.2264
     27  O         93.5500   27.5200   70.7900 O.2   282  TYR282     -0.2867
     28  CB        90.9300   25.7450   69.9230 C.3   282  TYR282      0.0534
     29  CG        90.6240   24.3660   69.3890 C.ar  282  TYR282     -0.0201
     30  CD1       91.5730   23.6540   68.6680 C.ar  282  TYR282     -0.0009
     31  CD2       89.3790   23.7840   69.5860 C.ar  282  TYR282     -0.0009
     32  CE1       91.2950   22.3960   68.1720 C.ar  282  TYR282      0.0417
     33  CE2       89.0910   22.5260   69.0940 C.ar  282  TYR282      0.0417
     34  CZ        90.0520   21.8370   68.3870 C.ar  282  TYR282      0.1957
     35  OH        89.7680   20.5840   67.8940 O.3   282  TYR282     -0.2866
     36  N         95.8760   27.3750   72.5550 N.3   285  PHE285     -0.1241
     37  CA        96.8490   27.0400   71.5220 C.3   285  PHE285      0.1605
     38  C         96.9760   28.1790   70.5180 C.2   285  PHE285      0.2264
     39  O         98.0600   28.4500   70.0020 O.2   285  PHE285     -0.2867
     40  CB        96.4390   25.7580   70.7930 C.3   285  PHE285      0.0534
     41  CG        96.4220   24.5390   71.6700 C.ar  285  PHE285     -0.0203
     42  CD1       97.2830   24.4300   72.7490 C.ar  285  PHE285     -0.0042
     43  CD2       95.5410   23.5000   71.4130 C.ar  285  PHE285     -0.0042
     44  CE1       97.2670   23.3070   73.5550 C.ar  285  PHE285     -0.0003
     45  CE2       95.5210   22.3750   72.2160 C.ar  285  PHE285     -0.0003
     46  CZ        96.3850   22.2780   73.2880 C.ar  285  PHE285     -0.0000
     47  N        104.0440   30.4690   67.3190 N.3   291  LYS291     -0.1245
     48  CA       103.6770   29.2920   66.5410 C.3   291  LYS291      0.1561
     49  C        103.0330   29.6940   65.2170 C.2   291  LYS291      0.2260
     50  O        103.1770   29.0020   64.2100 O.2   291  LYS291     -0.2867
     51  CB       102.7270   28.3970   67.3380 C.3   291  LYS291      0.0271
     52  CG       103.4290   27.3880   68.2320 C.3   291  LYS291      0.0035
     53  CD       102.5060   26.2360   68.5950 C.3   291  LYS291      0.0206
     54  CE       101.2340   26.7370   69.2600 C.3   291  LYS291      0.1093
     55  NZ       101.2290   26.4670   70.7240 N.3   291  LYS291     -0.1314
     56  N         96.3800   19.5380   57.3730 N.3   321  LEU321     -0.1231
     57  CA        96.0020   18.3490   58.1260 C.3   321  LEU321      0.1693
     58  C         95.8240   18.6820   59.6040 C.2   321  LEU321      0.2592
     59  O         96.7950   18.9420   60.3140 O.2   321  LEU321     -0.2718
     60  CB        97.0500   17.2500   57.9440 C.3   321  LEU321      0.0284
     61  CG        97.3360   16.8540   56.4930 C.3   321  LEU321      0.0019
     62  CD1       98.4200   15.7900   56.4260 C.3   321  LEU321      0.0001
     63  CD2       96.0670   16.3750   55.8020 C.3   321  LEU321      0.0001
     64  N         94.5750   18.6720   60.0590 N.am  322  GLY322     -0.1957
     65  CA        94.2560   19.0840   61.4130 C.3   322  GLY322      0.1869
     66  C         94.1680   20.5950   61.4940 C.2   322  GLY322      0.2309
     67  O         94.9500   21.2370   62.1960 O.2   322  GLY322     -0.2863
     68  N         91.9080   22.6150   62.7730 N.3   324  GLY324     -0.1225
     69  CA        91.4660   23.1780   64.0340 C.3   324  GLY324      0.1811
     70  C         90.3130   24.1430   63.8380 C.2   324  GLY324      0.2280
     71  O         89.2590   23.7650   63.3290 O.2   324  GLY324     -0.2866
     72  N         91.1880   19.6680   56.3600 N.3   348  VAL348     -0.1231
     73  CA        90.5730   18.4860   56.9530 C.3   348  VAL348      0.1692
     74  C         90.5260   18.5790   58.4760 C.2   348  VAL348      0.2592
     75  O         91.3670   19.2300   59.0980 O.2   348  VAL348     -0.2718
     76  CB        91.3010   17.1900   56.5370 C.3   348  VAL348      0.0266
     77  CG1       91.3490   17.0730   55.0220 C.3   348  VAL348      0.0020
     78  CG2       92.7030   17.1540   57.1170 C.3   348  VAL348      0.0020
     79  N         89.5280   17.9270   59.0650 N.am  349  GLU349     -0.1966
     80  CA        89.3580   17.9050   60.5130 C.3   349  GLU349      0.1733
     81  C         88.4150   16.7820   60.9220 C.2   349  GLU349      0.2616
     82  O         87.3610   16.5930   60.3150 O.2   349  GLU349     -0.2715
     83  CB        88.8160   19.2460   61.0150 C.3   349  GLU349      0.0429
     84  CG        89.7920   20.0350   61.8770 C.3   349  GLU349      0.1163
     85  CD        90.0060   19.4160   63.2470 C.2   349  GLU349      0.3649
     86  OE1       90.9420   19.8470   63.9520 O.co2 349  GLU349     -0.2457
     87  OE2       89.2370   18.5060   63.6230 O.co2 349  GLU349     -0.2457
     88  N         88.7970   16.0380   61.9550 N.am  350  LYS350     -0.1963
     89  CA        87.9720   14.9430   62.4470 C.3   350  LYS350      0.1728
     90  C         86.9620   15.4390   63.4750 C.2   350  LYS350      0.2616
     91  O         85.8960   14.8480   63.6400 O.2   350  LYS350     -0.2715
     92  CB        88.8430   13.8500   63.0640 C.3   350  LYS350      0.0311
     93  CG        89.6280   14.3140   64.2740 C.3   350  LYS350      0.0038
     94  CD        90.0830   13.1460   65.1210 C.3   350  LYS350      0.0206
     95  CE        90.5250   13.6250   66.4880 C.3   350  LYS350      0.1093
     96  NZ        89.4160   14.2770   67.2400 N.3   350  LYS350     -0.1314
     97  N         87.3070   16.5250   64.1610 N.am  351  ASN351     -0.1972
     98  CA        86.4440   17.1050   65.1850 C.3   351  ASN351      0.1688
     99  C         85.3120   17.9150   64.5620 C.2   351  ASN351      0.2292
    100  O         85.5440   19.0000   64.0290 O.2   351  ASN351     -0.2864
    101  CB        87.2700   17.9780   66.1340 C.3   351  ASN351      0.1181
    102  CG        86.4500   18.5410   67.2800 C.2   351  ASN351      0.2629
    103  OD1       85.3300   18.0990   67.5380 O.2   351  ASN351     -0.2716
    104  ND2       87.0120   19.5190   67.9820 N.am  351  ASN351     -0.0877
    105  N         86.5020   14.6330   58.5500 N.3   375  GLY375     -0.1210
    106  CA        86.8590   13.2420   58.7590 C.3   375  GLY375      0.1956
    107  C         88.3030   13.0630   59.1840 C.2   375  GLY375      0.2611
    108  O         89.0140   14.0370   59.4320 O.2   375  GLY375     -0.2717
    109  N         88.7380   11.8100   59.2680 N.am  376  ASP376     -0.1973
    110  CA        90.1050   11.4990   59.6680 C.3   376  ASP376      0.1709
    111  C         91.0260   11.5130   58.4520 C.2   376  ASP376      0.2293
    112  O         90.6550   11.0470   57.3750 O.2   376  ASP376     -0.2864
    113  CB        90.1600   10.1360   60.3640 C.3   376  ASP376      0.1436
    114  CG        91.3950    9.9690   61.2300 C.2   376  ASP376      0.3671
    115  OD1       92.4750   10.4630   60.8430 O.co2 376  ASP376     -0.2456
    116  OD2       91.2840    9.3430   62.3050 O.co2 376  ASP376     -0.2456
    117  N         93.5430    9.8050   57.9310 N.3   377  ARG377     -0.1245
    118  CA        94.0770    8.4760   57.6570 C.3   377  ARG377      0.1563
    119  C         93.0910    7.5990   56.8890 C.2   377  ARG377      0.2260
    120  O         93.4490    6.5180   56.4220 O.2   377  ARG377     -0.2867
    121  CB        94.4810    7.7890   58.9620 C.3   377  ARG377      0.0307
    122  CG        95.5940    8.4950   59.7180 C.3   377  ARG377      0.0489
    123  CD        95.8420    7.8370   61.0630 C.3   377  ARG377      0.2205
    124  NE        94.6830    7.9520   61.9430 N.pl3 377  ARG377     -0.0865
    125  CZ        94.5900    7.3740   63.1360 C.cat 377  ARG377      0.5346
    126  NH1       95.5880    6.6320   63.5950 N.pl3 377  ARG377      0.1354
    127  NH2       93.4980    7.5350   63.8690 N.pl3 377  ARG377      0.1354
    128  N         99.9830   20.5080   62.7040 N.3   391  GLU391     -0.1231
    129  CA       100.5350   20.8650   64.0040 C.3   391  GLU391      0.1699
    130  C        100.0140   19.8900   65.0530 C.2   391  GLU391      0.2592
    131  O         99.2820   20.2720   65.9650 O.2   391  GLU391     -0.2718
    132  CB       100.1600   22.3010   64.3750 C.3   391  GLU391      0.0402
    133  CG       101.1940   23.0290   65.2280 C.3   391  GLU391      0.1161
    134  CD       101.2160   22.5640   66.6720 C.2   391  GLU391      0.3649
    135  OE1      100.6890   23.2950   67.5360 O.co2 391  GLU391     -0.2457
    136  OE2      101.7680   21.4780   66.9470 O.co2 391  GLU391     -0.2457
    137  N        100.3960   18.6260   64.9080 N.am  392  LEU392     -0.1966
    138  CA        99.9490   17.5740   65.8110 C.3   392  LEU392      0.1728
    139  C        101.0330   17.2740   66.8360 C.2   392  LEU392      0.2616
    140  O        101.1580   16.1460   67.3140 O.2   392  LEU392     -0.2715
    141  CB        99.6230   16.3110   65.0160 C.3   392  LEU392      0.0311
    142  CG        98.8140   16.5320   63.7360 C.3   392  LEU392      0.0022
    143  CD1       98.6710   15.2350   62.9580 C.3   392  LEU392      0.0001
    144  CD2       97.4500   17.1210   64.0560 C.3   392  LEU392      0.0001
    145  N        101.8120   18.2950   67.1740 N.am  393  LEU393     -0.1977
    146  CA       102.9720   18.1230   68.0400 C.3   393  LEU393      0.1596
    147  C        102.6300   18.3590   69.5060 C.2   393  LEU393      0.2287
    148  O        101.9580   19.3320   69.8510 O.2   393  LEU393     -0.2864
    149  CB       104.1060   19.0560   67.6030 C.3   393  LEU393      0.0297
    150  CG       105.0630   18.5790   66.5030 C.3   393  LEU393      0.0022
    151  CD1      104.3250   18.0540   65.2770 C.3   393  LEU393      0.0001
    152  CD2      106.0060   19.7040   66.1070 C.3   393  LEU393      0.0001
    153  N        101.3790   13.0670   70.9290 N.3   400  GLU400     -0.1245
    154  CA       100.0340   13.3000   70.4160 C.3   400  GLU400      0.1567
    155  C         99.8210   12.5120   69.1290 C.2   400  GLU400      0.2260
    156  O         98.8940   12.7820   68.3640 O.2   400  GLU400     -0.2867
    157  CB        99.7810   14.7910   70.1970 C.3   400  GLU400      0.0388
    158  CG        99.7870   15.6010   71.4820 C.3   400  GLU400      0.1160
    159  CD        99.3270   17.0290   71.2750 C.2   400  GLU400      0.3649
    160  OE1       99.0250   17.3970   70.1200 O.co2 400  GLU400     -0.2457
    161  OE2       99.2660   17.7840   72.2690 O.co2 400  GLU400     -0.2457
    162  N         99.4590    9.6950   62.3880 N.3   405  CYS405     -0.1235
    163  CA        98.4950   10.4540   61.5990 C.3   405  CYS405      0.1677
    164  C         99.0340   10.8080   60.2160 C.2   405  CYS405      0.2270
    165  O         98.3380   10.6540   59.2130 O.2   405  CYS405     -0.2867
    166  CB        98.0750   11.7240   62.3400 C.3   405  CYS405      0.0956
    167  SG        97.1290   11.4330   63.8520 S.3   405  CYS405     -0.0801
    168  N        106.0800   27.9310   73.8420 N.3   532  SER532     -0.1202
    169  CA       104.9280   27.4110   73.1140 C.3   532  SER532      0.2020
    170  C        104.4870   26.0530   73.6550 C.2   532  SER532      0.2618
    171  O        103.3510   25.6300   73.4430 O.2   532  SER532     -0.2717
    172  CB       105.2430   27.3080   71.6210 C.3   532  SER532      0.2103
    173  OG       105.5700   28.5770   71.0810 O.3   532  SER532     -0.2182
    174  N        105.3950   25.3750   74.3500 N.am  533  TRP533     -0.1975
    175  CA       105.0920   24.0870   74.9640 C.3   533  TRP533      0.1640
    176  C        105.7170   23.9770   76.3490 C.2   533  TRP533      0.2290
    177  O        106.8560   24.3930   76.5620 O.2   533  TRP533     -0.2864
    178  CB       105.5970   22.9350   74.0920 C.3   533  TRP533      0.0576
    179  CG       104.7200   22.6020   72.9240 C.ar  533  TRP533      0.0006
    180  CD1      103.6190   21.7960   72.9290 C.ar  533  TRP533      0.0946
    181  CD2      104.8830   23.0500   71.5730 C.ar  533  TRP533      0.0152
    182  NE1      103.0810   21.7220   71.6670 N.ar  533  TRP533     -0.2442
    183  CE2      103.8380   22.4830   70.8160 C.ar  533  TRP533      0.0810
    184  CE3      105.8070   23.8790   70.9300 C.ar  533  TRP533      0.0012
    185  CZ2      103.6920   22.7180   69.4510 C.ar  533  TRP533      0.0191
    186  CZ3      105.6610   24.1110   69.5760 C.ar  533  TRP533      0.0001
    187  CH2      104.6120   23.5320   68.8500 C.ar  533  TRP533      0.0015
@<TRIPOS>BOND
     1    77    76    1
     2    63    61    1
     3    72    73    1
     4   120   119    2
     5    62    61    1
     6    61    60    1
     7    76    73    1
     8    76    78    1
     9   119   118    1
    10    73    74    1
    11    56    57    1
    12   112   111    2
    13   118   117    1
    14   118   121    1
    15    60    57    1
    16    57    58    1
    17   111   110    1
    18    74    79   am
    19    74    75    2
    20   105   106    1
    21   106   107    1
    22   121   122    1
    23    79    80    1
    24   107   109   am
    25   107   108    2
    26   165   164    2
    27   109   110    1
    28    58    64   am
    29    58    59    2
    30   110   113    1
    31   122   123    1
    32    64    65    1
    33   164   163    1
    34    82    81    2
    35   113   114    1
    36    80    81    1
    37    80    83    1
    38   115   114   ar
    39    81    88   am
    40    83    84    1
    41   123   124    1
    42   114   116   ar
    43    65    66    1
    44    66    67    2
    45   163   166    1
    46   163   162    1
    47    84    85    1
    48   124   125    2
    49    88    89    1
    50   166   167    1
    51    89    92    1
    52    89    90    1
    53   128   129    1
    54    68    69    1
    55   143   142    1
    56    92    93    1
    57   125   126    1
    58   125   127    1
    59    85    87   ar
    60    85    86   ar
    61    71    70    2
    62    90    91    2
    63    90    97   am
    64   142   144    1
    65   142   141    1
    66    70    69    1
    67   129   132    1
    68   129   130    1
    69   100    99    2
    70    97    98    1
    71    50    49    2
    72    93    94    1
    73   132   133    1
    74    99    98    1
    75   137   130   am
    76   137   138    1
    77   141   138    1
    78   130   131    2
    79    94    95    1
    80    98   101    1
    81    49    48    1
    82   133   134    1
    83   151   150    1
    84    14    13    1
    85   138   139    1
    86   152   150    1
    87   101   102    1
    88    95    96    1
    89   150   149    1
    90    48    47    1
    91    48    51    1
    92   134   136   ar
    93   134   135   ar
    94    15    13    1
    95   139   145   am
    96   139   140    2
    97    13    12    1
    98   145   146    1
    99   102   103    2
   100   102   104   am
   101    51    52    1
   102   149   146    1
   103    35    34    1
   104    12     9    1
   105   146   147    1
   106    32    34   ar
   107    32    30   ar
   108    11    10    2
   109    52    53    1
   110     9    10    1
   111     9     8    1
   112   156   155    2
   113    34    33   ar
   114    53    54    1
   115    30    29   ar
   116   187   185   ar
   117   187   186   ar
   118     4     3    2
   119    33    31   ar
   120   155   154    1
   121    54    55    1
   122     8     3   am
   123    29    31   ar
   124    29    28    1
   125   185   183   ar
   126     3     2    1
   127   147   148    2
   128   186   184   ar
   129     5     2    1
   130     5     6    1
   131    28    25    1
   132    39    38    2
   133   160   159   ar
   134   157   154    1
   135   157   158    1
   136   154   153    1
   137     2     1    1
   138    38    37    1
   139     6     7    1
   140    27    26    2
   141    40    37    1
   142    40    41    1
   143   183   181   ar
   144   183   182   ar
   145   184   181   ar
   146    25    26    1
   147    25    24    1
   148   173   172    1
   149    22    21    1
   150   159   158    1
   151   159   161   ar
   152    16    17    1
   153    19    18    2
   154    43    41   ar
   155    43    45   ar
   156     7     1    1
   157    37    36    1
   158   181   179   ar
   159    21    20    1
   160    21    23    1
   161   172   169    1
   162   182   180   ar
   163    41    42   ar
   164    20    17    1
   165    17    18    1
   166    45    46   ar
   167    42    44   ar
   168   179   180   ar
   169   179   178    1
   170   169   170    1
   171   169   168    1
   172    46    44   ar
   173   171   170    2
   174   170   174   am
   175   178   175    1
   176   174   175    1
   177   175   176    1
   178   176   177    2
