@<TRIPOS>MOLECULE
tmp/4g56A00.pdb
 181 172 0 0 0
SMALL
GASTEIGER

@<TRIPOS>ATOM
      1  N         99.2500  -13.2870  122.2350 N.3   287  PRO287     -0.2102
      2  CA        98.6020  -14.1200  123.2540 C.3   287  PRO287      0.1504
      3  C         97.7960  -13.3070  124.2650 C.2   287  PRO287      0.2575
      4  O         96.9960  -13.8830  124.9990 O.2   287  PRO287     -0.2718
      5  CB        99.7850  -14.7990  123.9540 C.3   287  PRO287      0.0282
      6  CG       100.8960  -14.7490  122.9630 C.3   287  PRO287      0.0208
      7  CD       100.7130  -13.4500  122.2450 C.3   287  PRO287      0.0893
      8  N         98.0060  -11.9950  124.3020 N.am  288  LEU288     -0.1980
      9  CA        97.2810  -11.1310  125.2270 C.3   288  LEU288      0.1596
     10  C         95.9600  -10.6440  124.6360 C.2   288  LEU288      0.2287
     11  O         94.9220  -10.6870  125.2940 O.2   288  LEU288     -0.2864
     12  CB        98.1410   -9.9350  125.6400 C.3   288  LEU288      0.0297
     13  CG        97.4720   -8.9410  126.5930 C.3   288  LEU288      0.0022
     14  CD1       97.0960   -9.6210  127.9010 C.3   288  LEU288      0.0001
     15  CD2       98.3730   -7.7430  126.8460 C.3   288  LEU288      0.0001
     16  N         94.9290  -18.1220  122.3870 N.3   291  LEU291     -0.1245
     17  CA        95.6040  -19.1000  121.5410 C.3   291  LEU291      0.1561
     18  C         94.8390  -20.4170  121.4640 C.2   291  LEU291      0.2260
     19  O         94.1090  -20.7800  122.3860 O.2   291  LEU291     -0.2867
     20  CB        97.0260  -19.3540  122.0460 C.3   291  LEU291      0.0270
     21  CG        97.9720  -18.1530  122.0710 C.3   291  LEU291      0.0019
     22  CD1       99.3370  -18.5590  122.6070 C.3   291  LEU291      0.0001
     23  CD2       98.0950  -17.5370  120.6850 C.3   291  LEU291      0.0001
     24  N         99.4550  -23.7870  121.3300 N.3   296  TYR296     -0.1241
     25  CA       100.1690  -24.0800  122.5690 C.3   296  TYR296      0.1605
     26  C        101.1120  -25.2630  122.3860 C.2   296  TYR296      0.2264
     27  O        102.2400  -25.2500  122.8760 O.2   296  TYR296     -0.2867
     28  CB        99.1890  -24.3760  123.7060 C.3   296  TYR296      0.0534
     29  CG        98.5560  -23.1500  124.3260 C.ar  296  TYR296     -0.0201
     30  CD1       99.2930  -22.3050  125.1450 C.ar  296  TYR296     -0.0009
     31  CD2       97.2190  -22.8480  124.1070 C.ar  296  TYR296     -0.0009
     32  CE1       98.7190  -21.1870  125.7180 C.ar  296  TYR296      0.0417
     33  CE2       96.6360  -21.7320  124.6760 C.ar  296  TYR296      0.0417
     34  CZ        97.3900  -20.9060  125.4800 C.ar  296  TYR296      0.1957
     35  OH        96.8110  -19.7940  126.0480 O.3   296  TYR296     -0.2866
     36  N        104.4670  -24.2530  120.9960 N.3   299  PHE299     -0.1241
     37  CA       105.3210  -23.5720  121.9650 C.3   299  PHE299      0.1605
     38  C        105.8850  -24.5360  123.0050 C.2   299  PHE299      0.2264
     39  O        106.9630  -24.3100  123.5540 O.2   299  PHE299     -0.2867
     40  CB       104.5500  -22.4510  122.6660 C.3   299  PHE299      0.0534
     41  CG       104.2090  -21.2940  121.7710 C.ar  299  PHE299     -0.0203
     42  CD1      104.9700  -21.0210  120.6460 C.ar  299  PHE299     -0.0042
     43  CD2      103.1280  -20.4770  122.0580 C.ar  299  PHE299     -0.0042
     44  CE1      104.6580  -19.9550  119.8230 C.ar  299  PHE299     -0.0003
     45  CE2      102.8110  -19.4100  121.2390 C.ar  299  PHE299     -0.0003
     46  CZ       103.5770  -19.1490  120.1190 C.ar  299  PHE299     -0.0000
     47  N        113.4180  -24.3530  126.4810 N.3   305  LYS305     -0.1245
     48  CA       112.6820  -23.3940  127.3000 C.3   305  LYS305      0.1561
     49  C        112.1730  -24.0350  128.5870 C.2   305  LYS305      0.2260
     50  O        112.1450  -23.3980  129.6390 O.2   305  LYS305     -0.2867
     51  CB       111.5150  -22.7920  126.5130 C.3   305  LYS305      0.0271
     52  CG       111.9380  -21.8310  125.4140 C.3   305  LYS305      0.0035
     53  CD       110.7370  -21.1940  124.7310 C.3   305  LYS305      0.0206
     54  CE       109.9510  -22.2060  123.9170 C.3   305  LYS305      0.1093
     55  NZ       108.8410  -21.5570  123.1660 N.3   305  LYS305     -0.1314
     56  N        102.4410  -16.9740  136.3270 N.3   335  LEU335     -0.1231
     57  CA       101.5990  -16.0050  135.6380 C.3   335  LEU335      0.1693
     58  C        101.5580  -16.2950  134.1400 C.2   335  LEU335      0.2592
     59  O        102.5340  -16.0670  133.4260 O.2   335  LEU335     -0.2718
     60  CB       102.1090  -14.5870  135.8960 C.3   335  LEU335      0.0284
     61  CG       102.2250  -14.1890  137.3700 C.3   335  LEU335      0.0019
     62  CD1      102.7400  -12.7640  137.5090 C.3   335  LEU335      0.0001
     63  CD2      100.8890  -14.3540  138.0780 C.3   335  LEU335      0.0001
     64  N        100.4180  -16.7950  133.6720 N.am  336  GLY336     -0.1957
     65  CA       100.2870  -17.2420  132.2980 C.3   336  GLY336      0.1869
     66  C        100.6710  -18.7050  132.1990 C.2   336  GLY336      0.2309
     67  O        101.6160  -19.0660  131.4970 O.2   336  GLY336     -0.2863
     68  N         99.3190  -21.2470  130.8310 N.3   338  GLY338     -0.1225
     69  CA        99.0780  -21.9350  129.5770 C.3   338  GLY338      0.1811
     70  C         98.3010  -23.2200  129.7860 C.2   338  GLY338      0.2280
     71  O         97.1980  -23.2050  130.3320 O.2   338  GLY338     -0.2866
     72  N         97.7360  -18.9370  137.2960 N.3   362  VAL362     -0.1231
     73  CA        96.7660  -17.9880  136.7590 C.3   362  VAL362      0.1692
     74  C         96.8100  -17.9210  135.2310 C.2   362  VAL362      0.2592
     75  O         97.8730  -18.0440  134.6190 O.2   362  VAL362     -0.2718
     76  CB        96.9230  -16.5790  137.3970 C.3   362  VAL362      0.0266
     77  CG1       97.9880  -16.6030  138.4840 C.3   362  VAL362      0.0020
     78  CG2       97.2430  -15.5210  136.3470 C.3   362  VAL362      0.0020
     79  N         95.6390  -17.7480  134.6250 N.am  363  GLU363     -0.1966
     80  CA        95.5110  -17.6800  133.1760 C.3   363  GLU363      0.1733
     81  C         94.2460  -16.9210  132.7960 C.2   363  GLU363      0.2616
     82  O         93.2270  -17.0240  133.4760 O.2   363  GLU363     -0.2715
     83  CB        95.4670  -19.0870  132.5780 C.3   363  GLU363      0.0429
     84  CG        96.6670  -19.4440  131.7180 C.3   363  GLU363      0.1163
     85  CD        96.6550  -18.7480  130.3690 C.2   363  GLU363      0.3649
     86  OE1       97.6700  -18.8400  129.6470 O.co2 363  GLU363     -0.2457
     87  OE2       95.6320  -18.1170  130.0260 O.co2 363  GLU363     -0.2457
     88  N         94.3130  -16.1600  131.7100 N.am  364  LYS364     -0.1963
     89  CA        93.1590  -15.3950  131.2540 C.3   364  LYS364      0.1728
     90  C         92.3720  -16.1610  130.1950 C.2   364  LYS364      0.2616
     91  O         91.1670  -15.9630  130.0460 O.2   364  LYS364     -0.2715
     92  CB        93.5930  -14.0390  130.7000 C.3   364  LYS364      0.0311
     93  CG        94.4450  -14.1390  129.4540 C.3   364  LYS364      0.0038
     94  CD        94.3480  -12.8840  128.6210 C.3   364  LYS364      0.0206
     95  CE        94.9700  -13.1060  127.2600 C.3   364  LYS364      0.1093
     96  NZ        94.2950  -14.1990  126.5060 N.3   364  LYS364     -0.1314
     97  N         93.0610  -17.0280  129.4590 N.am  365  ASN365     -0.1972
     98  CA        92.4300  -17.8450  128.4310 C.3   365  ASN365      0.1688
     99  C         91.5530  -18.9120  129.0760 C.2   365  ASN365      0.2292
    100  O         92.0660  -19.8490  129.6860 O.2   365  ASN365     -0.2864
    101  CB        93.4970  -18.5000  127.5490 C.3   365  ASN365      0.1181
    102  CG        92.9230  -19.1120  126.2810 C.2   365  ASN365      0.2629
    103  OD1       91.7210  -19.3570  126.1790 O.2   365  ASN365     -0.2716
    104  ND2       93.7900  -19.3680  125.3080 N.am  365  ASN365     -0.0877
    105  N         91.7130  -15.4960  134.9790 N.3   389  GLY389     -0.1210
    106  CA        91.6220  -14.0520  134.8650 C.3   389  GLY389      0.1956
    107  C         92.9320  -13.3910  134.4800 C.2   389  GLY389      0.2611
    108  O         93.9550  -14.0580  134.3220 O.2   389  GLY389     -0.2717
    109  N         92.8970  -12.0710  134.3270 N.am  390  ASP390     -0.1973
    110  CA        94.0850  -11.3030  133.9740 C.3   390  ASP390      0.1709
    111  C         94.9240  -11.0400  135.2200 C.2   390  ASP390      0.2293
    112  O         94.3900  -10.7250  136.2820 O.2   390  ASP390     -0.2864
    113  CB        93.6830   -9.9800  133.3130 C.3   390  ASP390      0.1436
    114  CG        94.8420   -9.2970  132.6020 C.2   390  ASP390      0.3671
    115  OD1       96.0030   -9.4570  133.0340 O.co2 390  ASP390     -0.2456
    116  OD2       94.5880   -8.5920  131.6030 O.co2 390  ASP390     -0.2456
    117  N         96.7670   -8.6100  135.7350 N.3   391  ARG391     -0.1245
    118  CA        96.7670   -7.1770  136.0070 C.3   391  ARG391      0.1563
    119  C         95.5500   -6.7560  136.8260 C.2   391  ARG391      0.2260
    120  O         95.5550   -5.7010  137.4610 O.2   391  ARG391     -0.2867
    121  CB        96.8080   -6.3880  134.6980 C.3   391  ARG391      0.0307
    122  CG        98.0680   -6.6030  133.8760 C.3   391  ARG391      0.0489
    123  CD        97.9350   -5.9660  132.5030 C.3   391  ARG391      0.2205
    124  NE        96.9120   -6.6280  131.6980 N.pl3 391  ARG391     -0.0865
    125  CZ        96.4950   -6.1950  130.5130 C.cat 391  ARG391      0.5346
    126  NH1       97.0060   -5.0890  129.9880 N.pl3 391  ARG391      0.1354
    127  NH2       95.5610   -6.8660  129.8530 N.pl3 391  ARG391      0.1354
    128  N        106.2150  -16.5590  130.9980 N.3   405  GLU405     -0.1231
    129  CA       106.8690  -16.7280  129.7090 C.3   405  GLU405      0.1699
    130  C        106.0760  -15.9640  128.6570 C.2   405  GLU405      0.2592
    131  O        105.4640  -16.5570  127.7700 O.2   405  GLU405     -0.2718
    132  CB       106.9670  -18.2110  129.3480 C.3   405  GLU405      0.0402
    133  CG       108.1370  -18.5670  128.4390 C.3   405  GLU405      0.1161
    134  CD       107.8790  -18.2380  126.9820 C.2   405  GLU405      0.3649
    135  OE1      107.4980  -19.1560  126.2250 O.co2 405  GLU405     -0.2457
    136  OE2      108.0620  -17.0650  126.5900 O.co2 405  GLU405     -0.2457
    137  N        106.0840  -14.6400  128.7750 N.am  406  LEU406     -0.1966
    138  CA       105.3130  -13.7780  127.8890 C.3   406  LEU406      0.1728
    139  C        106.2240  -13.1210  126.8600 C.2   406  LEU406      0.2616
    140  O        105.9320  -12.0340  126.3600 O.2   406  LEU406     -0.2715
    141  CB       104.5980  -12.7010  128.7040 C.3   406  LEU406      0.0311
    142  CG       103.9060  -13.1830  129.9800 C.3   406  LEU406      0.0022
    143  CD1      103.3880  -12.0060  130.7880 C.3   406  LEU406      0.0001
    144  CD2      102.7780  -14.1450  129.6490 C.3   406  LEU406      0.0001
    145  N        107.3290  -13.7890  126.5480 N.am  407  LEU407     -0.1977
    146  CA       108.3340  -13.2290  125.6550 C.3   407  LEU407      0.1596
    147  C        108.0260  -13.5240  124.1930 C.2   407  LEU407      0.2287
    148  O        107.6780  -14.6480  123.8330 O.2   407  LEU407     -0.2864
    149  CB       109.7190  -13.7670  126.0150 C.3   407  LEU407      0.0297
    150  CG       110.1290  -13.6070  127.4800 C.3   407  LEU407      0.0022
    151  CD1      111.5290  -14.1520  127.7070 C.3   407  LEU407      0.0001
    152  CD2      110.0340  -12.1500  127.9110 C.3   407  LEU407      0.0001
    153  N        105.0910   -8.9900  122.8600 N.3   414  GLU414     -0.1245
    154  CA       103.8830   -9.6420  123.3550 C.3   414  GLU414      0.1567
    155  C        103.3960   -8.9540  124.6240 C.2   414  GLU414      0.2260
    156  O        102.5460   -9.4800  125.3450 O.2   414  GLU414     -0.2867
    157  CB       104.1260  -11.1300  123.6060 C.3   414  GLU414      0.0388
    158  CG       104.3520  -11.9360  122.3400 C.3   414  GLU414      0.1160
    159  CD       104.3890  -13.4270  122.6000 C.2   414  GLU414      0.3649
    160  OE1      104.2360  -13.8310  123.7730 O.co2 414  GLU414     -0.2457
    161  OE2      104.5710  -14.1970  121.6320 O.co2 414  GLU414     -0.2457
    162  N        102.0830   -6.5770  131.3350 N.3   419  CYS419     -0.1235
    163  CA       101.4380   -7.6470  132.0870 C.3   419  CYS419      0.1677
    164  C        102.0700   -7.8390  133.4620 C.2   419  CYS419      0.2270
    165  O        101.3680   -8.0110  134.4570 O.2   419  CYS419     -0.2867
    166  CB       101.4790   -8.9590  131.3010 C.3   419  CYS419      0.0956
    167  SG       100.4460   -8.9750  129.8180 S.3   419  CYS419     -0.0801
    168  N        113.0250  -19.3600  119.2110 N.3   547  TRP547     -0.1241
    169  CA       112.2510  -18.2880  118.5930 C.3   547  TRP547      0.1605
    170  C        112.7800  -17.9460  117.2070 C.2   547  TRP547      0.2264
    171  O        113.9880  -17.9540  116.9730 O.2   547  TRP547     -0.2867
    172  CB       112.2810  -17.0250  119.4580 C.3   547  TRP547      0.0550
    173  CG       111.3650  -17.0460  120.6420 C.ar  547  TRP547      0.0003
    174  CD1      110.0350  -16.7450  120.6540 C.ar  547  TRP547      0.0946
    175  CD2      111.7170  -17.3590  121.9950 C.ar  547  TRP547      0.0152
    176  NE1      109.5340  -16.8620  121.9280 N.ar  547  TRP547     -0.2442
    177  CE2      110.5460  -17.2370  122.7700 C.ar  547  TRP547      0.0810
    178  CE3      112.9070  -17.7360  122.6260 C.ar  547  TRP547      0.0012
    179  CZ2      110.5310  -17.4790  124.1420 C.ar  547  TRP547      0.0191
    180  CZ3      112.8890  -17.9760  123.9870 C.ar  547  TRP547      0.0001
    181  CH2      111.7090  -17.8460  124.7310 C.ar  547  TRP547      0.0015
@<TRIPOS>BOND
     1   171   170    2
     2   170   169    1
     3   169   168    1
     4   169   172    1
     5   172   173    1
     6    44    46   ar
     7    44    42   ar
     8    46    45   ar
     9   173   174   ar
    10   173   175   ar
    11    42    41   ar
    12   174   176   ar
    13    23    21    1
    14    36    37    1
    15    45    43   ar
    16    24    25    1
    17    18    17    1
    18    18    19    2
    19    17    20    1
    20    17    16    1
    21   161   159   ar
    22    41    43   ar
    23    41    40    1
    24   176   177   ar
    25    37    40    1
    26    37    38    1
    27   175   178   ar
    28   175   177   ar
    29    20    21    1
    30    21    22    1
    31     1     7    1
    32     1     2    1
    33     7     6    1
    34   158   159    1
    35   158   157    1
    36    26    25    1
    37    26    27    2
    38    25    28    1
    39   159   160   ar
    40   178   180   ar
    41   177   179   ar
    42   153   154    1
    43     6     5    1
    44    38    39    2
    45    55    54    1
    46     2     5    1
    47     2     3    1
    48   154   157    1
    49   154   155    1
    50    28    29    1
    51   148   147    2
    52    54    53    1
    53   180   181   ar
    54    31    29   ar
    55    31    33   ar
    56   179   181   ar
    57   147   146    1
    58     3     8   am
    59     3     4    2
    60     8     9    1
    61    29    30   ar
    62   155   156    2
    63    10     9    1
    64    10    11    2
    65    33    34   ar
    66    53    52    1
    67    30    32   ar
    68     9    12    1
    69   104   102   am
    70    52    51    1
    71    34    32   ar
    72    34    35    1
    73    12    13    1
    74   146   149    1
    75   146   145    1
    76   149   150    1
    77   103   102    2
    78   135   134   ar
    79   102   101    1
    80   140   139    2
    81    47    48    1
    82    96    95    1
    83    51    48    1
    84   145   139   am
    85   136   134   ar
    86    13    15    1
    87    13    14    1
    88   139   138    1
    89   134   133    1
    90    95    94    1
    91    48    49    1
    92   150   151    1
    93   150   152    1
    94   101    98    1
    95   131   130    2
    96   138   141    1
    97   138   137    1
    98    98    99    1
    99    98    97    1
   100   133   132    1
   101    49    50    2
   102    94    93    1
   103   130   137   am
   104   130   129    1
   105   141   142    1
   106    99   100    2
   107   132   129    1
   108    93    92    1
   109    97    90   am
   110    69    70    1
   111    69    68    1
   112    86    85   ar
   113   144   142    1
   114   129   128    1
   115    70    71    2
   116   167   166    1
   117   127   125    1
   118   142   143    1
   119   126   125    1
   120    87    85   ar
   121    91    90    2
   122    90    89    1
   123    85    84    1
   124   125   124    2
   125    92    89    1
   126    89    88    1
   127   166   163    1
   128   162   163    1
   129    67    66    2
   130   116   114   ar
   131   124   123    1
   132    88    81   am
   133    84    83    1
   134   163   164    1
   135    66    65    1
   136    65    64    1
   137   123   122    1
   138    83    80    1
   139   114   115   ar
   140   114   113    1
   141    81    80    1
   142    81    82    2
   143    80    79    1
   144   113   110    1
   145    59    58    2
   146   164   165    2
   147    64    58   am
   148   122   121    1
   149   110   109    1
   150   110   111    1
   151    58    57    1
   152   108   107    2
   153   109   107   am
   154   107   106    1
   155    75    74    2
   156    79    74   am
   157   121   118    1
   158   106   105    1
   159   111   112    2
   160    74    73    1
   161    57    60    1
   162    57    56    1
   163   117   118    1
   164    60    61    1
   165   118   119    1
   166    78    76    1
   167    73    72    1
   168    73    76    1
   169   119   120    2
   170    61    62    1
   171    61    63    1
   172    76    77    1
