@<TRIPOS>MOLECULE
tmp/4g5dA00.pdb
 246 243 0 0 0
SMALL
GASTEIGER

@<TRIPOS>ATOM
      1  N         32.8700    7.3650   20.2440 N.3    22  GLY22      -0.1210
      2  CA        33.8860    8.3710   20.5360 C.3    22  GLY22       0.1956
      3  C         33.3790    9.3530   21.5770 C.2    22  GLY22       0.2612
      4  O         32.1820    9.6810   21.5800 O.2    22  GLY22      -0.2717
      5  N         34.2560    9.8120   22.4710 N.am   23  VAL23      -0.1965
      6  CA        33.8250   10.7850   23.4860 C.3    23  VAL23       0.1727
      7  C         34.5960   12.1150   23.5230 C.2    23  VAL23       0.2616
      8  O         34.4710   12.8600   24.4870 O.2    23  VAL23      -0.2715
      9  CB        33.6920   10.1770   24.9310 C.3    23  VAL23       0.0290
     10  CG1       32.7750    8.9690   24.9170 C.3    23  VAL23       0.0023
     11  CG2       35.0450    9.8040   25.4960 C.3    23  VAL23       0.0023
     12  N         35.3400   12.4310   22.4630 N.am   24  TRP24      -0.1960
     13  CA        35.9550   13.7560   22.3140 C.3    24  TRP24       0.1771
     14  C         34.8650   14.8240   22.3250 C.2    24  TRP24       0.2619
     15  O         33.8510   14.6960   21.6210 O.2    24  TRP24      -0.2715
     16  CB        36.6970   13.8540   20.9690 C.3    24  TRP24       0.0590
     17  CG        37.4110   15.1460   20.7590 C.ar   24  TRP24       0.0006
     18  CD1       38.0840   15.8960   21.7000 C.ar   24  TRP24       0.0946
     19  CD2       37.4890   15.8720   19.5330 C.ar   24  TRP24       0.0152
     20  NE1       38.5840   17.0420   21.1090 N.ar   24  TRP24      -0.2442
     21  CE2       38.2440   17.0340   19.7740 C.ar   24  TRP24       0.0810
     22  CE3       36.9970   15.6380   18.2380 C.ar   24  TRP24       0.0012
     23  CZ2       38.5100   17.9730   18.7720 C.ar   24  TRP24       0.0191
     24  CZ3       37.2720   16.5740   17.2420 C.ar   24  TRP24       0.0001
     25  CH2       38.0190   17.7160   17.5170 C.ar   24  TRP24       0.0015
     26  N         35.0700   15.8570   23.1380 N.am   25  GLN25      -0.1977
     27  CA        34.1680   17.0130   23.2280 C.3    25  GLN25       0.1601
     28  C         32.8620   16.7020   23.9390 C.2    25  GLN25       0.2287
     29  O         31.9740   17.5470   24.0110 O.2    25  GLN25      -0.2864
     30  CB        33.9570   17.6790   21.8510 C.3    25  GLN25       0.0394
     31  CG        35.2760   18.1140   21.1950 C.3    25  GLN25       0.0908
     32  CD        35.1130   18.9720   19.9490 C.2    25  GLN25       0.2608
     33  OE1       35.3290   20.1850   19.9930 O.2    25  GLN25      -0.2717
     34  NE2       34.7680   18.3440   18.8210 N.am   25  GLN25      -0.0878
     35  N         35.8930    4.9820   22.9780 N.3    48  ASP48      -0.1239
     36  CA        37.1580    5.6660   22.7530 C.3    48  ASP48       0.1674
     37  C         37.2690    6.9870   23.5360 C.2    48  ASP48       0.2266
     38  O         36.5450    7.9460   23.2580 O.2    48  ASP48      -0.2867
     39  CB        37.3500    5.9620   21.2670 C.3    48  ASP48       0.1410
     40  CG        38.7220    6.5600   20.9800 C.2    48  ASP48       0.3668
     41  OD1       39.6780    5.7750   20.8840 O.co2  48  ASP48      -0.2456
     42  OD2       38.8500    7.8020   20.8740 O.co2  48  ASP48      -0.2456
     43  N         40.8120   14.4910   26.9450 N.3    53  TYR53      -0.1241
     44  CA        39.3870   14.8080   26.9440 C.3    53  TYR53       0.1605
     45  C         38.8820   15.0610   28.3600 C.2    53  TYR53       0.2264
     46  O         37.7770   15.5810   28.5240 O.2    53  TYR53      -0.2867
     47  CB        38.5350   13.6940   26.3140 C.3    53  TYR53       0.0534
     48  CG        38.9730   13.2040   24.9420 C.ar   53  TYR53      -0.0201
     49  CD1       39.7370   14.0050   24.0840 C.ar   53  TYR53      -0.0009
     50  CD2       38.5870   11.9490   24.4980 C.ar   53  TYR53      -0.0009
     51  CE1       40.1190   13.5380   22.8200 C.ar   53  TYR53       0.0417
     52  CE2       38.9650   11.4750   23.2440 C.ar   53  TYR53       0.0417
     53  CZ        39.7340   12.2690   22.4170 C.ar   53  TYR53       0.1957
     54  OH        40.1190   11.7920   21.1690 O.3    53  TYR53      -0.2866
     55  N         44.3230    7.3290   25.5750 N.3    78  LYS78      -0.1245
     56  CA        45.4910    7.8350   24.8470 C.3    78  LYS78       0.1561
     57  C         46.4210    8.6390   25.7420 C.2    78  LYS78       0.2260
     58  O         45.9890    9.3070   26.7000 O.2    78  LYS78      -0.2867
     59  CB        45.0690    8.7130   23.6620 C.3    78  LYS78       0.0271
     60  CG        43.8700    8.1930   22.9050 C.3    78  LYS78       0.0035
     61  CD        43.6190    8.9960   21.6220 C.3    78  LYS78       0.0206
     62  CE        42.4040    8.4560   20.8520 C.3    78  LYS78       0.1093
     63  NZ        41.1040    8.7990   21.5430 N.3    78  LYS78      -0.1314
     64  N         48.8080    9.6300   21.3250 N.3   111  HIS111     -0.1226
     65  CA        47.7430   10.4630   20.7430 C.3   111  HIS111      0.1752
     66  C         48.1790   11.1670   19.4490 C.2   111  HIS111      0.2596
     67  O         47.4100   11.2000   18.4690 O.2   111  HIS111     -0.2718
     68  CB        47.2330   11.4760   21.7980 C.3   111  HIS111      0.0759
     69  CG        45.8370   11.9740   21.5570 C.ar  111  HIS111      0.0818
     70  ND1       44.9970   12.3670   22.5780 N.ar  111  HIS111     -0.2268
     71  CD2       45.1340   12.1570   20.4060 C.ar  111  HIS111      0.1154
     72  CE1       43.8370   12.7590   22.0720 C.ar  111  HIS111      0.1986
     73  NE2       43.8930   12.6330   20.7570 N.ar  111  HIS111     -0.2212
     74  N         49.3860   11.7500   19.4490 N.am  112  TRP112     -0.1976
     75  CA        49.9710   12.3790   18.2560 C.3   112  TRP112      0.1640
     76  C         51.4690   12.1570   18.2810 C.2   112  TRP112      0.2290
     77  O         52.0760   12.0840   19.3720 O.2   112  TRP112     -0.2864
     78  CB        49.7650   13.9020   18.2440 C.3   112  TRP112      0.0576
     79  CG        48.3560   14.3700   18.1800 C.ar  112  TRP112      0.0006
     80  CD1       47.4850   14.4840   19.2130 C.ar  112  TRP112      0.0946
     81  CD2       47.6620   14.8140   17.0100 C.ar  112  TRP112      0.0152
     82  NE1       46.2650   14.9500   18.7550 N.ar  112  TRP112     -0.2442
     83  CE2       46.3520   15.1560   17.4030 C.ar  112  TRP112      0.0810
     84  CE3       48.0170   14.9380   15.6610 C.ar  112  TRP112      0.0012
     85  CZ2       45.3950   15.6270   16.4990 C.ar  112  TRP112      0.0191
     86  CZ3       47.0640   15.3950   14.7610 C.ar  112  TRP112      0.0001
     87  CH2       45.7760   15.7470   15.1860 C.ar  112  TRP112      0.0015
     88  N         48.2640    6.9260   17.1120 N.3   148  SER148     -0.1202
     89  CA        47.2030    7.6830   16.4750 C.3   148  SER148      0.2020
     90  C         47.8490    8.8490   15.7560 C.2   148  SER148      0.2618
     91  O         48.8350    9.4160   16.2540 O.2   148  SER148     -0.2717
     92  CB        46.1940    8.1660   17.5260 C.3   148  SER148      0.2103
     93  OG        45.3170    9.1300   16.9920 O.3   148  SER148     -0.2182
     94  N         47.3370    9.1840   14.5720 N.am  149  ASN149     -0.1974
     95  CA        47.8830   10.2830   13.7730 C.3   149  ASN149      0.1688
     96  C         49.3160   10.0960   13.2870 C.2   149  ASN149      0.2292
     97  O         50.0400   11.0660   13.0820 O.2   149  ASN149     -0.2864
     98  CB        47.7560   11.6100   14.5360 C.3   149  ASN149      0.1181
     99  CG        46.3370   11.9240   14.8700 C.2   149  ASN149      0.2629
    100  OD1       45.4910   11.9280   13.9920 O.2   149  ASN149     -0.2716
    101  ND2       46.0460   12.1420   16.1510 N.am  149  ASN149     -0.0877
    102  N         45.0540    5.1130   14.5870 N.3   170  GLN170     -0.1245
    103  CA        43.7920    5.8250   14.5120 C.3   170  GLN170      0.1566
    104  C         44.0560    7.1860   13.8690 C.2   170  GLN170      0.2260
    105  O         44.8260    7.9840   14.4060 O.2   170  GLN170     -0.2867
    106  CB        43.2340    6.0090   15.9200 C.3   170  GLN170      0.0367
    107  CG        41.8300    6.6150   15.9890 C.3   170  GLN170      0.0905
    108  CD        41.3980    6.9650   17.4090 C.2   170  GLN170      0.2608
    109  OE1       41.2070    8.1340   17.7290 O.2   170  GLN170     -0.2717
    110  NE2       41.2060    5.9500   18.2570 N.am  170  GLN170     -0.0878
    111  N         39.0310    8.1910   12.9190 N.3   196  TRP196     -0.1227
    112  CA        38.4860    9.2900   13.7110 C.3   196  TRP196      0.1737
    113  C         37.8240   10.3760   12.8640 C.2   196  TRP196      0.2596
    114  O         38.0310   10.4480   11.6510 O.2   196  TRP196     -0.2718
    115  CB        39.4520    9.8190   14.7830 C.3   196  TRP196      0.0564
    116  CG        40.7420   10.5820   14.4220 C.ar  196  TRP196      0.0003
    117  CD1       42.0300   10.1390   14.5980 C.ar  196  TRP196      0.0946
    118  CD2       40.8450   11.9440   14.0050 C.ar  196  TRP196      0.0152
    119  NE1       42.9240   11.1380   14.2680 N.ar  196  TRP196     -0.2442
    120  CE2       42.2200   12.2570   13.9120 C.ar  196  TRP196      0.0810
    121  CE3       39.9110   12.9350   13.7030 C.ar  196  TRP196      0.0012
    122  CZ2       42.6730   13.5130   13.5060 C.ar  196  TRP196      0.0191
    123  CZ3       40.3610   14.1760   13.2910 C.ar  196  TRP196      0.0001
    124  CH2       41.7300   14.4570   13.1950 C.ar  196  TRP196      0.0015
    125  N         36.9860   11.1880   13.5090 N.am  197  SER197     -0.1938
    126  CA        36.0410   12.0530   12.8020 C.3   197  SER197      0.2040
    127  C         35.3830   11.3890   11.5720 C.2   197  SER197      0.2485
    128  O         35.3160   11.9840   10.4870 O.2   197  SER197     -0.2729
    129  CB        36.6800   13.3870   12.4440 C.3   197  SER197      0.2129
    130  OG        37.0590   14.0470   13.6430 O.3   197  SER197     -0.2179
    131  N         34.8580   10.1690   11.7530 N.am  198  PRO198     -0.2715
    132  CA        34.3250    9.4300   10.6060 C.3   198  PRO198      0.1536
    133  C         33.1340   10.1340    9.9610 C.2   198  PRO198      0.2598
    134  O         32.8980    9.9380    8.7750 O.2   198  PRO198     -0.2715
    135  CB        33.8950    8.0950   11.2390 C.3   198  PRO198      0.0310
    136  CG        33.5590    8.4370   12.6470 C.3   198  PRO198      0.0237
    137  CD        34.5910    9.4760   13.0250 C.3   198  PRO198      0.0939
    138  N         32.4010   10.9470   10.7180 N.am  199  LEU199     -0.1978
    139  CA        31.2700   11.6730   10.1470 C.3   199  LEU199      0.1596
    140  C         31.7220   13.0790    9.7500 C.2   199  LEU199      0.2287
    141  O         30.9080   13.9630    9.4320 O.2   199  LEU199     -0.2864
    142  CB        30.1110   11.7310   11.1440 C.3   199  LEU199      0.0297
    143  CG        29.6440   10.3900   11.6970 C.3   199  LEU199      0.0022
    144  CD1       28.4760   10.5930   12.6640 C.3   199  LEU199      0.0001
    145  CD2       29.2130    9.4920   10.5470 C.3   199  LEU199      0.0001
    146  N         33.0880   15.2060   11.7150 N.3   201  GLN201     -0.1231
    147  CA        32.7430   16.1040   12.8100 C.3   201  GLN201      0.1698
    148  C         31.3500   16.6760   12.5910 C.2   201  GLN201      0.2592
    149  O         31.0000   17.7290   13.1240 O.2   201  GLN201     -0.2718
    150  CB        33.8120   17.1950   12.9590 C.3   201  GLN201      0.0381
    151  CG        35.2200   16.5930   12.9590 C.3   201  GLN201      0.0905
    152  CD        36.2860   17.5520   13.4210 C.2   201  GLN201      0.2608
    153  OE1       36.0120   18.7250   13.6600 O.2   201  GLN201     -0.2717
    154  NE2       37.5200   17.0560   13.5510 N.am  201  GLN201     -0.0878
    155  N         30.5470   15.9480   11.8110 N.am  202  GLY202     -0.1957
    156  CA        29.1820   16.3580   11.5160 C.3   202  GLY202      0.1869
    157  C         29.0440   17.1230   10.2110 C.2   202  GLY202      0.2309
    158  O         27.9250   17.2930    9.7090 O.2   202  GLY202     -0.2863
    159  N         27.4130   15.5750    6.8640 N.3   205  LEU205     -0.1245
    160  CA        26.1130   14.9210    6.9120 C.3   205  LEU205      0.1561
    161  C         25.0770   15.5800    6.0250 C.2   205  LEU205      0.2260
    162  O         23.9970   15.0280    5.8280 O.2   205  LEU205     -0.2867
    163  CB        25.6110   14.8180    8.3500 C.3   205  LEU205      0.0270
    164  CG        26.5510   14.0180    9.2480 C.3   205  LEU205      0.0019
    165  CD1       25.9280   13.8520   10.6150 C.3   205  LEU205      0.0001
    166  CD2       26.8850   12.6720    8.6240 C.3   205  LEU205      0.0001
    167  N         24.7090    9.6870    7.7530 N.3   222  ALA222     -0.1245
    168  CA        25.6340    9.1790    8.7640 C.3   222  ALA222      0.1562
    169  C         25.7130    7.6550    8.6900 C.2   222  ALA222      0.2260
    170  O         26.8040    7.0760    8.7410 O.2   222  ALA222     -0.2867
    171  CB        25.2240    9.6350   10.1380 C.3   222  ALA222      0.0290
    172  N         34.5720    5.0060   15.1580 N.3   237  ILE237     -0.1231
    173  CA        34.1410    5.4830   16.4670 C.3   237  ILE237      0.1678
    174  C         33.3470    6.7880   16.4450 C.2   237  ILE237      0.2434
    175  O         33.7620    7.7730   17.0570 O.2   237  ILE237     -0.2733
    176  CB        35.3650    5.6670   17.3870 C.3   237  ILE237      0.0265
    177  CG1       36.5200    6.3440   16.6570 C.3   237  ILE237      0.0019
    178  CG2       35.8790    4.2960   17.8370 C.3   237  ILE237      0.0020
    179  CD1       37.6780    6.6230   17.5870 C.3   237  ILE237      0.0001
    180  N         32.1900    6.7930   15.7660 N.am  238  PRO238     -0.2718
    181  CA        31.4110    8.0330   15.7070 C.3   238  PRO238      0.1535
    182  C         31.0350    8.5290   17.1030 C.2   238  PRO238      0.2598
    183  O         30.7750    7.7000   17.9820 O.2   238  PRO238     -0.2715
    184  CB        30.1380    7.6120   14.9490 C.3   238  PRO238      0.0310
    185  CG        29.9950    6.1270   15.2110 C.3   238  PRO238      0.0237
    186  CD        31.4510    5.6450   15.2080 C.3   238  PRO238      0.0939
    187  N         31.0040    9.8510   17.2850 N.am  239  LYS239     -0.1964
    188  CA        30.6690   10.5030   18.5520 C.3   239  LYS239      0.1728
    189  C         29.2970   11.1470   18.4600 C.2   239  LYS239      0.2617
    190  O         28.9730   11.8060   17.4690 O.2   239  LYS239     -0.2715
    191  CB        31.7140   11.6010   18.8740 C.3   239  LYS239      0.0311
    192  CG        31.4040   12.5210   20.0790 C.3   239  LYS239      0.0038
    193  CD        30.7600   13.8550   19.6580 C.3   239  LYS239      0.0206
    194  CE        30.3570   14.7050   20.8570 C.3   239  LYS239      0.1093
    195  NZ        29.5150   15.8840   20.4110 N.3   239  LYS239     -0.1314
    196  N         28.4890   10.9400   19.4950 N.am  240  SER240     -0.1936
    197  CA        27.3330   11.7830   19.7500 C.3   240  SER240      0.2055
    198  C         27.0510   11.7980   21.2430 C.2   240  SER240      0.2643
    199  O         27.3750   10.8470   21.9740 O.2   240  SER240     -0.2714
    200  CB        26.0880   11.2910   18.9950 C.3   240  SER240      0.2130
    201  OG        24.9500   12.0520   19.3900 O.3   240  SER240     -0.2179
    202  N         26.4600   12.8880   21.7030 N.am  241  VAL241     -0.1963
    203  CA        26.0030   12.9370   23.0830 C.3   241  VAL241      0.1727
    204  C         24.5030   12.6970   23.1600 C.2   241  VAL241      0.2616
    205  O         23.9260   12.7510   24.2470 O.2   241  VAL241     -0.2715
    206  CB        26.3390   14.2850   23.7420 C.3   241  VAL241      0.0290
    207  CG1       27.8390   14.4460   23.8740 C.3   241  VAL241      0.0023
    208  CG2       25.7450   15.4260   22.9340 C.3   241  VAL241      0.0023
    209  N         23.8710   12.4770   22.0030 N.am  242  HIS242     -0.1973
    210  CA        22.4130   12.3220   21.9210 C.3   242  HIS242      0.1656
    211  C         22.0170   10.8590   21.7560 C.2   242  HIS242      0.2291
    212  O         22.4990   10.1790   20.8520 O.2   242  HIS242     -0.2864
    213  CB        21.8490   13.1130   20.7390 C.3   242  HIS242      0.0771
    214  CG        21.9130   14.5920   20.9160 C.ar  242  HIS242      0.0820
    215  ND1       22.9010   15.3720   20.3410 N.ar  242  HIS242     -0.2267
    216  CD2       21.1280   15.4450   21.6150 C.ar  242  HIS242      0.1154
    217  CE1       22.7110   16.6310   20.6720 C.ar  242  HIS242      0.1986
    218  NE2       21.6410   16.7070   21.4450 N.ar  242  HIS242     -0.2212
    219  N         20.8770    9.5970   18.2490 N.3   245  ARG245     -0.1245
    220  CA        21.9320    9.4950   17.2390 C.3   245  ARG245      0.1563
    221  C         22.8670    8.3400   17.5280 C.2   245  ARG245      0.2260
    222  O         23.3700    7.6800   16.6160 O.2   245  ARG245     -0.2867
    223  CB        22.7140   10.8130   17.1370 C.3   245  ARG245      0.0307
    224  CG        21.9040   11.9350   16.4900 C.3   245  ARG245      0.0489
    225  CD        22.5960   13.2840   16.6290 C.3   245  ARG245      0.2205
    226  NE        21.9380   14.3180   15.8280 N.pl3 245  ARG245     -0.0865
    227  CZ        22.3130   15.5940   15.8050 C.cat 245  ARG245      0.5346
    228  NH1       23.3220   16.0030   16.5510 N.pl3 245  ARG245      0.1354
    229  NH2       21.6590   16.4730   15.0480 N.pl3 245  ARG245      0.1354
    230  N         20.9600    5.4150   16.2340 N.3   248  GLU248     -0.1231
    231  CA        20.9220    5.5090   14.7760 C.3   248  GLU248      0.1699
    232  C         22.2500    5.0710   14.1710 C.2   248  GLU248      0.2592
    233  O         22.2900    4.2510   13.2470 O.2   248  GLU248     -0.2718
    234  CB        20.6430    6.9580   14.3570 C.3   248  GLU248      0.0402
    235  CG        20.8400    7.2050   12.8640 C.3   248  GLU248      0.1161
    236  CD        20.5580    8.6370   12.4320 C.2   248  GLU248      0.3649
    237  OE1       19.5350    9.2110   12.8540 O.co2 248  GLU248     -0.2457
    238  OE2       21.3670    9.1770   11.6500 O.co2 248  GLU248     -0.2457
    239  N         23.3410    5.6270   14.6820 N.am  249  ASN249     -0.1974
    240  CA        24.6630    5.3370   14.1270 C.3   249  ASN249      0.1688
    241  C         25.0170    3.8520   14.1340 C.2   249  ASN249      0.2292
    242  O         25.6690    3.3560   13.2080 O.2   249  ASN249     -0.2864
    243  CB        25.7350    6.1360   14.8590 C.3   249  ASN249      0.1181
    244  CG        25.6410    7.6170   14.5730 C.2   249  ASN249      0.2629
    245  OD1       24.8500    8.0450   13.7390 O.2   249  ASN249     -0.2716
    246  ND2       26.4260    8.4160   15.2940 N.am  249  ASN249     -0.0877
@<TRIPOS>BOND
     1   162   161    2
     2   161   160    1
     3   159   160    1
     4   160   163    1
     5   167   168    1
     6   163   164    1
     7   166   164    1
     8   169   170    2
     9   169   168    1
    10   168   171    1
    11   134   133    2
    12   164   165    1
    13   141   140    2
    14   158   157    2
    15   140   139    1
    16   133   132    1
    17   133   138   am
    18   139   138    1
    19   139   142    1
    20   157   156    1
    21   128   127    2
    22   145   143    1
    23   132   135    1
    24   132   131    1
    25   142   143    1
    26   135   136    1
    27   156   155    1
    28   127   131   am
    29   127   126    1
    30   238   236   ar
    31   114   113    2
    32   143   144    1
    33   146   147    1
    34   131   137    1
    35   155   148   am
    36   236   237   ar
    37   236   235    1
    38   129   126    1
    39   129   130    1
    40   148   147    1
    41   148   149    2
    42   136   137    1
    43   126   125    1
    44   147   150    1
    45   113   125   am
    46   113   112    1
    47   235   234    1
    48   111   112    1
    49   150   151    1
    50   151   152    1
    51    97    96    2
    52   124   123   ar
    53   124   122   ar
    54   242   241    2
    55   233   232    2
    56    96    95    1
    57   123   121   ar
    58   152   154   am
    59   152   153    2
    60   122   120   ar
    61   121   118   ar
    62   112   115    1
    63   245   244    2
    64    95    98    1
    65    95    94    1
    66   104   105    2
    67   104   103    1
    68   120   118   ar
    69   120   119   ar
    70   100    99    2
    71   118   116   ar
    72   240   241    1
    73   240   239    1
    74   240   243    1
    75   232   239   am
    76   232   231    1
    77   119   117   ar
    78   234   231    1
    79   116   117   ar
    80   116   115    1
    81   103   102    1
    82   103   106    1
    83    98    99    1
    84    94    90   am
    85   244   243    1
    86   244   246   am
    87    86    87   ar
    88    86    84   ar
    89   231   230    1
    90    99   101   am
    91   184   185    1
    92   184   181    1
    93   229   227    1
    94   172   173    1
    95    87    85   ar
    96   186   185    1
    97   186   180    1
    98    84    81   ar
    99   181   180    1
   100   181   182    1
   101    90    91    2
   102    90    89    1
   103   180   174   am
   104   227   226    2
   105   227   228    1
   106   226   225    1
   107   106   107    1
   108   107   108    1
   109   174   173    1
   110   174   175    2
   111   173   176    1
   112    89    88    1
   113    89    92    1
   114   224   225    1
   115   224   223    1
   116    85    83   ar
   117   222   221    2
   118   177   176    1
   119   177   179    1
   120    93    92    1
   121    81    83   ar
   122    81    79   ar
   123   182   187   am
   124   182   183    2
   125   223   220    1
   126   220   221    1
   127   220   219    1
   128    24    25   ar
   129    24    22   ar
   130   187   188    1
   131   176   178    1
   132    83    82   ar
   133   108   109    2
   134   108   110   am
   135   190   189    2
   136    25    23   ar
   137    79    78    1
   138    79    80   ar
   139    22    19   ar
   140    78    75    1
   141    75    76    1
   142    75    74    1
   143    76    77    2
   144   189   188    1
   145   189   196   am
   146    67    66    2
   147   188   191    1
   148    82    80   ar
   149    23    21   ar
   150    34    32   am
   151   191   192    1
   152   200   201    1
   153   200   197    1
   154    74    66   am
   155    66    65    1
   156   196   197    1
   157    19    21   ar
   158    19    17   ar
   159   193   192    1
   160   193   194    1
   161   197   198    1
   162    21    20   ar
   163    32    33    2
   164    32    31    1
   165     1     2    1
   166   215   217   ar
   167   215   214   ar
   168    71    73   ar
   169    71    69   ar
   170   195   194    1
   171     2     3    1
   172   217   218   ar
   173   213   214    1
   174   213   210    1
   175    65    64    1
   176    65    68    1
   177    73    72   ar
   178    17    16    1
   179    17    18   ar
   180   212   211    2
   181    62    63    1
   182    62    61    1
   183    42    40   ar
   184    41    40   ar
   185   214   216   ar
   186    16    13    1
   187    40    39    1
   188    20    18   ar
   189    54    53    1
   190    31    30    1
   191   198   202   am
   192   198   199    2
   193    39    36    1
   194   218   216   ar
   195    69    68    1
   196    69    70   ar
   197     3     4    2
   198     3     5   am
   199    15    14    2
   200    61    60    1
   201   202   203    1
   202   211   210    1
   203    30    27    1
   204   210   209    1
   205   209   204   am
   206    72    70   ar
   207    13    14    1
   208    13    12    1
   209    14    26   am
   210    53    51   ar
   211    53    52   ar
   212    12     7   am
   213     5     6    1
   214    36    35    1
   215    36    37    1
   216    51    49   ar
   217    60    59    1
   218   208   206    1
   219   203   204    1
   220   203   206    1
   221    26    27    1
   222   204   205    2
   223    27    28    1
   224    52    50   ar
   225    38    37    2
   226     6     7    1
   227     6     9    1
   228     7     8    2
   229    59    56    1
   230   206   207    1
   231    28    29    2
   232    49    48   ar
   233    50    48   ar
   234    56    55    1
   235    56    57    1
   236    10     9    1
   237     9    11    1
   238    48    47    1
   239    57    58    2
   240    47    44    1
   241    44    43    1
   242    44    45    1
   243    45    46    2
