@<TRIPOS>MOLECULE
tmp/4g5fB00.pdb
 120 113 0 0 0
SMALL
GASTEIGER

@<TRIPOS>ATOM
      1  N         -3.1990   -7.0350   29.8340 N.3    37  PRO37      -0.2102
      2  CA        -2.3520   -8.0940   29.2610 C.3    37  PRO37       0.1504
      3  C         -2.0690   -9.1580   30.2660 C.2    37  PRO37       0.2576
      4  O         -1.6150   -8.8550   31.3500 O.2    37  PRO37      -0.2718
      5  CB        -1.0720   -7.3610   28.8700 C.3    37  PRO37       0.0282
      6  CG        -1.5010   -5.8670   28.7780 C.3    37  PRO37       0.0208
      7  CD        -2.5100   -5.7350   29.8820 C.3    37  PRO37       0.0893
      8  N         -2.4050  -10.3990   29.9300 N.am   38  THR38      -0.1939
      9  CA        -2.1060  -11.4980   30.8350 C.3    38  THR38       0.2028
     10  C         -1.4610  -12.6710   30.1170 C.2    38  THR38       0.2642
     11  O         -1.4650  -12.7690   28.8830 O.2    38  THR38      -0.2714
     12  CB        -3.3670  -12.0120   31.5860 C.3    38  THR38       0.1808
     13  OG1       -4.1510  -12.8710   30.7430 O.3    38  THR38      -0.2208
     14  CG2       -4.2270  -10.8690   32.0480 C.3    38  THR38       0.0379
     15  N         -0.9160  -13.5790   30.9080 N.am   39  MET39      -0.1962
     16  CA        -0.3870  -14.8080   30.3590 C.3    39  MET39       0.1736
     17  C         -1.2550  -15.9890   30.7610 C.2    39  MET39       0.2617
     18  O         -0.7320  -17.0970   30.8960 O.2    39  MET39      -0.2715
     19  CB         1.0270  -15.0490   30.8290 C.3    39  MET39       0.0427
     20  CG         1.9780  -13.9420   30.4570 C.3    39  MET39       0.0599
     21  SD         3.7240  -14.4300   30.4630 S.3    39  MET39      -0.1393
     22  CE         3.9620  -14.9680   32.1730 C.3    39  MET39       0.0692
     23  N         -2.5670  -15.7810   30.9320 N.am   40  GLY40      -0.1955
     24  CA        -3.4750  -16.8770   31.3630 C.3    40  GLY40       0.1869
     25  C         -3.2270  -17.3560   32.7840 C.2    40  GLY40       0.2309
     26  O         -2.4440  -16.7360   33.5010 O.2    40  GLY40      -0.2863
     27  N         -4.9700  -10.9050   38.8280 N.3    46  HIS46      -0.1241
     28  CA        -5.4680  -10.5190   37.4960 C.3    46  HIS46       0.1621
     29  C         -6.8580   -9.8510   37.5920 C.2    46  HIS46       0.2264
     30  O         -7.1000   -8.7960   36.9880 O.2    46  HIS46      -0.2867
     31  CB        -5.4710  -11.6890   36.5110 C.3    46  HIS46       0.0745
     32  CG        -4.1370  -12.3560   36.3700 C.ar   46  HIS46       0.0817
     33  ND1       -3.8640  -13.5980   36.9010 N.ar   46  HIS46      -0.2268
     34  CD2       -2.9870  -11.9320   35.7980 C.ar   46  HIS46       0.1154
     35  CE1       -2.6120  -13.9280   36.6340 C.ar   46  HIS46       0.1986
     36  NE2       -2.0600  -12.9350   35.9560 N.ar   46  HIS46      -0.2212
     37  N         -6.9420   -6.3010   38.2150 N.3    49  LEU49      -0.1245
     38  CA        -6.6200   -5.4700   37.0110 C.3    49  LEU49       0.1561
     39  C         -7.8730   -5.2320   36.2040 C.2    49  LEU49       0.2260
     40  O         -8.1950   -4.0750   35.8670 O.2    49  LEU49      -0.2867
     41  CB        -5.4930   -6.0710   36.1700 C.3    49  LEU49       0.0270
     42  CG        -4.2240   -6.4800   36.9560 C.3    49  LEU49       0.0019
     43  CD1       -3.2260   -7.2840   36.1110 C.3    49  LEU49       0.0001
     44  CD2       -3.5500   -5.3000   37.5490 C.3    49  LEU49       0.0001
     45  N         -1.9270  -14.7050   26.2590 N.3    66  PHE66      -0.1241
     46  CA        -0.8560  -15.0750   25.3880 C.3    66  PHE66       0.1605
     47  C          0.4070  -15.4450   26.1620 C.2    66  PHE66       0.2264
     48  O          0.8870  -14.7020   27.0110 O.2    66  PHE66      -0.2867
     49  CB        -0.5320  -13.9470   24.3960 C.3    66  PHE66       0.0534
     50  CG         0.5670  -14.3120   23.4490 C.ar   66  PHE66      -0.0203
     51  CD1        0.4190  -15.4090   22.5990 C.ar   66  PHE66      -0.0042
     52  CD2        1.7640  -13.6040   23.4470 C.ar   66  PHE66      -0.0042
     53  CE1        1.4420  -15.7810   21.7420 C.ar   66  PHE66      -0.0003
     54  CE2        2.7950  -13.9610   22.5980 C.ar   66  PHE66      -0.0003
     55  CZ         2.6300  -15.0580   21.7290 C.ar   66  PHE66      -0.0000
     56  N          4.1330  -15.7520   25.9990 N.3    68  ASN68      -0.1240
     57  CA         5.3270  -15.2850   25.2630 C.3    68  ASN68       0.1653
     58  C          6.3760  -16.4210   25.1810 C.2    68  ASN68       0.2266
     59  O          6.8570  -16.8850   26.2320 O.2    68  ASN68      -0.2867
     60  CB         5.9070  -14.0460   25.9660 C.3    68  ASN68       0.1155
     61  CG         6.7210  -13.1720   25.0340 C.2    68  ASN68       0.2627
     62  OD1        6.5000  -13.1740   23.8260 O.2    68  ASN68      -0.2716
     63  ND2        7.6710  -12.4190   25.5920 N.am   68  ASN68      -0.0877
     64  N          9.2300   -9.1290   26.8320 N.3   123  VAL123     -0.1245
     65  CA         8.0920   -8.4440   27.4060 C.3   123  VAL123      0.1561
     66  C          7.7530   -7.1380   26.6650 C.2   123  VAL123      0.2260
     67  O          6.6470   -7.0130   26.1430 O.2   123  VAL123     -0.2867
     68  CB         8.3790   -8.2010   28.9290 C.3   123  VAL123      0.0252
     69  CG1        7.2220   -7.5540   29.5820 C.3   123  VAL123      0.0019
     70  CG2        8.7520   -9.5560   29.6340 C.3   123  VAL123      0.0019
     71  N          6.3430   -7.7280   23.0920 N.3   126  VAL126     -0.1231
     72  CA         4.9550   -8.2260   22.9960 C.3   126  VAL126      0.1692
     73  C          3.9830   -7.1300   23.4660 C.2   126  VAL126      0.2591
     74  O          2.9080   -6.9370   22.8680 O.2   126  VAL126     -0.2718
     75  CB         4.7820   -9.5720   23.6960 C.3   126  VAL126      0.0266
     76  CG1        4.8930   -9.3940   25.1930 C.3   126  VAL126      0.0020
     77  CG2        3.4270  -10.2030   23.3690 C.3   126  VAL126      0.0020
     78  N          4.3890   -6.3400   24.4650 N.am  127  VAL127     -0.1980
     79  CA         3.5280   -5.2890   24.9600 C.3   127  VAL127      0.1595
     80  C          3.3040   -4.2440   23.9180 C.2   127  VAL127      0.2287
     81  O          2.1410   -3.8210   23.7040 O.2   127  VAL127     -0.2864
     82  CB         3.9790   -4.6430   26.2680 C.3   127  VAL127      0.0276
     83  CG1        3.2110   -3.3530   26.4760 C.3   127  VAL127      0.0022
     84  CG2        3.7440   -5.6100   27.4400 C.3   127  VAL127      0.0022
     85  N          0.9320   -5.5580   21.4620 N.3   130  LEU130     -0.1245
     86  CA        -0.4430   -5.6580   21.8980 C.3   130  LEU130      0.1561
     87  C         -1.0560   -4.2870   21.8290 C.2   130  LEU130      0.2260
     88  O         -2.2130   -4.1670   21.4880 O.2   130  LEU130     -0.2867
     89  CB        -0.5620   -6.1960   23.3070 C.3   130  LEU130      0.0270
     90  CG        -0.2740   -7.6620   23.5120 C.3   130  LEU130      0.0019
     91  CD1       -0.2420   -7.9560   25.0150 C.3   130  LEU130      0.0001
     92  CD2       -1.3210   -8.4370   22.8580 C.3   130  LEU130      0.0001
     93  N         -1.2460   -2.7710   34.4390 N.3   141  PHE141     -0.1241
     94  CA        -0.2460   -3.7220   34.9080 C.3   141  PHE141      0.1605
     95  C         -0.1670   -3.7200   36.4280 C.2   141  PHE141      0.2264
     96  O         -0.4290   -2.6910   37.0590 O.2   141  PHE141     -0.2867
     97  CB         1.1170   -3.3930   34.3150 C.3   141  PHE141      0.0534
     98  CG         1.2050   -3.5870   32.8200 C.ar  141  PHE141     -0.0203
     99  CD1        1.4510   -4.8540   32.2810 C.ar  141  PHE141     -0.0042
    100  CD2        1.0520   -2.4940   31.9590 C.ar  141  PHE141     -0.0042
    101  CE1        1.5230   -5.0580   30.8680 C.ar  141  PHE141     -0.0003
    102  CE2        1.1320   -2.6670   30.5480 C.ar  141  PHE141     -0.0003
    103  CZ         1.3650   -3.9620   29.9930 C.ar  141  PHE141     -0.0000
    104  N          5.0810   -7.0140   39.5580 N.3   145  ASP145     -0.1239
    105  CA         6.1700   -6.9270   38.6090 C.3   145  ASP145      0.1674
    106  C          6.6030   -5.4920   38.4050 C.2   145  ASP145      0.2266
    107  O          6.4350   -4.9390   37.3290 O.2   145  ASP145     -0.2867
    108  CB         5.7590   -7.5690   37.2970 C.3   145  ASP145      0.1410
    109  CG         5.4170   -9.0510   37.4700 C.2   145  ASP145      0.3668
    110  OD1        6.3170   -9.8010   37.9340 O.co2 145  ASP145     -0.2456
    111  OD2        4.2490   -9.4420   37.1780 O.co2 145  ASP145     -0.2456
    112  N          9.1600   -4.3880   35.6500 N.3   148  GLN148     -0.1245
    113  CA         8.5000   -4.5230   34.3970 C.3   148  GLN148      0.1566
    114  C          7.6460   -3.3090   34.1500 C.2   148  GLN148      0.2260
    115  O          7.6450   -2.7640   33.0390 O.2   148  GLN148     -0.2867
    116  CB         7.6660   -5.8110   34.3820 C.3   148  GLN148      0.0367
    117  CG         6.5010   -5.7310   33.4670 C.3   148  GLN148      0.0905
    118  CD         5.8400   -7.0660   33.2480 C.2   148  GLN148      0.2608
    119  OE1        6.5020   -8.0880   32.9820 O.2   148  GLN148     -0.2717
    120  NE2        4.5130   -7.0650   33.3460 N.am  148  GLN148     -0.0878
@<TRIPOS>BOND
     1    85    86    1
     2    88    87    2
     3    55    53   ar
     4    55    54   ar
     5    53    51   ar
     6    87    86    1
     7    86    89    1
     8    54    52   ar
     9    51    50   ar
    10    92    90    1
    11    74    73    2
    12    72    71    1
    13    72    73    1
    14    72    75    1
    15    89    90    1
    16    77    75    1
    17    52    50   ar
    18    50    49    1
    19    73    78   am
    20    90    91    1
    21    75    76    1
    22    81    80    2
    23    62    61    2
    24    80    79    1
    25    49    46    1
    26    78    79    1
    27    79    82    1
    28    61    63   am
    29    61    60    1
    30    58    57    1
    31    58    59    2
    32    57    60    1
    33    57    56    1
    34    46    47    1
    35    46    45    1
    36    67    66    2
    37    47    48    2
    38    82    83    1
    39    82    84    1
    40    66    65    1
    41    64    65    1
    42    65    68    1
    43     6     5    1
    44     6     7    1
    45     5     2    1
    46    11    10    2
    47    68    69    1
    48    68    70    1
    49     2     1    1
    50     2     3    1
    51     1     7    1
    52     8     3   am
    53     8     9    1
    54   103   102   ar
    55   103   101   ar
    56    10     9    1
    57    10    15   am
    58     3     4    2
    59    16    17    1
    60    16    19    1
    61    16    15    1
    62    20    21    1
    63    20    19    1
    64    21    22    1
    65   102   100   ar
    66    13    12    1
    67    17    18    2
    68    17    23   am
    69     9    12    1
    70   101    99   ar
    71    23    24    1
    72    24    25    1
    73    12    14    1
    74   100    98   ar
    75    99    98   ar
    76    25    26    2
    77    98    97    1
    78   119   118    2
    79   115   114    2
    80   118   120   am
    81   118   117    1
    82   117   116    1
    83   114   113    1
    84    97    94    1
    85   116   113    1
    86   113   112    1
    87    93    94    1
    88    94    95    1
    89    34    36   ar
    90    34    32   ar
    91    40    39    2
    92    36    35   ar
    93    43    42    1
    94    41    42    1
    95    41    38    1
    96    39    38    1
    97    32    31    1
    98    32    33   ar
    99    95    96    2
   100    31    28    1
   101    35    33   ar
   102    42    44    1
   103    30    29    2
   104    38    37    1
   105   111   109   ar
   106   108   109    1
   107   108   105    1
   108   107   106    2
   109   109   110   ar
   110    28    29    1
   111    28    27    1
   112   106   105    1
   113   105   104    1
