@<TRIPOS>MOLECULE
tmp/4g5fB01.pdb
 126 118 0 0 0
SMALL
GASTEIGER

@<TRIPOS>ATOM
      1  N         -3.1990   -7.0350   29.8340 N.3    37  PRO37      -0.2102
      2  CA        -2.3520   -8.0940   29.2610 C.3    37  PRO37       0.1504
      3  C         -2.0690   -9.1580   30.2660 C.2    37  PRO37       0.2576
      4  O         -1.6150   -8.8550   31.3500 O.2    37  PRO37      -0.2718
      5  CB        -1.0720   -7.3610   28.8700 C.3    37  PRO37       0.0282
      6  CG        -1.5010   -5.8670   28.7780 C.3    37  PRO37       0.0208
      7  CD        -2.5100   -5.7350   29.8820 C.3    37  PRO37       0.0893
      8  N         -2.4050  -10.3990   29.9300 N.am   38  THR38      -0.1939
      9  CA        -2.1060  -11.4980   30.8350 C.3    38  THR38       0.2028
     10  C         -1.4610  -12.6710   30.1170 C.2    38  THR38       0.2642
     11  O         -1.4650  -12.7690   28.8830 O.2    38  THR38      -0.2714
     12  CB        -3.3670  -12.0120   31.5860 C.3    38  THR38       0.1808
     13  OG1       -4.1510  -12.8710   30.7430 O.3    38  THR38      -0.2208
     14  CG2       -4.2270  -10.8690   32.0480 C.3    38  THR38       0.0379
     15  N         -0.9160  -13.5790   30.9080 N.am   39  MET39      -0.1976
     16  CA        -0.3870  -14.8080   30.3590 C.3    39  MET39       0.1605
     17  C         -1.2550  -15.9890   30.7610 C.2    39  MET39       0.2287
     18  O         -0.7320  -17.0970   30.8960 O.2    39  MET39      -0.2864
     19  CB         1.0270  -15.0490   30.8290 C.3    39  MET39       0.0413
     20  CG         1.9780  -13.9420   30.4570 C.3    39  MET39       0.0598
     21  SD         3.7240  -14.4300   30.4630 S.3    39  MET39      -0.1393
     22  CE         3.9620  -14.9680   32.1730 C.3    39  MET39       0.0692
     23  N         -4.9700  -10.9050   38.8280 N.3    46  HIS46      -0.1241
     24  CA        -5.4680  -10.5190   37.4960 C.3    46  HIS46       0.1621
     25  C         -6.8580   -9.8510   37.5920 C.2    46  HIS46       0.2264
     26  O         -7.1000   -8.7960   36.9880 O.2    46  HIS46      -0.2867
     27  CB        -5.4710  -11.6890   36.5110 C.3    46  HIS46       0.0745
     28  CG        -4.1370  -12.3560   36.3700 C.ar   46  HIS46       0.0817
     29  ND1       -3.8640  -13.5980   36.9010 N.ar   46  HIS46      -0.2268
     30  CD2       -2.9870  -11.9320   35.7980 C.ar   46  HIS46       0.1154
     31  CE1       -2.6120  -13.9280   36.6340 C.ar   46  HIS46       0.1986
     32  NE2       -2.0600  -12.9350   35.9560 N.ar   46  HIS46      -0.2212
     33  N         -6.9420   -6.3010   38.2150 N.3    49  LEU49      -0.1245
     34  CA        -6.6200   -5.4700   37.0110 C.3    49  LEU49       0.1561
     35  C         -7.8730   -5.2320   36.2040 C.2    49  LEU49       0.2260
     36  O         -8.1950   -4.0750   35.8670 O.2    49  LEU49      -0.2867
     37  CB        -5.4930   -6.0710   36.1700 C.3    49  LEU49       0.0270
     38  CG        -4.2240   -6.4800   36.9560 C.3    49  LEU49       0.0019
     39  CD1       -3.2260   -7.2840   36.1110 C.3    49  LEU49       0.0001
     40  CD2       -3.5500   -5.3000   37.5490 C.3    49  LEU49       0.0001
     41  N         -5.9030   -9.8320   27.1540 N.3    64  SER64      -0.1217
     42  CA        -5.1830  -10.7190   26.2700 C.3    64  SER64       0.1889
     43  C         -4.7490  -11.8970   27.0780 C.2    64  SER64       0.2288
     44  O         -4.5130  -11.8070   28.2900 O.2    64  SER64      -0.2866
     45  CB        -3.9580  -10.0290   25.6460 C.3    64  SER64       0.2089
     46  OG        -3.0880   -9.4170   26.6080 O.3    64  SER64      -0.2183
     47  N         -1.9270  -14.7050   26.2590 N.3    66  PHE66      -0.1241
     48  CA        -0.8560  -15.0750   25.3880 C.3    66  PHE66       0.1605
     49  C          0.4070  -15.4450   26.1620 C.2    66  PHE66       0.2264
     50  O          0.8870  -14.7020   27.0110 O.2    66  PHE66      -0.2867
     51  CB        -0.5320  -13.9470   24.3960 C.3    66  PHE66       0.0534
     52  CG         0.5670  -14.3120   23.4490 C.ar   66  PHE66      -0.0203
     53  CD1        0.4190  -15.4090   22.5990 C.ar   66  PHE66      -0.0042
     54  CD2        1.7640  -13.6040   23.4470 C.ar   66  PHE66      -0.0042
     55  CE1        1.4420  -15.7810   21.7420 C.ar   66  PHE66      -0.0003
     56  CE2        2.7950  -13.9610   22.5980 C.ar   66  PHE66      -0.0003
     57  CZ         2.6300  -15.0580   21.7290 C.ar   66  PHE66      -0.0000
     58  N          4.1330  -15.7520   25.9990 N.3    68  ASN68      -0.1240
     59  CA         5.3270  -15.2850   25.2630 C.3    68  ASN68       0.1653
     60  C          6.3760  -16.4210   25.1810 C.2    68  ASN68       0.2266
     61  O          6.8570  -16.8850   26.2320 O.2    68  ASN68      -0.2867
     62  CB         5.9070  -14.0460   25.9660 C.3    68  ASN68       0.1155
     63  CG         6.7210  -13.1720   25.0340 C.2    68  ASN68       0.2627
     64  OD1        6.5000  -13.1740   23.8260 O.2    68  ASN68      -0.2716
     65  ND2        7.6710  -12.4190   25.5920 N.am   68  ASN68      -0.0877
     66  N          9.2300   -9.1290   26.8320 N.3   123  VAL123     -0.1245
     67  CA         8.0920   -8.4440   27.4060 C.3   123  VAL123      0.1561
     68  C          7.7530   -7.1380   26.6650 C.2   123  VAL123      0.2260
     69  O          6.6470   -7.0130   26.1430 O.2   123  VAL123     -0.2867
     70  CB         8.3790   -8.2010   28.9290 C.3   123  VAL123      0.0252
     71  CG1        7.2220   -7.5540   29.5820 C.3   123  VAL123      0.0019
     72  CG2        8.7520   -9.5560   29.6340 C.3   123  VAL123      0.0019
     73  N          6.3430   -7.7280   23.0920 N.3   126  VAL126     -0.1231
     74  CA         4.9550   -8.2260   22.9960 C.3   126  VAL126      0.1692
     75  C          3.9830   -7.1300   23.4660 C.2   126  VAL126      0.2591
     76  O          2.9080   -6.9370   22.8680 O.2   126  VAL126     -0.2718
     77  CB         4.7820   -9.5720   23.6960 C.3   126  VAL126      0.0266
     78  CG1        4.8930   -9.3940   25.1930 C.3   126  VAL126      0.0020
     79  CG2        3.4270  -10.2030   23.3690 C.3   126  VAL126      0.0020
     80  N          4.3890   -6.3400   24.4650 N.am  127  VAL127     -0.1980
     81  CA         3.5280   -5.2890   24.9600 C.3   127  VAL127      0.1595
     82  C          3.3040   -4.2440   23.9180 C.2   127  VAL127      0.2287
     83  O          2.1410   -3.8210   23.7040 O.2   127  VAL127     -0.2864
     84  CB         3.9790   -4.6430   26.2680 C.3   127  VAL127      0.0276
     85  CG1        3.2110   -3.3530   26.4760 C.3   127  VAL127      0.0022
     86  CG2        3.7440   -5.6100   27.4400 C.3   127  VAL127      0.0022
     87  N          0.9320   -5.5580   21.4620 N.3   130  LEU130     -0.1245
     88  CA        -0.4430   -5.6580   21.8980 C.3   130  LEU130      0.1561
     89  C         -1.0560   -4.2870   21.8290 C.2   130  LEU130      0.2260
     90  O         -2.2130   -4.1670   21.4880 O.2   130  LEU130     -0.2867
     91  CB        -0.5620   -6.1960   23.3070 C.3   130  LEU130      0.0270
     92  CG        -0.2740   -7.6620   23.5120 C.3   130  LEU130      0.0019
     93  CD1       -0.2420   -7.9560   25.0150 C.3   130  LEU130      0.0001
     94  CD2       -1.3210   -8.4370   22.8580 C.3   130  LEU130      0.0001
     95  N         -1.2460   -2.7710   34.4390 N.3   141  PHE141     -0.1227
     96  CA        -0.2460   -3.7220   34.9080 C.3   141  PHE141      0.1736
     97  C         -0.1670   -3.7200   36.4280 C.2   141  PHE141      0.2596
     98  O         -0.4290   -2.6910   37.0590 O.2   141  PHE141     -0.2718
     99  CB         1.1170   -3.3930   34.3150 C.3   141  PHE141      0.0547
    100  CG         1.2050   -3.5870   32.8200 C.ar  141  PHE141     -0.0202
    101  CD1        1.4510   -4.8540   32.2810 C.ar  141  PHE141     -0.0042
    102  CD2        1.0520   -2.4940   31.9590 C.ar  141  PHE141     -0.0042
    103  CE1        1.5230   -5.0580   30.8680 C.ar  141  PHE141     -0.0003
    104  CE2        1.1320   -2.6670   30.5480 C.ar  141  PHE141     -0.0003
    105  CZ         1.3650   -3.9620   29.9930 C.ar  141  PHE141     -0.0000
    106  N          0.1570   -4.8820   37.0170 N.am  142  GLY142     -0.1957
    107  CA         0.2810   -5.0310   38.4610 C.3   142  GLY142      0.1869
    108  C          1.6280   -4.5320   38.9600 C.2   142  GLY142      0.2309
    109  O          2.6360   -4.6550   38.2520 O.2   142  GLY142     -0.2863
    110  N          5.0810   -7.0140   39.5580 N.3   145  ASP145     -0.1239
    111  CA         6.1700   -6.9270   38.6090 C.3   145  ASP145      0.1674
    112  C          6.6030   -5.4920   38.4050 C.2   145  ASP145      0.2266
    113  O          6.4350   -4.9390   37.3290 O.2   145  ASP145     -0.2867
    114  CB         5.7590   -7.5690   37.2970 C.3   145  ASP145      0.1410
    115  CG         5.4170   -9.0510   37.4700 C.2   145  ASP145      0.3668
    116  OD1        6.3170   -9.8010   37.9340 O.co2 145  ASP145     -0.2456
    117  OD2        4.2490   -9.4420   37.1780 O.co2 145  ASP145     -0.2456
    118  N          9.1600   -4.3880   35.6500 N.3   148  GLN148     -0.1245
    119  CA         8.5000   -4.5230   34.3970 C.3   148  GLN148      0.1566
    120  C          7.6460   -3.3090   34.1500 C.2   148  GLN148      0.2260
    121  O          7.6450   -2.7640   33.0390 O.2   148  GLN148     -0.2867
    122  CB         7.6660   -5.8110   34.3820 C.3   148  GLN148      0.0367
    123  CG         6.5010   -5.7310   33.4670 C.3   148  GLN148      0.0905
    124  CD         5.8400   -7.0660   33.2480 C.2   148  GLN148      0.2608
    125  OE1        6.5020   -8.0880   32.9820 O.2   148  GLN148     -0.2717
    126  NE2        4.5130   -7.0650   33.3460 N.am  148  GLN148     -0.0878
@<TRIPOS>BOND
     1    87    88    1
     2    90    89    2
     3    57    55   ar
     4    57    56   ar
     5    55    53   ar
     6    89    88    1
     7    88    91    1
     8    56    54   ar
     9    53    52   ar
    10    94    92    1
    11    76    75    2
    12    74    73    1
    13    74    75    1
    14    74    77    1
    15    91    92    1
    16    79    77    1
    17    54    52   ar
    18    52    51    1
    19    75    80   am
    20    92    93    1
    21    77    78    1
    22    83    82    2
    23    64    63    2
    24    82    81    1
    25    51    48    1
    26    80    81    1
    27    81    84    1
    28    63    65   am
    29    63    62    1
    30    60    59    1
    31    60    61    2
    32    59    62    1
    33    59    58    1
    34    48    49    1
    35    48    47    1
    36    45    42    1
    37    45    46    1
    38    69    68    2
    39    49    50    2
    40    84    85    1
    41    84    86    1
    42    42    43    1
    43    42    41    1
    44    68    67    1
    45    66    67    1
    46    43    44    2
    47    67    70    1
    48     6     5    1
    49     6     7    1
    50     5     2    1
    51    11    10    2
    52    70    71    1
    53    70    72    1
    54     2     1    1
    55     2     3    1
    56     1     7    1
    57     8     3   am
    58     8     9    1
    59   105   104   ar
    60   105   103   ar
    61    10     9    1
    62    10    15   am
    63     3     4    2
    64    16    17    1
    65    16    19    1
    66    16    15    1
    67    20    21    1
    68    20    19    1
    69    21    22    1
    70   104   102   ar
    71    13    12    1
    72    17    18    2
    73     9    12    1
    74   103   101   ar
    75    12    14    1
    76   102   100   ar
    77   101   100   ar
    78   100    99    1
    79   125   124    2
    80   121   120    2
    81   124   126   am
    82   124   123    1
    83   123   122    1
    84   120   119    1
    85    99    96    1
    86   122   119    1
    87   119   118    1
    88    95    96    1
    89    96    97    1
    90    30    32   ar
    91    30    28   ar
    92    36    35    2
    93    32    31   ar
    94    39    38    1
    95    37    38    1
    96    37    34    1
    97    35    34    1
    98    28    27    1
    99    28    29   ar
   100    97   106   am
   101    97    98    2
   102    27    24    1
   103    31    29   ar
   104    38    40    1
   105    26    25    2
   106    34    33    1
   107   106   107    1
   108   117   115   ar
   109   114   115    1
   110   114   111    1
   111   113   112    2
   112   115   116   ar
   113    24    25    1
   114    24    23    1
   115   109   108    2
   116   112   111    1
   117   107   108    1
   118   111   110    1
