@<TRIPOS>MOLECULE
tmp/4g5gA00.pdb
 175 168 0 0 0
SMALL
GASTEIGER

@<TRIPOS>ATOM
      1  N        -38.4180   24.3900    8.9570 N.3   213  GLU213     -0.1231
      2  CA       -38.6540   25.4540    7.9920 C.3   213  GLU213      0.1699
      3  C        -39.4300   26.6080    8.6340 C.2   213  GLU213      0.2592
      4  O        -38.8380   27.6210    8.9820 O.2   213  GLU213     -0.2718
      5  CB       -39.3690   24.8990    6.7540 C.3   213  GLU213      0.0402
      6  CG       -38.4300   24.0290    5.9320 C.3   213  GLU213      0.1161
      7  CD       -39.0420   23.5470    4.6340 C.2   213  GLU213      0.3649
      8  OE1      -39.4470   24.4040    3.8140 O.co2 213  GLU213     -0.2457
      9  OE2      -39.1120   22.3110    4.4340 O.co2 213  GLU213     -0.2457
     10  N        -40.7330   26.4580    8.8160 N.am  214  ASP214     -0.1974
     11  CA       -41.5290   27.5170    9.4400 C.3   214  ASP214      0.1709
     12  C        -41.8230   27.1880   10.8920 C.2   214  ASP214      0.2293
     13  O        -41.8400   26.0200   11.2910 O.2   214  ASP214     -0.2864
     14  CB       -42.8780   27.6780    8.7430 C.3   214  ASP214      0.1436
     15  CG       -42.7420   27.8600    7.2560 C.2   214  ASP214      0.3671
     16  OD1      -42.1990   28.9090    6.8370 O.co2 214  ASP214     -0.2456
     17  OD2      -43.1770   26.9500    6.5150 O.co2 214  ASP214     -0.2456
     18  N        -44.6230   28.5510   13.9620 N.3   216  PHE216     -0.1241
     19  CA       -45.7170   29.4220   14.3390 C.3   216  PHE216      0.1605
     20  C        -46.3010   28.9040   15.6180 C.2   216  PHE216      0.2264
     21  O        -46.0890   27.7520   16.0000 O.2   216  PHE216     -0.2867
     22  CB       -46.8150   29.5150   13.2560 C.3   216  PHE216      0.0534
     23  CG       -47.4120   28.1980   12.8480 C.ar  216  PHE216     -0.0203
     24  CD1      -48.5410   27.7000   13.4830 C.ar  216  PHE216     -0.0042
     25  CD2      -46.9000   27.4960   11.7760 C.ar  216  PHE216     -0.0042
     26  CE1      -49.1650   26.5210   13.0470 C.ar  216  PHE216     -0.0003
     27  CE2      -47.5240   26.3050   11.3310 C.ar  216  PHE216     -0.0003
     28  CZ       -48.6630   25.8290   11.9770 C.ar  216  PHE216     -0.0000
     29  N        -49.6870   28.3050   18.2420 N.3   218  ILE218     -0.1245
     30  CA       -51.1160   27.9980   18.2310 C.3   218  ILE218      0.1561
     31  C        -51.5910   28.2670   19.6620 C.2   218  ILE218      0.2260
     32  O        -51.3000   27.4880   20.5860 O.2   218  ILE218     -0.2867
     33  CB       -51.4050   26.5070   17.8680 C.3   218  ILE218      0.0252
     34  CG1      -50.8700   26.1850   16.4610 C.3   218  ILE218      0.0019
     35  CG2      -52.9060   26.2350   17.9380 C.3   218  ILE218      0.0019
     36  CD1      -51.2990   24.8060   15.8960 C.3   218  ILE218      0.0001
     37  N        -52.4090   25.4140   22.5740 N.3   221  ARG221     -0.1245
     38  CA       -51.6820   24.1910   22.2390 C.3   221  ARG221      0.1563
     39  C        -50.1450   24.2720   22.2420 C.2   221  ARG221      0.2260
     40  O        -49.4770   23.3840   22.7900 O.2   221  ARG221     -0.2867
     41  CB       -52.1950   23.6500   20.9000 C.3   221  ARG221      0.0307
     42  CG       -53.6580   23.1840   20.9530 C.3   221  ARG221      0.0489
     43  CD       -53.8620   22.1070   22.0310 C.3   221  ARG221      0.2205
     44  NE       -53.1510   20.8610   21.7240 N.pl3 221  ARG221     -0.0865
     45  CZ       -52.4490   20.1470   22.6080 C.cat 221  ARG221      0.5346
     46  NH1      -52.3480   20.5460   23.8750 N.pl3 221  ARG221      0.1354
     47  NH2      -51.8360   19.0330   22.2220 N.pl3 221  ARG221      0.1354
     48  N        -45.5440   25.1810   16.8270 N.3   224  VAL224     -0.1245
     49  CA       -45.3690   24.1230   15.8400 C.3   224  VAL224      0.1561
     50  C        -44.2930   24.4860   14.8270 C.2   224  VAL224      0.2260
     51  O        -44.1340   25.6520   14.4570 O.2   224  VAL224     -0.2867
     52  CB       -46.7040   23.7360   15.0880 C.3   224  VAL224      0.0252
     53  CG1      -47.8580   24.5450   15.5910 C.3   224  VAL224      0.0019
     54  CG2      -46.5430   23.8940   13.5740 C.3   224  VAL224      0.0019
     55  N        -42.6270   23.2670   11.0420 N.3   226  THR226     -0.1203
     56  CA       -43.0000   22.5330    9.8420 C.3   226  THR226      0.1994
     57  C        -41.7350   22.0510    9.1670 C.2   226  THR226      0.2618
     58  O        -40.6500   22.5480    9.4420 O.2   226  THR226     -0.2717
     59  CB       -43.7320   23.4580    8.8700 C.3   226  THR226      0.1784
     60  OG1      -42.8420   24.5200    8.4860 O.3   226  THR226     -0.2211
     61  CG2      -44.9660   24.0530    9.5250 C.3   226  THR226      0.0376
     62  N        -41.8790   21.1040    8.2560 N.am  227  GLY227     -0.1942
     63  CA       -40.7160   20.6080    7.5530 C.3   227  GLY227      0.2014
     64  C        -41.0490   19.2490    7.0000 C.2   227  GLY227      0.2638
     65  O        -42.1060   18.6950    7.3010 O.2   227  GLY227     -0.2714
     66  N        -40.1680   18.7290    6.1650 N.am  228  ARG228     -0.1977
     67  CA       -40.3650   17.4120    5.6050 C.3   228  ARG228      0.1597
     68  C        -39.4740   16.4780    6.4130 C.2   228  ARG228      0.2287
     69  O        -38.2870   16.7350    6.5670 O.2   228  ARG228     -0.2864
     70  CB       -39.9360   17.3680    4.1430 C.3   228  ARG228      0.0334
     71  CG       -40.2120   16.0180    3.5070 C.3   228  ARG228      0.0492
     72  CD       -39.3690   15.8180    2.2600 C.3   228  ARG228      0.2205
     73  NE       -39.6840   16.7920    1.2200 N.pl3 228  ARG228     -0.0865
     74  CZ       -40.8390   16.8480    0.5650 C.cat 228  ARG228      0.5346
     75  NH1      -41.8080   15.9730    0.8420 N.pl3 228  ARG228      0.1354
     76  NH2      -41.0260   17.7740   -0.3750 N.pl3 228  ARG228      0.1354
     77  N        -46.0650   16.7190   20.9450 N.3   254  THR254     -0.1203
     78  CA       -47.3950   16.6140   21.5430 C.3   254  THR254      0.1994
     79  C        -48.4650   16.5680   20.4620 C.2   254  THR254      0.2618
     80  O        -49.6540   16.5870   20.7710 O.2   254  THR254     -0.2717
     81  CB       -47.6860   17.8130   22.4580 C.3   254  THR254      0.1784
     82  OG1      -47.7220   19.0090   21.6720 O.3   254  THR254     -0.2211
     83  CG2      -46.5870   17.9640   23.5210 C.3   254  THR254      0.0376
     84  N        -48.0310   16.5240   19.1980 N.am  255  GLY255     -0.1942
     85  CA       -48.9610   16.4590   18.0800 C.3   255  GLY255      0.2014
     86  C        -48.2610   16.4840   16.7280 C.2   255  GLY255      0.2639
     87  O        -47.1730   17.0670   16.5850 O.2   255  GLY255     -0.2714
     88  N        -48.8690   15.8340   15.7360 N.am  256  VAL256     -0.1963
     89  CA       -48.3260   15.8190   14.3820 C.3   256  VAL256      0.1727
     90  C        -49.5020   16.0610   13.4370 C.2   256  VAL256      0.2616
     91  O        -50.5630   15.4770   13.6170 O.2   256  VAL256     -0.2715
     92  CB       -47.6640   14.4460   14.0060 C.3   256  VAL256      0.0290
     93  CG1      -47.1690   14.4740   12.5460 C.3   256  VAL256      0.0023
     94  CG2      -46.5070   14.1180   14.9550 C.3   256  VAL256      0.0023
     95  N        -49.3320   16.9330   12.4510 N.am  257  GLU257     -0.1963
     96  CA       -50.4070   17.1720   11.5030 C.3   257  GLU257      0.1733
     97  C        -49.8840   17.2580   10.0690 C.2   257  GLU257      0.2616
     98  O        -48.7900   17.7700    9.8170 O.2   257  GLU257     -0.2715
     99  CB       -51.1760   18.4510   11.8710 C.3   257  GLU257      0.0429
    100  CG       -52.5350   18.5760   11.1850 C.3   257  GLU257      0.1163
    101  CD       -53.1810   19.9460   11.3850 C.2   257  GLU257      0.3649
    102  OE1      -53.7770   20.2040   12.4590 O.co2 257  GLU257     -0.2457
    103  OE2      -53.0830   20.7760   10.4590 O.co2 257  GLU257     -0.2457
    104  N        -50.6660   16.7300    9.1340 N.am  258  MET258     -0.1963
    105  CA       -50.3100   16.7460    7.7140 C.3   258  MET258      0.1736
    106  C        -51.5940   16.9110    6.8990 C.2   258  MET258      0.2616
    107  O        -52.5290   16.1120    7.0330 O.2   258  MET258     -0.2715
    108  CB       -49.6100   15.4450    7.3190 C.3   258  MET258      0.0427
    109  CG       -49.1220   15.4300    5.8760 C.3   258  MET258      0.0599
    110  SD       -48.2390   13.9030    5.4700 S.3   258  MET258     -0.1393
    111  CE       -49.4420   12.6660    6.0140 C.3   258  MET258      0.0692
    112  N        -51.6290   17.9390    6.0570 N.am  259  PHE259     -0.1960
    113  CA       -52.8090   18.2380    5.2440 C.3   259  PHE259      0.1771
    114  C        -54.0020   18.5220    6.1650 C.2   259  PHE259      0.2619
    115  O        -55.1470   18.2150    5.8400 O.2   259  PHE259     -0.2715
    116  CB       -53.1310   17.0660    4.3070 C.3   259  PHE259      0.0574
    117  CG       -51.9350   16.5470    3.5600 C.ar  259  PHE259     -0.0200
    118  CD1      -50.9560   17.4220    3.1070 C.ar  259  PHE259     -0.0042
    119  CD2      -51.7940   15.1860    3.3050 C.ar  259  PHE259     -0.0042
    120  CE1      -49.8600   16.9610    2.4140 C.ar  259  PHE259     -0.0003
    121  CE2      -50.7000   14.7090    2.6140 C.ar  259  PHE259     -0.0003
    122  CZ       -49.7240   15.6010    2.1630 C.ar  259  PHE259     -0.0000
    123  N        -53.7070   19.0990    7.3250 N.am  260  ARG260     -0.1977
    124  CA       -54.7100   19.4470    8.3270 C.3   260  ARG260      0.1597
    125  C        -55.2460   18.2420    9.1000 C.2   260  ARG260      0.2287
    126  O        -56.0750   18.3940    9.9950 O.2   260  ARG260     -0.2864
    127  CB       -55.8710   20.2260    7.6940 C.3   260  ARG260      0.0334
    128  CG       -55.4610   21.5030    6.9460 C.3   260  ARG260      0.0492
    129  CD       -54.3390   22.2810    7.6580 C.3   260  ARG260      0.2205
    130  NE       -54.6080   22.4910    9.0790 N.pl3 260  ARG260     -0.0865
    131  CZ       -55.3100   23.5040    9.5740 C.cat 260  ARG260      0.5346
    132  NH1      -55.8200   24.4280    8.7620 N.pl3 260  ARG260      0.1354
    133  NH2      -55.5130   23.5850   10.8840 N.pl3 260  ARG260      0.1354
    134  N        -54.6920   15.4000   11.7960 N.3   262  LEU262     -0.1245
    135  CA       -53.8290   15.0750   12.9230 C.3   262  LEU262      0.1561
    136  C        -53.3980   13.6230   12.7900 C.2   262  LEU262      0.2260
    137  O        -54.2070   12.7560   12.4940 O.2   262  LEU262     -0.2867
    138  CB       -54.5840   15.2580   14.2290 C.3   262  LEU262      0.0270
    139  CG       -55.0420   16.6910   14.4580 C.3   262  LEU262      0.0019
    140  CD1      -56.1250   16.7020   15.5310 C.3   262  LEU262      0.0001
    141  CD2      -53.8410   17.5440   14.8360 C.3   262  LEU262      0.0001
    142  N        -44.4820   15.8380    4.6650 N.3   271  ASN271     -0.1225
    143  CA       -44.4250   17.2600    4.9940 C.3   271  ASN271      0.1785
    144  C        -45.4040   17.4570    6.1190 C.2   271  ASN271      0.2597
    145  O        -46.6080   17.5760    5.9100 O.2   271  ASN271     -0.2718
    146  CB       -44.8140   18.1080    3.8020 C.3   271  ASN271      0.1169
    147  CG       -43.6130   18.5420    3.0300 C.2   271  ASN271      0.2627
    148  OD1      -42.9390   19.5300    3.3870 O.2   271  ASN271     -0.2716
    149  ND2      -43.2840   17.7840    1.9980 N.am  271  ASN271     -0.0877
    150  N        -44.8670   17.4660    7.3280 N.am  272  VAL272     -0.1966
    151  CA       -45.6880   17.5830    8.5070 C.3   272  VAL272      0.1727
    152  C        -45.4540   18.8210    9.3450 C.2   272  VAL272      0.2617
    153  O        -44.5380   19.6120    9.1270 O.2   272  VAL272     -0.2715
    154  CB       -45.4370   16.3740    9.4520 C.3   272  VAL272      0.0290
    155  CG1      -45.6470   15.0550    8.7130 C.3   272  VAL272      0.0023
    156  CG2      -44.0250   16.4590   10.0170 C.3   272  VAL272      0.0023
    157  N        -46.3090   18.9450   10.3470 N.am  273  GLY273     -0.1940
    158  CA       -46.1870   20.0140   11.3170 C.3   273  GLY273      0.2014
    159  C        -46.0130   19.2880   12.6320 C.2   273  GLY273      0.2639
    160  O        -46.6710   18.2630   12.8690 O.2   273  GLY273     -0.2714
    161  N        -45.1230   19.7790   13.4810 N.am  274  VAL274     -0.1963
    162  CA       -44.9010   19.1570   14.7770 C.3   274  VAL274      0.1727
    163  C        -45.1880   20.1470   15.9050 C.2   274  VAL274      0.2616
    164  O        -44.6540   21.2470   15.9240 O.2   274  VAL274     -0.2715
    165  CB       -43.4490   18.6520   14.9100 C.3   274  VAL274      0.0290
    166  CG1      -43.1730   18.2110   16.3480 C.3   274  VAL274      0.0023
    167  CG2      -43.2030   17.5040   13.9240 C.3   274  VAL274      0.0023
    168  N        -46.0510   19.7490   16.8310 N.am  275  LEU275     -0.1977
    169  CA       -46.3980   20.5970   17.9580 C.3   275  LEU275      0.1596
    170  C        -45.3920   20.2370   19.0370 C.2   275  LEU275      0.2287
    171  O        -45.1850   19.0570   19.3300 O.2   275  LEU275     -0.2864
    172  CB       -47.8130   20.2860   18.4480 C.3   275  LEU275      0.0297
    173  CG       -48.6720   21.3910   19.0590 C.3   275  LEU275      0.0022
    174  CD1      -49.6740   20.7370   20.0090 C.3   275  LEU275      0.0001
    175  CD2      -47.8280   22.4110   19.8060 C.3   275  LEU275      0.0001
@<TRIPOS>BOND
     1    76    74    1
     2    74    75    1
     3    74    73    2
     4    73    72    1
     5   149   147   am
     6   122   120   ar
     7   122   121   ar
     8    72    71    1
     9   120   118   ar
    10   121   119   ar
    11   147   148    2
    12   147   146    1
    13   118   117   ar
    14   119   117   ar
    15    71    70    1
    16   117   116    1
    17   146   143    1
    18     8     7   ar
    19    70    67    1
    20   116   113    1
    21     9     7   ar
    22     7     6    1
    23   142   143    1
    24   143   144    1
    25   113   112    1
    26   113   114    1
    27   110   109    1
    28   110   111    1
    29    67    66    1
    30    67    68    1
    31   115   114    2
    32   109   108    1
    33   145   144    2
    34     6     5    1
    35   112   106   am
    36   144   150   am
    37   114   123   am
    38    66    64   am
    39    68    69    2
    40    17    15   ar
    41     5     2    1
    42    16    15   ar
    43   106   107    2
    44   106   105    1
    45   128   129    1
    46   128   127    1
    47    64    65    2
    48    64    63    1
    49    15    14    1
    50   108   105    1
    51   123   124    1
    52   150   151    1
    53    63    62    1
    54   129   130    1
    55   127   124    1
    56   105   104    1
    57     2     3    1
    58     2     1    1
    59    62    57   am
    60   124   125    1
    61    60    59    1
    62   151   152    1
    63   151   154    1
    64     3    10   am
    65     3     4    2
    66   155   154    1
    67    14    11    1
    68   132   131    1
    69    10    11    1
    70    59    61    1
    71    59    56    1
    72   130   131    2
    73   125   126    2
    74   153   152    2
    75   104    97   am
    76    57    58    2
    77    57    56    1
    78   152   157   am
    79    11    12    1
    80   154   156    1
    81   131   133    1
    82    98    97    2
    83    56    55    1
    84    97    96    1
    85   157   158    1
    86   103   101   ar
    87    12    13    2
    88   100   101    1
    89   100    99    1
    90   158   159    1
    91    27    25   ar
    92    27    28   ar
    93   101   102   ar
    94    96    99    1
    95    96    95    1
    96    25    23   ar
    97   134   135    1
    98    28    26   ar
    99    95    90   am
   100   137   136    2
   101    93    92    1
   102   159   160    2
   103   159   161   am
   104   136   135    1
   105    23    22    1
   106    23    24   ar
   107   135   138    1
   108    26    24   ar
   109    22    19    1
   110    90    91    2
   111    90    89    1
   112   161   162    1
   113    54    52    1
   114   167   165    1
   115    18    19    1
   116    92    89    1
   117    92    94    1
   118   138   139    1
   119    19    20    1
   120    89    88    1
   121    51    50    2
   122   139   141    1
   123   139   140    1
   124   162   165    1
   125   162   163    1
   126    50    49    1
   127   165   166    1
   128    52    53    1
   129    52    49    1
   130    20    21    2
   131    88    86   am
   132    49    48    1
   133    36    34    1
   134   163   164    2
   135   163   168   am
   136    34    33    1
   137    87    86    2
   138    86    85    1
   139   168   169    1
   140    33    35    1
   141    33    30    1
   142   169   172    1
   143   169   170    1
   144    85    84    1
   145    30    29    1
   146    30    31    1
   147   172   173    1
   148   170   171    2
   149   173   175    1
   150   173   174    1
   151    84    79   am
   152    31    32    2
   153    79    80    2
   154    79    78    1
   155    41    42    1
   156    41    38    1
   157    77    78    1
   158    42    43    1
   159    78    81    1
   160    82    81    1
   161    44    43    1
   162    44    45    2
   163    47    45    1
   164    38    39    1
   165    38    37    1
   166    39    40    2
   167    81    83    1
   168    45    46    1
