@<TRIPOS>MOLECULE
tmp/4g5hA02.pdb
 103 101 0 0 0
SMALL
GASTEIGER

@<TRIPOS>ATOM
      1  N        -50.2760   -1.4270    9.8490 N.3   234  LYS234     -0.1245
      2  CA       -50.3060   -2.7280   10.5050 C.3   234  LYS234      0.1561
      3  C        -48.9120   -2.9030   11.1690 C.2   234  LYS234      0.2260
      4  O        -47.8810   -2.4280   10.6520 O.2   234  LYS234     -0.2867
      5  CB       -50.5860   -3.8460    9.4750 C.3   234  LYS234      0.0271
      6  CG       -51.9130   -3.7270    8.7680 C.3   234  LYS234      0.0035
      7  CD       -52.0320   -4.8780    7.7070 C.3   234  LYS234      0.0206
      8  CE       -53.2500   -4.6830    6.8070 C.3   234  LYS234      0.1093
      9  NZ       -53.3970   -5.8710    5.8350 N.3   234  LYS234     -0.1314
     10  N        -62.6790   -1.5250   12.6650 N.3   278  TYR278     -0.1241
     11  CA       -62.2220   -2.6660   11.8530 C.3   278  TYR278      0.1605
     12  C        -63.3070   -3.0550   10.8130 C.2   278  TYR278      0.2264
     13  O        -63.0020   -3.2360    9.6240 O.2   278  TYR278     -0.2867
     14  CB       -61.9620   -3.8660   12.7310 C.3   278  TYR278      0.0534
     15  CG       -61.3690   -4.9240   11.8640 C.ar  278  TYR278     -0.0201
     16  CD1      -59.9740   -4.9680   11.6430 C.ar  278  TYR278     -0.0009
     17  CD2      -62.2250   -5.8410   11.1570 C.ar  278  TYR278     -0.0009
     18  CE1      -59.4130   -5.9540   10.8090 C.ar  278  TYR278      0.0417
     19  CE2      -61.6670   -6.8130   10.3110 C.ar  278  TYR278      0.0417
     20  CZ       -60.2690   -6.8740   10.1560 C.ar  278  TYR278      0.1957
     21  OH       -59.7180   -7.8720    9.3580 O.3   278  TYR278     -0.2866
     22  N        -58.5650   -2.3120    3.7130 N.3   283  ASP283     -0.1239
     23  CA       -57.2190   -2.8320    3.8530 C.3   283  ASP283      0.1674
     24  C        -56.4260   -2.2930    2.6660 C.2   283  ASP283      0.2266
     25  O        -56.6800   -2.6240    1.5090 O.2   283  ASP283     -0.2867
     26  CB       -57.2480   -4.3590    3.8170 C.3   283  ASP283      0.1410
     27  CG       -55.8780   -4.9730    3.9530 C.2   283  ASP283      0.3668
     28  OD1      -55.8610   -6.1960    4.0450 O.co2 283  ASP283     -0.2456
     29  OD2      -54.8110   -4.3100    3.9660 O.co2 283  ASP283     -0.2456
     30  N        -54.3110   -0.0220    7.3230 N.3   288  PHE288     -0.1241
     31  CA       -55.7570    0.0970    7.2000 C.3   288  PHE288      0.1605
     32  C        -56.1880    1.5750    7.0740 C.2   288  PHE288      0.2264
     33  O        -55.6610    2.4290    7.8380 O.2   288  PHE288     -0.2867
     34  CB       -56.4180   -0.3710    8.4740 C.3   288  PHE288      0.0534
     35  CG       -56.2520   -1.8790    8.7580 C.ar  288  PHE288     -0.0203
     36  CD1      -56.8230   -2.8180    7.8850 C.ar  288  PHE288     -0.0042
     37  CD2      -55.5000   -2.3360    9.8520 C.ar  288  PHE288     -0.0042
     38  CE1      -56.7250   -4.2110    8.1320 C.ar  288  PHE288     -0.0003
     39  CE2      -55.3850   -3.7360   10.0730 C.ar  288  PHE288     -0.0003
     40  CZ       -56.0170   -4.6230    9.2510 C.ar  288  PHE288     -0.0000
     41  N        -70.2960   -8.6590   13.5410 N.3   312  GLN312     -0.1231
     42  CA       -69.4330   -9.7800   13.1910 C.3   312  GLN312      0.1698
     43  C        -67.9590   -9.5220   13.3640 C.2   312  GLN312      0.2593
     44  O        -67.1540  -10.4320   13.2060 O.2   312  GLN312     -0.2718
     45  CB       -69.6640  -10.2220   11.7380 C.3   312  GLN312      0.0381
     46  CG       -70.2460  -11.6000   11.6660 C.3   312  GLN312      0.0905
     47  CD       -71.7230  -11.5280   11.7960 C.2   312  GLN312      0.2608
     48  OE1      -72.3930  -10.9830   10.9110 O.2   312  GLN312     -0.2717
     49  NE2      -72.2530  -12.0380   12.9130 N.am  312  GLN312     -0.0878
     50  N        -67.5610   -8.2900   13.6460 N.am  313  SER313     -0.1938
     51  CA       -66.1310   -8.0030   13.6680 C.3   313  SER313      0.2055
     52  C        -65.5950   -8.0530   15.1190 C.2   313  SER313      0.2643
     53  O        -66.3540   -8.1620   16.0630 O.2   313  SER313     -0.2714
     54  CB       -65.8810   -6.5830   13.0980 C.3   313  SER313      0.2130
     55  OG       -66.3020   -6.5640   11.7370 O.3   313  SER313     -0.2179
     56  N        -64.2870   -7.8910   15.2510 N.am  314  TYR314     -0.1959
     57  CA       -63.6480   -7.6880   16.5410 C.3   314  TYR314      0.1771
     58  C        -62.4860   -6.6860   16.3750 C.2   314  TYR314      0.2619
     59  O        -62.0730   -6.3630   15.2370 O.2   314  TYR314     -0.2715
     60  CB       -63.2420   -9.0280   17.2120 C.3   314  TYR314      0.0574
     61  CG       -62.2920   -9.8660   16.4100 C.ar  314  TYR314     -0.0198
     62  CD1      -62.7600  -10.8350   15.4660 C.ar  314  TYR314     -0.0009
     63  CD2      -60.9250   -9.7650   16.6010 C.ar  314  TYR314     -0.0009
     64  CE1      -61.8720  -11.6300   14.7300 C.ar  314  TYR314      0.0417
     65  CE2      -60.0420  -10.5500   15.8680 C.ar  314  TYR314      0.0417
     66  CZ       -60.5250  -11.4910   14.9520 C.ar  314  TYR314      0.1957
     67  OH       -59.6310  -12.2420   14.2460 O.3   314  TYR314     -0.2866
     68  N        -61.9930   -6.1530   17.4870 N.am  315  GLU315     -0.1963
     69  CA       -60.9460   -5.1470   17.4580 C.3   315  GLU315      0.1733
     70  C        -59.5780   -5.7120   17.0370 C.2   315  GLU315      0.2616
     71  O        -59.2740   -6.8960   17.2230 O.2   315  GLU315     -0.2715
     72  CB       -60.8180   -4.5600   18.8590 C.3   315  GLU315      0.0429
     73  CG       -60.2860   -5.5630   19.8320 C.3   315  GLU315      0.1163
     74  CD       -60.0720   -4.9510   21.2120 C.2   315  GLU315      0.3649
     75  OE1      -58.9220   -4.7180   21.5840 O.co2 315  GLU315     -0.2457
     76  OE2      -61.0620   -4.6910   21.9130 O.co2 315  GLU315     -0.2457
     77  N        -58.7750   -4.8590   16.4300 N.am  316  TYR316     -0.1974
     78  CA       -57.3940   -5.1800   16.0210 C.3   316  TYR316      0.1639
     79  C        -56.4380   -4.7210   17.1250 C.2   316  TYR316      0.2290
     80  O        -56.2970   -3.4980   17.3550 O.2   316  TYR316     -0.2864
     81  CB       -57.0640   -4.3990   14.7550 C.3   316  TYR316      0.0560
     82  CG       -55.6340   -4.5580   14.2490 C.ar  316  TYR316     -0.0198
     83  CD1      -55.1270   -5.7940   13.9230 C.ar  316  TYR316     -0.0009
     84  CD2      -54.8210   -3.4340   14.0580 C.ar  316  TYR316     -0.0009
     85  CE1      -53.8240   -5.9300   13.4350 C.ar  316  TYR316      0.0417
     86  CE2      -53.5370   -3.5220   13.5630 C.ar  316  TYR316      0.0417
     87  CZ       -53.0180   -4.7810   13.2220 C.ar  316  TYR316      0.1957
     88  OH       -51.7190   -4.8700   12.7440 O.3   316  TYR316     -0.2866
     89  N        -53.7420   -9.8710   19.0850 N.3   320  ASN320     -0.1225
     90  CA       -54.1710  -10.6270   17.9630 C.3   320  ASN320      0.1785
     91  C        -53.4390  -10.3690   16.6520 C.2   320  ASN320      0.2597
     92  O        -53.7520  -11.0220   15.6730 O.2   320  ASN320     -0.2718
     93  CB       -55.6920  -10.6570   17.8460 C.3   320  ASN320      0.1169
     94  CG       -56.3080   -9.2540   17.5340 C.2   320  ASN320      0.2627
     95  OD1      -55.7550   -8.4510   16.7880 O.2   320  ASN320     -0.2716
     96  ND2      -57.4830   -9.0210   18.0800 N.am  320  ASN320     -0.0877
     97  N        -52.5060   -9.4070   16.6030 N.am  321  THR321     -0.1953
     98  CA       -51.5920   -9.2810   15.4520 C.3   321  THR321      0.1897
     99  C        -50.5490  -10.4290   15.6090 C.2   321  THR321      0.2313
    100  O        -50.6160  -11.1680   16.5420 O.2   321  THR321     -0.2863
    101  CB       -50.5620   -8.1430   15.5390 C.3   321  THR321      0.1794
    102  OG1      -50.2770   -7.5920   16.8690 O.3   321  THR321     -0.2208
    103  CG2      -50.3180   -7.4310   14.3770 C.3   321  THR321      0.0378
@<TRIPOS>BOND
     1    25    24    2
     2    24    23    1
     3    22    23    1
     4    26    23    1
     5    26    27    1
     6    27    29   ar
     7    27    28   ar
     8     9     8    1
     9     8     7    1
    10    32    31    1
    11    32    33    2
    12    31    30    1
    13    31    34    1
    14     7     6    1
    15    36    38   ar
    16    36    35   ar
    17    38    40   ar
    18    34    35    1
    19    35    37   ar
    20     6     5    1
    21    40    39   ar
    22    21    20    1
    23     5     2    1
    24    13    12    2
    25     1     2    1
    26    37    39   ar
    27    20    19   ar
    28    20    18   ar
    29    19    17   ar
    30     2     3    1
    31     4     3    2
    32    18    16   ar
    33    12    11    1
    34    48    47    2
    35    17    15   ar
    36    16    15   ar
    37    46    45    1
    38    46    47    1
    39    55    54    1
    40    45    42    1
    41    47    49   am
    42    11    10    1
    43    11    14    1
    44    15    14    1
    45    88    87    1
    46    54    51    1
    47    42    43    1
    48    42    41    1
    49    44    43    2
    50    87    85   ar
    51    87    86   ar
    52    43    50   am
    53    85    83   ar
    54    86    84   ar
    55    50    51    1
    56    51    52    1
    57    83    82   ar
    58    84    82   ar
    59    67    66    1
    60    82    81    1
    61   103   101    1
    62    64    66   ar
    63    64    62   ar
    64    81    78    1
    65    66    65   ar
    66    52    56   am
    67    52    53    2
    68    59    58    2
    69    56    57    1
    70    98   101    1
    71    98    99    1
    72    98    97    1
    73    62    61   ar
    74   101   102    1
    75    99   100    2
    76    92    91    2
    77    65    63   ar
    78    78    77    1
    79    78    79    1
    80    58    57    1
    81    58    68   am
    82    61    63   ar
    83    61    60    1
    84    77    70   am
    85    57    60    1
    86    97    91   am
    87    91    90    1
    88    95    94    2
    89    70    71    2
    90    70    69    1
    91    79    80    2
    92    69    68    1
    93    69    72    1
    94    94    93    1
    95    94    96   am
    96    93    90    1
    97    90    89    1
    98    72    73    1
    99    73    74    1
   100    74    75   ar
   101    74    76   ar
