@<TRIPOS>MOLECULE
tmp/4g5iA00.pdb
 111 106 0 0 0
SMALL
GASTEIGER

@<TRIPOS>ATOM
      1  N         33.7530  -10.0020   22.7150 N.3     2  LEU2       -0.1245
      2  CA        33.1870  -11.3200   22.4350 C.3     2  LEU2        0.1561
      3  C         31.6720  -11.3790   22.6480 C.2     2  LEU2        0.2260
      4  O         30.9250  -11.8840   21.7950 O.2     2  LEU2       -0.2867
      5  CB        33.8520  -12.3490   23.3200 C.3     2  LEU2        0.0270
      6  CG        33.3070  -13.7590   23.0890 C.3     2  LEU2        0.0019
      7  CD1       33.6170  -14.2190   21.6360 C.3     2  LEU2        0.0001
      8  CD2       33.9000  -14.7100   24.1820 C.3     2  LEU2        0.0001
      9  N         26.6900  -19.7150   20.9120 N.3    19  LEU19      -0.1245
     10  CA        27.7330  -20.5040   21.5400 C.3    19  LEU19       0.1561
     11  C         27.5530  -21.9530   21.1430 C.2    19  LEU19       0.2260
     12  O         28.5370  -22.5920   20.7790 O.2    19  LEU19      -0.2867
     13  CB        27.7740  -20.3480   23.0670 C.3    19  LEU19       0.0270
     14  CG        28.6150  -21.3560   23.8640 C.3    19  LEU19       0.0019
     15  CD1       30.0660  -20.8820   24.0360 C.3    19  LEU19       0.0001
     16  CD2       27.9920  -21.6870   25.2280 C.3    19  LEU19       0.0001
     17  N         30.2950  -22.3740   17.9500 N.3    23  ASN23      -0.1240
     18  CA        31.5380  -22.7030   18.6430 C.3    23  ASN23       0.1653
     19  C         31.9280  -24.1650   18.3570 C.2    23  ASN23       0.2266
     20  O         31.0960  -25.0710   18.3540 O.2    23  ASN23      -0.2867
     21  CB        31.4290  -22.3620   20.1510 C.3    23  ASN23       0.1155
     22  CG        32.7550  -22.5730   20.9520 C.2    23  ASN23       0.2627
     23  OD1       33.7700  -21.8720   20.7550 O.2    23  ASN23      -0.2716
     24  ND2       32.7120  -23.5180   21.9030 N.am   23  ASN23      -0.0877
     25  N         35.7740  -21.4490   16.5360 N.3    30  GLY30      -0.1210
     26  CA        36.4840  -22.0260   17.7060 C.3    30  GLY30       0.1956
     27  C         37.8420  -21.3780   17.8810 C.2    30  GLY30       0.2612
     28  O         38.3170  -20.5930   16.9890 O.2    30  GLY30      -0.2717
     29  N         38.4430  -21.6550   19.0450 N.am   31  LEU31      -0.1965
     30  CA        39.8080  -21.2140   19.3970 C.3    31  LEU31       0.1728
     31  C         40.8040  -21.6940   18.3280 C.2    31  LEU31       0.2616
     32  O         40.8830  -22.8980   18.0720 O.2    31  LEU31      -0.2715
     33  CB        40.2440  -21.7870   20.7720 C.3    31  LEU31       0.0311
     34  CG        41.5600  -21.1530   21.2510 C.3    31  LEU31       0.0022
     35  CD1       41.2470  -19.8340   21.9560 C.3    31  LEU31       0.0001
     36  CD2       42.4030  -22.0610   22.1280 C.3    31  LEU31       0.0001
     37  N         41.5330  -20.7610   17.7260 N.am   32  GLY32      -0.1955
     38  CA        42.4280  -21.0300   16.6050 C.3    32  GLY32       0.1869
     39  C         41.7340  -21.7450   15.4440 C.2    32  GLY32       0.2309
     40  O         40.5400  -21.5200   15.1920 O.2    32  GLY32      -0.2863
     41  N         38.7660  -15.2170   11.9190 N.3    49  ASP49      -0.1239
     42  CA        40.0970  -15.4090   12.5010 C.3    49  ASP49       0.1674
     43  C         41.1780  -14.4750   11.8580 C.2    49  ASP49       0.2266
     44  O         41.9680  -13.7820   12.5860 O.2    49  ASP49      -0.2867
     45  CB        40.5490  -16.8470   12.3110 C.3    49  ASP49       0.1410
     46  CG        39.8540  -17.8650   13.2500 C.2    49  ASP49       0.3668
     47  OD1       40.3290  -19.0300   13.2760 O.co2  49  ASP49      -0.2456
     48  OD2       38.8720  -17.5750   13.9510 O.co2  49  ASP49      -0.2456
     49  N         40.7480  -10.8650   12.6110 N.3    52  TYR52      -0.1241
     50  CA        41.3380  -10.5420   13.9150 C.3    52  TYR52       0.1605
     51  C         42.8770  -10.4330   13.8500 C.2    52  TYR52       0.2264
     52  O         43.4640   -9.5900   14.5120 O.2    52  TYR52      -0.2867
     53  CB        40.8740  -11.5620   15.0010 C.3    52  TYR52       0.0534
     54  CG        39.5890  -11.1570   15.6390 C.ar   52  TYR52      -0.0201
     55  CD1       39.4050  -11.2820   16.9900 C.ar   52  TYR52      -0.0009
     56  CD2       38.5640  -10.5450   14.8860 C.ar   52  TYR52      -0.0009
     57  CE1       38.2320  -10.8940   17.5760 C.ar   52  TYR52       0.0417
     58  CE2       37.3610  -10.1520   15.4770 C.ar   52  TYR52       0.0417
     59  CZ        37.2070  -10.3350   16.8240 C.ar   52  TYR52       0.1957
     60  OH        36.0460   -9.9500   17.4440 O.3    52  TYR52      -0.2866
     61  N         45.1570   -7.0500   14.9430 N.3    56  LYS56      -0.1245
     62  CA        46.3530   -7.1160   15.7600 C.3    56  LYS56       0.1561
     63  C         47.5930   -6.5760   15.0560 C.2    56  LYS56       0.2260
     64  O         48.5560   -6.2360   15.7180 O.2    56  LYS56      -0.2867
     65  CB        46.6060   -8.5580   16.1240 C.3    56  LYS56       0.0271
     66  CG        45.9040   -9.0200   17.3800 C.3    56  LYS56       0.0035
     67  CD        45.8310  -10.5410   17.4350 C.3    56  LYS56       0.0206
     68  CE        46.9900  -11.1130   18.2100 C.3    56  LYS56       0.1093
     69  NZ        47.1110  -12.5790   17.9380 N.3    56  LYS56      -0.1314
     70  N         45.3390   -7.6510   26.7180 N.3    65  VAL65      -0.1231
     71  CA        45.8070   -9.0610   26.6630 C.3    65  VAL65       0.1692
     72  C         45.9130   -9.5400   25.2150 C.2    65  VAL65       0.2592
     73  O         45.7760  -10.7250   24.9170 O.2    65  VAL65      -0.2718
     74  CB        45.0220  -10.0550   27.6570 C.3    65  VAL65       0.0266
     75  CG1       44.9810   -9.5000   29.0850 C.3    65  VAL65       0.0020
     76  CG2       43.6180  -10.3880   27.2410 C.3    65  VAL65       0.0020
     77  N         46.1280   -8.5700   24.3210 N.am   66  ASP66      -0.1960
     78  CA        46.3280   -8.7810   22.8740 C.3    66  ASP66       0.1840
     79  C         45.1890   -9.5260   22.2030 C.2    66  ASP66       0.2622
     80  O         45.3800  -10.2610   21.1980 O.2    66  ASP66      -0.2715
     81  CB        47.6540   -9.5150   22.6520 C.3    66  ASP66       0.1450
     82  CG        48.5620   -8.7700   21.6900 C.2    66  ASP66       0.3671
     83  OD1       49.1520   -7.7410   22.1460 O.co2  66  ASP66      -0.2456
     84  OD2       48.6600   -9.1900   20.4960 O.co2  66  ASP66      -0.2456
     85  N         43.9920   -9.3640   22.7550 N.am   67  ASN67      -0.1959
     86  CA        42.8830  -10.1150   22.2170 C.3    67  ASN67       0.1804
     87  C         41.8360   -9.1240   21.7940 C.2    67  ASN67       0.2463
     88  O         41.3220   -8.4220   22.6420 O.2    67  ASN67      -0.2730
     89  CB        42.3440  -11.0460   23.2970 C.3    67  ASN67       0.1195
     90  CG        41.3270  -12.0540   22.7780 C.2    67  ASN67       0.2630
     91  OD1       40.9030  -12.0360   21.6110 O.2    67  ASN67      -0.2716
     92  ND2       40.9020  -12.9410   23.6790 N.am   67  ASN67      -0.0877
     93  N         41.5580   -9.0160   20.4800 N.am   68  PRO68      -0.2716
     94  CA        40.5540   -8.0620   20.0510 C.3    68  PRO68       0.1536
     95  C         39.2000   -8.4110   20.6220 C.2    68  PRO68       0.2598
     96  O         38.3320   -7.5450   20.6620 O.2    68  PRO68      -0.2715
     97  CB        40.5610   -8.2070   18.5210 C.3    68  PRO68       0.0310
     98  CG        41.9440   -8.6360   18.2110 C.3    68  PRO68       0.0237
     99  CD        42.3370   -9.5410   19.3380 C.3    68  PRO68       0.0939
    100  N         38.9990   -9.6450   21.1030 N.am   69  TYR69      -0.1974
    101  CA        37.7140   -9.9860   21.7150 C.3    69  TYR69       0.1639
    102  C         37.4470   -9.1760   22.9810 C.2    69  TYR69       0.2290
    103  O         36.3010   -9.1240   23.4700 O.2    69  TYR69      -0.2864
    104  CB        37.6570  -11.4500   22.0320 C.3    69  TYR69       0.0560
    105  CG        37.0980  -12.3360   20.9340 C.ar   69  TYR69      -0.0198
    106  CD1       35.8800  -12.0480   20.2990 C.ar   69  TYR69      -0.0009
    107  CD2       37.7750  -13.4980   20.5680 C.ar   69  TYR69      -0.0009
    108  CE1       35.3550  -12.8940   19.3310 C.ar   69  TYR69       0.0417
    109  CE2       37.2950  -14.3360   19.5990 C.ar   69  TYR69       0.0417
    110  CZ        36.0740  -14.0650   18.9980 C.ar   69  TYR69       0.1957
    111  OH        35.6350  -14.9460   18.0230 O.3    69  TYR69      -0.2866
@<TRIPOS>BOND
     1    43    42    1
     2    43    44    2
     3    41    42    1
     4    45    42    1
     5    45    46    1
     6    49    50    1
     7    46    47   ar
     8    46    48   ar
     9    51    50    1
    10    51    52    2
    11    50    53    1
    12    56    58   ar
    13    56    54   ar
    14    61    62    1
    15    53    54    1
    16    63    64    2
    17    63    62    1
    18    40    39    2
    19    39    38    1
    20    58    59   ar
    21    54    55   ar
    22    62    65    1
    23    65    66    1
    24    25    26    1
    25    38    37    1
    26    59    60    1
    27    59    57   ar
    28    28    27    2
    29    55    57   ar
    30    66    67    1
    31    67    68    1
    32    26    27    1
    33    37    31   am
    34    27    29   am
    35    69    68    1
    36    17    18    1
    37   111   110    1
    38    32    31    2
    39    98    97    1
    40    98    99    1
    41    31    30    1
    42    20    19    2
    43    19    18    1
    44    97    94    1
    45    18    21    1
    46   110   108   ar
    47   110   109   ar
    48    29    30    1
    49   108   106   ar
    50    99    93    1
    51    30    33    1
    52   109   107   ar
    53    94    93    1
    54    94    95    1
    55    21    22    1
    56   106   105   ar
    57    93    87   am
    58    84    82   ar
    59   107   105   ar
    60    95    96    2
    61    95   100   am
    62    23    22    2
    63    33    34    1
    64    12    11    2
    65     9    10    1
    66   105   104    1
    67    22    24   am
    68   100   101    1
    69    11    10    1
    70    80    79    2
    71    34    35    1
    72    34    36    1
    73    10    13    1
    74    91    90    2
    75     7     6    1
    76    82    83   ar
    77    82    81    1
    78   101   104    1
    79   101   102    1
    80    87    86    1
    81    87    88    2
    82     4     3    2
    83    79    85   am
    84    79    78    1
    85    86    85    1
    86    86    89    1
    87     2     3    1
    88     2     1    1
    89     2     5    1
    90    81    78    1
    91    90    89    1
    92    90    92   am
    93    78    77    1
    94   102   103    2
    95    13    14    1
    96     6     5    1
    97     6     8    1
    98    14    15    1
    99    14    16    1
   100    77    72   am
   101    73    72    2
   102    72    71    1
   103    71    70    1
   104    71    74    1
   105    76    74    1
   106    74    75    1
