@<TRIPOS>MOLECULE
tmp/4g5jA00.pdb
 198 186 0 0 0
SMALL
GASTEIGER

@<TRIPOS>ATOM
      1  N         43.3880   -2.8590  -19.0690 N.3    23  LEU23      -0.1245
      2  CA        43.9790   -1.6780  -18.4280 C.3    23  LEU23       0.1561
      3  C         43.1770   -0.3900  -18.6420 C.2    23  LEU23       0.2260
      4  O         43.1690    0.4790  -17.7670 O.2    23  LEU23      -0.2867
      5  CB        45.4100   -1.4780  -18.9250 C.3    23  LEU23       0.0270
      6  CG        46.3640   -2.6020  -18.5300 C.3    23  LEU23       0.0019
      7  CD1       47.6750   -2.4880  -19.2880 C.3    23  LEU23       0.0001
      8  CD2       46.5990   -2.5770  -17.0360 C.3    23  LEU23       0.0001
      9  N         44.1890   -1.1410  -24.2170 N.3    27  VAL27      -0.1245
     10  CA        45.4350   -1.8090  -23.8260 C.3    27  VAL27       0.1561
     11  C         45.1560   -2.8870  -22.7730 C.2    27  VAL27       0.2260
     12  O         44.2850   -2.7130  -21.9290 O.2    27  VAL27      -0.2867
     13  CB        46.4880   -0.8000  -23.2920 C.3    27  VAL27       0.0252
     14  CG1       47.8600   -1.4600  -23.1620 C.3    27  VAL27       0.0019
     15  CG2       46.5950    0.4050  -24.2140 C.3    27  VAL27       0.0019
     16  N         46.8900   -6.2420  -20.1020 N.3    29  LYS29      -0.1245
     17  CA        47.9820   -6.9880  -19.4640 C.3    29  LYS29       0.1561
     18  C         47.9530   -8.3700  -20.0660 C.2    29  LYS29       0.2260
     19  O         46.9160   -8.7980  -20.5680 O.2    29  LYS29      -0.2867
     20  CB        47.7640   -7.1420  -17.9490 C.3    29  LYS29       0.0271
     21  CG        48.0220   -5.9110  -17.0970 C.3    29  LYS29       0.0035
     22  CD        47.9160   -6.2530  -15.6060 C.3    29  LYS29       0.0206
     23  CE        48.2190   -5.0490  -14.7030 C.3    29  LYS29       0.1093
     24  NZ        47.7690   -5.2380  -13.2920 N.3    29  LYS29      -0.1314
     25  N         52.2080   -6.0530  -22.7240 N.3    44  ALA44      -0.1245
     26  CA        51.0560   -5.2130  -22.9460 C.3    44  ALA44       0.1562
     27  C         50.5780   -5.4350  -24.3700 C.2    44  ALA44       0.2260
     28  O         51.3760   -5.7340  -25.2620 O.2    44  ALA44      -0.2867
     29  CB        51.3990   -3.7840  -22.7370 C.3    44  ALA44       0.0290
     30  N         48.0210   -3.6760  -27.2920 N.3    46  LYS46      -0.1245
     31  CA        47.2210   -2.5380  -27.7410 C.3    46  LYS46       0.1561
     32  C         46.3900   -2.9480  -28.9550 C.2    46  LYS46       0.2260
     33  O         46.9320   -3.5390  -29.8930 O.2    46  LYS46      -0.2867
     34  CB        48.1410   -1.3660  -28.0990 C.3    46  LYS46       0.0271
     35  CG        47.4240   -0.0490  -28.4240 C.3    46  LYS46       0.0035
     36  CD        48.4060    1.1190  -28.4530 C.3    46  LYS46       0.0206
     37  CE        47.7140    2.4680  -28.6360 C.3    46  LYS46       0.1093
     38  NZ        48.6240    3.6170  -28.3270 N.3    46  LYS46      -0.1314
     39  N         52.4410    2.6530  -36.7110 N.3    53  GLU53      -0.1245
     40  CA        52.9380    2.5900  -35.3270 C.3    53  GLU53       0.1567
     41  C         53.7250    1.3030  -35.0950 C.2    53  GLU53       0.2260
     42  O         54.7510    1.3090  -34.4250 O.2    53  GLU53      -0.2867
     43  CB        51.7620    2.6850  -34.3400 C.3    53  GLU53       0.0388
     44  CG        52.1250    2.6640  -32.8450 C.3    53  GLU53       0.1160
     45  CD        50.9500    3.0590  -31.9330 C.2    53  GLU53       0.3649
     46  OE1       49.9710    3.6580  -32.4230 O.co2  53  GLU53      -0.2457
     47  OE2       51.0100    2.7810  -30.7200 O.co2  53  GLU53      -0.2457
     48  N         57.7860    1.0350  -34.0590 N.3    57  MET57      -0.1245
     49  CA        58.1970    0.2890  -32.8660 C.3    57  MET57       0.1570
     50  C         59.0170   -0.9530  -33.2130 C.2    57  MET57       0.2261
     51  O         59.9190   -1.3430  -32.4620 O.2    57  MET57      -0.2867
     52  CB        56.9860   -0.1580  -32.0560 C.3    57  MET57       0.0387
     53  CG        56.3100    0.9190  -31.2720 C.3    57  MET57       0.0595
     54  SD        55.3450    0.2140  -29.9110 S.3    57  MET57      -0.1393
     55  CE        53.9360   -0.4610  -30.7810 C.3    57  MET57       0.0692
     56  N         60.6380    1.9450  -26.1950 N.3    66  CYS66      -0.1235
     57  CA        59.8850    0.6890  -26.2430 C.3    66  CYS66       0.1677
     58  C         59.9510    0.0270  -27.6130 C.2    66  CYS66       0.2270
     59  O         59.7190    0.6670  -28.6430 O.2    66  CYS66      -0.2867
     60  CB        58.4260    0.9260  -25.8770 C.3    66  CYS66       0.0956
     61  SG        58.1850    1.1760  -24.1270 S.3    66  CYS66      -0.0801
     62  N         49.2220   -5.0400  -31.2110 N.3    79  LEU79      -0.1231
     63  CA        50.6320   -4.7820  -30.9990 C.3    79  LEU79       0.1693
     64  C         51.0280   -5.3800  -29.6640 C.2    79  LEU79       0.2592
     65  O         50.3360   -5.1880  -28.6780 O.2    79  LEU79      -0.2718
     66  CB        50.9040   -3.2740  -31.0080 C.3    79  LEU79       0.0284
     67  CG        50.8660   -2.5160  -32.3500 C.3    79  LEU79       0.0019
     68  CD1       49.7860   -3.0030  -33.3090 C.3    79  LEU79       0.0001
     69  CD2       50.6810   -1.0270  -32.0880 C.3    79  LEU79       0.0001
     70  N         52.1360   -6.1110  -29.6360 N.am   80  ILE80      -0.1966
     71  CA        52.6110   -6.7550  -28.4140 C.3    80  ILE80       0.1727
     72  C         53.9610   -6.1780  -27.9850 C.2    80  ILE80       0.2617
     73  O         54.9140   -6.1820  -28.7550 O.2    80  ILE80      -0.2715
     74  CB        52.7270   -8.2870  -28.6050 C.3    80  ILE80       0.0290
     75  CG1       51.3390   -8.9080  -28.7410 C.3    80  ILE80       0.0022
     76  CG2       53.4570   -8.9450  -27.4220 C.3    80  ILE80       0.0023
     77  CD1       50.7740   -8.8630  -30.1300 C.3    80  ILE80       0.0001
     78  N         54.0410   -5.6960  -26.7530 N.am   81  THR81      -0.1937
     79  CA        55.2870   -5.1580  -26.2250 C.3    81  THR81       0.2028
     80  C         55.5370   -5.6500  -24.8050 C.2    81  THR81       0.2642
     81  O         54.6270   -6.1490  -24.1490 O.2    81  THR81      -0.2714
     82  CB        55.2780   -3.6170  -26.2100 C.3    81  THR81       0.1808
     83  OG1       56.5690   -3.1370  -25.8100 O.3    81  THR81      -0.2208
     84  CG2       54.2310   -3.0910  -25.2320 C.3    81  THR81       0.0379
     85  N         56.7710   -5.4880  -24.3330 N.am   82  GLN82      -0.1963
     86  CA        57.1060   -5.8020  -22.9450 C.3    82  GLN82       0.1733
     87  C         56.2780   -4.9550  -21.9710 C.2    82  GLN82       0.2616
     88  O         56.2480   -3.7230  -22.0720 O.2    82  GLN82      -0.2715
     89  CB        58.5990   -5.5810  -22.6790 C.3    82  GLN82       0.0408
     90  CG        58.9580   -5.5290  -21.1980 C.3    82  GLN82       0.0908
     91  CD        60.4200   -5.8300  -20.9160 C.2    82  GLN82       0.2608
     92  OE1       61.3200   -5.0920  -21.3270 O.2    82  GLN82      -0.2717
     93  NE2       60.6600   -6.9090  -20.1890 N.am   82  GLN82      -0.0878
     94  N         55.6230   -5.6240  -21.0250 N.am   83  LEU83      -0.1963
     95  CA        54.8430   -4.9480  -19.9970 C.3    83  LEU83       0.1728
     96  C         55.7640   -4.1190  -19.1190 C.2    83  LEU83       0.2616
     97  O         56.7400   -4.6410  -18.5800 O.2    83  LEU83      -0.2715
     98  CB        54.1060   -5.9590  -19.1260 C.3    83  LEU83       0.0311
     99  CG        53.1980   -5.3880  -18.0330 C.3    83  LEU83       0.0022
    100  CD1       51.9610   -4.7450  -18.6180 C.3    83  LEU83       0.0001
    101  CD2       52.7940   -6.4730  -17.0820 C.3    83  LEU83       0.0001
    102  N         55.4470   -2.8300  -19.0050 N.am   84  MET84      -0.1964
    103  CA        56.0980   -1.9200  -18.0710 C.3    84  MET84       0.1722
    104  C         55.2000   -1.8560  -16.8460 C.2    84  MET84       0.2458
    105  O         54.1220   -1.2610  -16.8980 O.2    84  MET84      -0.2730
    106  CB        56.2560   -0.5310  -18.6910 C.3    84  MET84       0.0427
    107  CG        56.9530   -0.5430  -20.0280 C.3    84  MET84       0.0599
    108  SD        58.5710   -1.3260  -19.9240 S.3    84  MET84      -0.1393
    109  CE        59.6240    0.0970  -20.1480 C.3    84  MET84       0.0692
    110  N         55.6290   -2.4870  -15.7400 N.am   85  PRO85      -0.2716
    111  CA        54.7120   -2.7210  -14.6370 C.3    85  PRO85       0.1536
    112  C         54.2350   -1.4660  -13.9130 C.2    85  PRO85       0.2599
    113  O         53.1050   -1.4460  -13.4430 O.2    85  PRO85      -0.2715
    114  CB        55.5120   -3.6370  -13.7060 C.3    85  PRO85       0.0310
    115  CG        56.9180   -3.3730  -14.0180 C.3    85  PRO85       0.0237
    116  CD        56.9730   -3.0240  -15.4610 C.3    85  PRO85       0.0939
    117  N         55.0590   -0.4260  -13.8380 N.am   86  PHE86      -0.1960
    118  CA        54.6610    0.7940  -13.1260 C.3    86  PHE86       0.1771
    119  C         53.9310    1.8280  -13.9950 C.2    86  PHE86       0.2620
    120  O         53.6610    2.9400  -13.5400 O.2    86  PHE86      -0.2715
    121  CB        55.8680    1.4340  -12.4330 C.3    86  PHE86       0.0574
    122  CG        56.2170    0.7980  -11.1220 C.ar   86  PHE86      -0.0200
    123  CD1       55.3440    0.8730  -10.0530 C.ar   86  PHE86      -0.0042
    124  CD2       57.4200    0.1350  -10.9520 C.ar   86  PHE86      -0.0042
    125  CE1       55.6600    0.2860   -8.8400 C.ar   86  PHE86      -0.0003
    126  CE2       57.7390   -0.4580   -9.7360 C.ar   86  PHE86      -0.0003
    127  CZ        56.8610   -0.3820   -8.6850 C.ar   86  PHE86      -0.0000
    128  N         53.6050    1.4690  -15.2340 N.am   87  GLY87      -0.1940
    129  CA        52.7630    2.3210  -16.0820 C.3    87  GLY87       0.2014
    130  C         53.4080    3.6360  -16.4750 C.2    87  GLY87       0.2639
    131  O         54.6350    3.7540  -16.4700 O.2    87  GLY87      -0.2714
    132  N         52.5810    4.6290  -16.8070 N.am   88  CYS88      -0.1967
    133  CA        53.0870    5.9100  -17.3050 C.3    88  CYS88       0.1712
    134  C         53.6440    6.7590  -16.1890 C.2    88  CYS88       0.2296
    135  O         53.1420    6.7380  -15.0690 O.2    88  CYS88      -0.2864
    136  CB        52.0220    6.6990  -18.0750 C.3    88  CYS88       0.0983
    137  SG        50.4630    7.0170  -17.1840 S.3    88  CYS88      -0.0798
    138  N         53.6220    9.9540  -15.8130 N.3    90  LEU90      -0.1231
    139  CA        52.7290   11.0070  -15.3500 C.3    90  LEU90       0.1693
    140  C         51.9590   10.5290  -14.1250 C.2    90  LEU90       0.2592
    141  O         51.9300   11.2080  -13.1070 O.2    90  LEU90      -0.2718
    142  CB        51.7600   11.4440  -16.4510 C.3    90  LEU90       0.0284
    143  CG        50.8070   12.5860  -16.0720 C.3    90  LEU90       0.0019
    144  CD1       51.5670   13.8540  -15.7600 C.3    90  LEU90       0.0001
    145  CD2       49.8250   12.8350  -17.1860 C.3    90  LEU90       0.0001
    146  N         51.3430    9.3570  -14.2280 N.am   91  ASP91      -0.1974
    147  CA        50.6050    8.7940  -13.1000 C.3    91  ASP91       0.1709
    148  C         51.5510    8.4680  -11.9460 C.2    91  ASP91       0.2293
    149  O         51.1990    8.6640  -10.7860 O.2    91  ASP91      -0.2864
    150  CB        49.8130    7.5450  -13.5230 C.3    91  ASP91       0.1436
    151  CG        48.6120    7.8770  -14.4190 C.2    91  ASP91       0.3671
    152  OD1       48.5340    9.0220  -14.9230 O.co2  91  ASP91      -0.2456
    153  OD2       47.7530    6.9870  -14.6320 O.co2  91  ASP91      -0.2456
    154  N         52.5250   11.6460   -9.9510 N.3    94  ARG94      -0.1245
    155  CA        51.3440   12.0290   -9.1800 C.3    94  ARG94       0.1563
    156  C         51.1810   11.0880   -7.9940 C.2    94  ARG94       0.2260
    157  O         51.0330   11.5270   -6.8620 O.2    94  ARG94      -0.2867
    158  CB        50.0860   12.0090  -10.0500 C.3    94  ARG94       0.0307
    159  CG        49.9630   13.2080  -10.9530 C.3    94  ARG94       0.0489
    160  CD        48.9010   13.0170  -12.0250 C.3    94  ARG94       0.2205
    161  NE        48.9280   14.1170  -12.9890 N.pl3  94  ARG94      -0.0865
    162  CZ        48.0900   14.2590  -14.0120 C.cat  94  ARG94       0.5346
    163  NH1       47.1410   13.3620  -14.2410 N.pl3  94  ARG94       0.1354
    164  NH2       48.2050   15.3090  -14.8150 N.pl3  94  ARG94       0.1354
    165  N         52.9700   11.3580  -20.1390 N.3   132  ARG132     -0.1245
    166  CA        52.0450   10.2250  -20.2800 C.3   132  ARG132      0.1563
    167  C         52.5880    9.1270  -21.2210 C.2   132  ARG132      0.2260
    168  O         52.2450    7.9500  -21.0770 O.2   132  ARG132     -0.2867
    169  CB        50.6730   10.7120  -20.7700 C.3   132  ARG132      0.0307
    170  CG        50.5670   10.9010  -22.2890 C.3   132  ARG132      0.0489
    171  CD        49.3410   11.7120  -22.6910 C.3   132  ARG132      0.2205
    172  NE        49.6800   13.1220  -22.8910 N.pl3 132  ARG132     -0.0865
    173  CZ        49.9040   13.7030  -24.0700 C.cat 132  ARG132      0.5346
    174  NH1       49.8210   13.0100  -25.2020 N.pl3 132  ARG132      0.1354
    175  NH2       50.2090   14.9970  -24.1170 N.pl3 132  ARG132      0.1354
    176  N         57.0320    5.6400  -20.0420 N.3   135  LEU135     -0.1245
    177  CA        56.6270    4.5670  -19.1220 C.3   135  LEU135      0.1561
    178  C         57.7580    4.1530  -18.1790 C.2   135  LEU135      0.2260
    179  O         58.9370    4.3740  -18.4620 O.2   135  LEU135     -0.2867
    180  CB        56.1500    3.3350  -19.8900 C.3   135  LEU135      0.0270
    181  CG        55.1630    3.5350  -21.0370 C.3   135  LEU135      0.0019
    182  CD1       54.9000    2.1990  -21.7310 C.3   135  LEU135      0.0001
    183  CD2       53.8710    4.1600  -20.5350 C.3   135  LEU135      0.0001
    184  N         57.4710    5.7440  -25.3860 N.3   145  THR145     -0.1203
    185  CA        56.5530    4.8900  -26.1140 C.3   145  THR145      0.1994
    186  C         55.5460    5.7520  -26.8810 C.2   145  THR145      0.2617
    187  O         55.6630    6.9770  -26.9100 O.2   145  THR145     -0.2717
    188  CB        55.8500    3.8940  -25.1530 C.3   145  THR145      0.1784
    189  OG1       55.3750    2.7620  -25.8810 O.3   145  THR145     -0.2211
    190  CG2       54.6740    4.5270  -24.4250 C.3   145  THR145      0.0376
    191  N         54.5840    5.0920  -27.5230 N.am  146  ASP146     -0.1973
    192  CA        53.4630    5.7470  -28.2060 C.3   146  ASP146      0.1709
    193  C         53.9010    6.5350  -29.4530 C.2   146  ASP146      0.2293
    194  O         54.0170    7.7680  -29.4440 O.2   146  ASP146     -0.2864
    195  CB        52.6630    6.6110  -27.2180 C.3   146  ASP146      0.1436
    196  CG        51.1630    6.5830  -27.4940 C.2   146  ASP146      0.3671
    197  OD1       50.7750    6.7380  -28.6800 O.co2 146  ASP146     -0.2456
    198  OD2       50.3860    6.4080  -26.5200 O.co2 146  ASP146     -0.2456
@<TRIPOS>BOND
     1    39    40    1
     2    40    41    1
     3    40    43    1
     4    41    42    2
     5    43    44    1
     6    48    49    1
     7    68    67    1
     8    50    49    1
     9    50    51    2
    10    49    52    1
    11    44    45    1
    12    46    45   ar
    13    67    69    1
    14    67    66    1
    15    52    53    1
    16    45    47   ar
    17    53    54    1
    18    62    63    1
    19    66    63    1
    20    63    64    1
    21    55    54    1
    22    77    75    1
    23    33    32    2
    24    64    70   am
    25    64    65    2
    26    70    71    1
    27   193   194    2
    28   193   192    1
    29    32    31    1
    30    73    72    2
    31    75    74    1
    32   197   196   ar
    33    59    58    2
    34    37    36    1
    35    37    38    1
    36    74    71    1
    37    74    76    1
    38    36    35    1
    39    35    34    1
    40    71    72    1
    41   192   191    1
    42   192   195    1
    43    34    31    1
    44    72    78   am
    45    31    30    1
    46    58    57    1
    47   191   186   am
    48   196   195    1
    49   196   198   ar
    50   187   186    2
    51   186   185    1
    52    78    79    1
    53    57    56    1
    54    57    60    1
    55    79    82    1
    56    79    80    1
    57    82    83    1
    58    82    84    1
    59   185   184    1
    60   185   188    1
    61   189   188    1
    62    60    61    1
    63    28    27    2
    64   174   173    1
    65   188   190    1
    66    80    85   am
    67    80    81    2
    68    27    26    1
    69    85    86    1
    70     9    10    1
    71    15    13    1
    72   175   173    1
    73   173   172    2
    74    10    13    1
    75    10    11    1
    76    13    14    1
    77    26    29    1
    78    26    25    1
    79    86    89    1
    80    86    87    1
    81   172   171    1
    82    11    12    2
    83   171   170    1
    84    89    90    1
    85   170   169    1
    86    88    87    2
    87    87    94   am
    88   182   181    1
    89    92    91    2
    90   167   168    2
    91   167   166    1
    92    90    91    1
    93   181   183    1
    94   181   180    1
    95    94    95    1
    96    91    93   am
    97   169   166    1
    98    19    18    2
    99   166   165    1
   100   109   108    1
   101    16    17    1
   102    18    17    1
   103   176   177    1
   104   107   108    1
   105   107   106    1
   106    95    98    1
   107    95    96    1
   108   180   177    1
   109    17    20    1
   110     7     6    1
   111    98    99    1
   112   177   178    1
   113    96   102   am
   114    96    97    2
   115     1     2    1
   116   102   103    1
   117     5     6    1
   118     5     2    1
   119   106   103    1
   120     3     2    1
   121     3     4    2
   122   100    99    1
   123     6     8    1
   124   179   178    2
   125   136   133    1
   126   136   137    1
   127   103   104    1
   128    99   101    1
   129    20    21    1
   130   133   132    1
   131   133   134    1
   132   145   143    1
   133    21    22    1
   134   105   104    2
   135   104   110   am
   136   132   130   am
   137   130   131    2
   138   130   129    1
   139   142   143    1
   140   142   139    1
   141   134   135    2
   142   129   128    1
   143   143   144    1
   144   138   139    1
   145   110   116    1
   146   110   111    1
   147    22    23    1
   148   116   115    1
   149   139   140    1
   150   128   119   am
   151   152   151   ar
   152   164   162    1
   153    23    24    1
   154   111   112    1
   155   111   114    1
   156   153   151   ar
   157   151   150    1
   158   163   162    1
   159   146   140   am
   160   146   147    1
   161   140   141    2
   162   115   114    1
   163   162   161    2
   164   119   120    2
   165   119   118    1
   166   112   117   am
   167   112   113    2
   168   117   118    1
   169   150   147    1
   170   118   121    1
   171   147   148    1
   172   161   160    1
   173   121   122    1
   174   160   159    1
   175   148   149    2
   176   122   124   ar
   177   122   123   ar
   178   159   158    1
   179   124   126   ar
   180   123   125   ar
   181   158   155    1
   182   154   155    1
   183   126   127   ar
   184   155   156    1
   185   125   127   ar
   186   156   157    2
