@<TRIPOS>MOLECULE
tmp/4g5sD00.pdb
 195 183 0 0 0
SMALL
GASTEIGER

@<TRIPOS>ATOM
      1  N        -41.2520  103.9830  -14.8090 N.3    12  GLY12      -0.1210
      2  CA       -41.0040  103.4290  -16.1220 C.3    12  GLY12       0.1956
      3  C        -41.2780  101.9470  -16.0170 C.2    12  GLY12       0.2611
      4  O        -41.1030  101.3690  -14.9440 O.2    12  GLY12      -0.2717
      5  N        -41.7150  101.3430  -17.1180 N.am   13  GLU13      -0.1979
      6  CA       -42.0640   99.9220  -17.1630 C.3    13  GLU13       0.1602
      7  C        -43.2580   99.5900  -16.2670 C.2    13  GLU13       0.2287
      8  O        -43.2370   98.6120  -15.5220 O.2    13  GLU13      -0.2864
      9  CB       -40.8630   99.0630  -16.7650 C.3    13  GLU13       0.0415
     10  CG       -39.6080   99.3880  -17.5360 C.3    13  GLU13       0.1163
     11  CD       -39.6640   98.8650  -18.9390 C.2    13  GLU13       0.3649
     12  OE1      -39.9060   97.6530  -19.1150 O.co2  13  GLU13      -0.2457
     13  OE2      -39.4790   99.6640  -19.8820 O.co2  13  GLU13      -0.2457
     14  N        -47.6890  102.5190  -18.9530 N.3    16  LYS16      -0.1231
     15  CA       -48.2740  103.8060  -19.3320 C.3    16  LYS16       0.1693
     16  C        -48.4570  103.9760  -20.8410 C.2    16  LYS16       0.2592
     17  O        -49.5650  104.2490  -21.3160 O.2    16  LYS16      -0.2718
     18  CB       -47.4230  104.9600  -18.7910 C.3    16  LYS16       0.0285
     19  CG       -47.3230  105.0200  -17.2790 C.3    16  LYS16       0.0035
     20  CD       -46.4660  106.2030  -16.8350 C.3    16  LYS16       0.0206
     21  CE       -45.0510  106.1260  -17.3940 C.3    16  LYS16       0.1093
     22  NZ       -44.3090  104.9350  -16.8970 N.3    16  LYS16      -0.1314
     23  N        -47.3610  103.8290  -21.5830 N.am   17  SER17      -0.1952
     24  CA       -47.3960  103.9470  -23.0360 C.3    17  SER17       0.1924
     25  C        -48.3650  102.9150  -23.5850 C.2    17  SER17       0.2314
     26  O        -49.1240  103.1830  -24.5220 O.2    17  SER17      -0.2863
     27  CB       -46.0040  103.6990  -23.6240 C.3    17  SER17       0.2116
     28  OG       -45.5540  102.3810  -23.3430 O.3    17  SER17      -0.2180
     29  N        -45.5260   99.7950  -40.0640 N.3    38  GLN38      -0.1231
     30  CA       -44.4930  100.6960  -39.5510 C.3    38  GLN38       0.1698
     31  C        -43.7680  100.1220  -38.3350 C.2    38  GLN38       0.2592
     32  O        -42.5500  100.2590  -38.2230 O.2    38  GLN38      -0.2718
     33  CB       -45.0670  102.0720  -39.1940 C.3    38  GLN38       0.0381
     34  CG       -45.1330  103.0640  -40.3340 C.3    38  GLN38       0.0905
     35  CD       -45.7190  104.3930  -39.8960 C.2    38  GLN38       0.2608
     36  OE1      -45.8320  104.6680  -38.7010 O.2    38  GLN38      -0.2717
     37  NE2      -46.0910  105.2260  -40.8600 N.am   38  GLN38      -0.0878
     38  N        -44.5060   99.4870  -37.4240 N.am   39  TYR39      -0.1976
     39  CA       -43.8990   99.0080  -36.1690 C.3    39  TYR39       0.1639
     40  C        -43.0550   97.7330  -36.3060 C.2    39  TYR39       0.2290
     41  O        -42.5030   97.2280  -35.3200 O.2    39  TYR39      -0.2864
     42  CB       -44.9610   98.8090  -35.0820 C.3    39  TYR39       0.0560
     43  CG       -45.4110  100.0750  -34.3820 C.ar   39  TYR39      -0.0198
     44  CD1      -46.1230  101.0590  -35.0600 C.ar   39  TYR39      -0.0009
     45  CD2      -45.1400  100.2760  -33.0350 C.ar   39  TYR39      -0.0009
     46  CE1      -46.5430  102.2140  -34.4150 C.ar   39  TYR39       0.0417
     47  CE2      -45.5540  101.4270  -32.3810 C.ar   39  TYR39       0.0417
     48  CZ       -46.2550  102.3920  -33.0750 C.ar   39  TYR39       0.1957
     49  OH       -46.6680  103.5370  -32.4270 O.3    39  TYR39      -0.2866
     50  N        -40.0720   97.0000  -37.8370 N.3    41  VAL41      -0.1231
     51  CA       -38.6770   97.1950  -37.4680 C.3    41  VAL41       0.1692
     52  C        -38.5080   97.2770  -35.9540 C.2    41  VAL41       0.2591
     53  O        -37.5800   96.6890  -35.3930 O.2    41  VAL41      -0.2718
     54  CB       -38.1150   98.4710  -38.1310 C.3    41  VAL41       0.0266
     55  CG1      -39.1830   99.5600  -38.1700 C.3    41  VAL41       0.0020
     56  CG2      -36.8550   98.9460  -37.4180 C.3    41  VAL41       0.0020
     57  N        -39.4060   98.0110  -35.3020 N.am   42  VAL42      -0.1980
     58  CA       -39.3810   98.1460  -33.8520 C.3    42  VAL42       0.1595
     59  C        -39.4900   96.7800  -33.1920 C.2    42  VAL42       0.2287
     60  O        -38.7460   96.4740  -32.2570 O.2    42  VAL42      -0.2864
     61  CB       -40.5350   99.0340  -33.3420 C.3    42  VAL42       0.0276
     62  CG1      -40.4120   99.2430  -31.8390 C.3    42  VAL42       0.0022
     63  CG2      -40.5390  100.3680  -34.0710 C.3    42  VAL42       0.0022
     64  N        -36.2120   94.9160  -33.5890 N.3    45  SER45      -0.1202
     65  CA       -35.2410   95.5180  -32.6830 C.3    45  SER45       0.2020
     66  C        -35.4230   95.0310  -31.2500 C.2    45  SER45       0.2618
     67  O        -34.4730   94.5530  -30.6350 O.2    45  SER45      -0.2717
     68  CB       -35.3300   97.0440  -32.7410 C.3    45  SER45       0.2103
     69  OG       -35.1920   97.5070  -34.0750 O.3    45  SER45      -0.2182
     70  N        -36.6350   95.1860  -30.7200 N.am   46  ASN46      -0.1974
     71  CA       -36.9500   94.7380  -29.3670 C.3    46  ASN46       0.1688
     72  C        -36.5790   93.2630  -29.1740 C.2    46  ASN46       0.2292
     73  O        -35.9940   92.8830  -28.1530 O.2    46  ASN46      -0.2864
     74  CB       -38.4420   94.9560  -29.0600 C.3    46  ASN46       0.1181
     75  CG       -38.8260   96.4310  -28.9950 C.2    46  ASN46       0.2629
     76  OD1      -39.8780   96.8330  -29.4950 O.2    46  ASN46      -0.2716
     77  ND2      -37.9710   97.2410  -28.3830 N.am   46  ASN46      -0.0877
     78  N        -32.6090   92.8140  -29.2750 N.3    49  GLN49      -0.1231
     79  CA       -32.0710   93.4010  -28.0570 C.3    49  GLN49       0.1698
     80  C        -32.3510   92.5090  -26.8540 C.2    49  GLN49       0.2592
     81  O        -31.5030   92.3590  -25.9730 O.2    49  GLN49      -0.2718
     82  CB       -32.6640   94.7930  -27.8400 C.3    49  GLN49       0.0381
     83  CG       -32.2040   95.3840  -26.4950 C.3    49  GLN49       0.0905
     84  CD       -30.7980   95.8700  -26.6320 C.2    49  GLN49       0.2608
     85  OE1      -30.5300   96.7050  -27.5110 O.2    49  GLN49      -0.2717
     86  NE2      -29.8990   95.3210  -25.7930 N.am   49  GLN49      -0.0878
     87  N        -33.5360   91.9260  -26.8430 N.am   50  SER50      -0.1952
     88  CA       -33.9040   91.0270  -25.7830 C.3    50  SER50       0.1924
     89  C        -32.9160   89.8770  -25.7630 C.2    50  SER50       0.2314
     90  O        -32.1520   89.7170  -24.8170 O.2    50  SER50      -0.2863
     91  CB       -35.3160   90.5110  -26.0080 C.3    50  SER50       0.2116
     92  OG       -35.5180   89.3070  -25.3020 O.3    50  SER50      -0.2180
     93  N        -29.5050   90.6610  -24.7050 N.3    53  ALA53      -0.1245
     94  CA       -29.4560   90.9230  -23.2700 C.3    53  ALA53       0.1562
     95  C        -29.3730   89.6190  -22.4730 C.2    53  ALA53       0.2260
     96  O        -28.5940   89.5140  -21.5170 O.2    53  ALA53      -0.2867
     97  CB       -30.6620   91.7440  -22.8350 C.3    53  ALA53       0.0290
     98  N        -25.6860   88.2720  -22.9220 N.3    56  ARG56      -0.1245
     99  CA       -24.7300   89.0260  -22.1160 C.3    56  ARG56       0.1563
    100  C        -24.8990   88.7000  -20.6340 C.2    56  ARG56       0.2260
    101  O        -23.9190   88.6250  -19.8790 O.2    56  ARG56      -0.2867
    102  CB       -24.9040   90.5290  -22.3580 C.3    56  ARG56       0.0307
    103  CG       -24.4070   90.9900  -23.7420 C.3    56  ARG56       0.0489
    104  CD       -24.5400   92.4950  -23.9010 C.3    56  ARG56       0.2205
    105  NE       -25.9350   92.9240  -23.7910 N.pl3  56  ARG56      -0.0865
    106  CZ       -26.4360   93.7030  -22.8330 C.cat  56  ARG56       0.5346
    107  NH1      -25.6500   94.2230  -21.8960 N.pl3  56  ARG56       0.1354
    108  NH2      -27.7230   94.0010  -22.8440 N.pl3  56  ARG56       0.1354
    109  N        -32.0240   96.3520  -38.8020 N.3    85  GLU85      -0.1245
    110  CA       -32.2120   97.7480  -38.4010 C.3    85  GLU85       0.1567
    111  C        -32.7410   98.6460  -39.5210 C.2    85  GLU85       0.2260
    112  O        -33.1070   98.1730  -40.5990 O.2    85  GLU85      -0.2867
    113  CB       -30.9090   98.3250  -37.8460 C.3    85  GLU85       0.0388
    114  CG       -30.4130   97.6280  -36.6040 C.3    85  GLU85       0.1160
    115  CD       -31.2780   97.7860  -35.3960 C.2    85  GLU85       0.3649
    116  OE1      -32.1600   98.6840  -35.3550 O.co2  85  GLU85      -0.2457
    117  OE2      -30.9880   97.0620  -34.4310 O.co2  85  GLU85      -0.2457
    118  N        -31.7130   92.7130  -16.0540 N.3   115  GLN115     -0.1231
    119  CA       -32.6970   93.6220  -16.6250 C.3   115  GLN115      0.1698
    120  C        -33.1470   93.1430  -17.9900 C.2   115  GLN115      0.2592
    121  O        -32.5240   93.4360  -19.0080 O.2   115  GLN115     -0.2718
    122  CB       -32.1410   95.0470  -16.7030 C.3   115  GLN115      0.0381
    123  CG       -31.8770   95.6810  -15.3470 C.3   115  GLN115      0.0905
    124  CD       -31.1560   97.0150  -15.4460 C.2   115  GLN115      0.2608
    125  OE1      -30.8070   97.4690  -16.5360 O.2   115  GLN115     -0.2717
    126  NE2      -30.9290   97.6500  -14.3010 N.am  115  GLN115     -0.0878
    127  N        -34.2480   92.4040  -17.9890 N.am  116  LEU116     -0.1966
    128  CA       -34.8520   91.9040  -19.2090 C.3   116  LEU116      0.1728
    129  C        -36.2750   92.4240  -19.3180 C.2   116  LEU116      0.2616
    130  O        -37.0760   92.2610  -18.3980 O.2   116  LEU116     -0.2715
    131  CB       -34.8270   90.3730  -19.2160 C.3   116  LEU116      0.0311
    132  CG       -35.4720   89.6290  -20.3820 C.3   116  LEU116      0.0022
    133  CD1      -35.1040   90.2750  -21.7070 C.3   116  LEU116      0.0001
    134  CD2      -35.0090   88.1780  -20.3540 C.3   116  LEU116      0.0001
    135  N        -36.5790   93.0580  -20.4450 N.am  117  ASN117     -0.1972
    136  CA       -37.9050   93.6060  -20.6720 C.3   117  ASN117      0.1688
    137  C        -38.9460   92.4910  -20.7070 C.2   117  ASN117      0.2292
    138  O        -38.6150   91.3360  -20.9780 O.2   117  ASN117     -0.2864
    139  CB       -37.9230   94.4310  -21.9580 C.3   117  ASN117      0.1181
    140  CG       -37.8070   93.5800  -23.2010 C.2   117  ASN117      0.2629
    141  OD1      -38.8040   93.2770  -23.8550 O.2   117  ASN117     -0.2716
    142  ND2      -36.5830   93.1920  -23.5400 N.am  117  ASN117     -0.0877
    143  N        -44.6800   96.3410  -28.3080 N.3   145  THR145     -0.1203
    144  CA       -43.5320   97.1240  -28.7510 C.3   145  THR145      0.1994
    145  C        -43.0870   98.0870  -27.6770 C.2   145  THR145      0.2618
    146  O        -43.8940   98.6160  -26.9150 O.2   145  THR145     -0.2717
    147  CB       -43.8070   97.9490  -30.0240 C.3   145  THR145      0.1784
    148  OG1      -44.8720   98.8780  -29.7810 O.3   145  THR145     -0.2211
    149  CG2      -44.1570   97.0460  -31.1920 C.3   145  THR145      0.0376
    150  N        -41.7810   98.2980  -27.6280 N.am  146  ARG146     -0.1965
    151  CA       -41.1870   99.2220  -26.6900 C.3   146  ARG146      0.1729
    152  C        -40.5530  100.3450  -27.4870 C.2   146  ARG146      0.2616
    153  O        -39.6220  100.1230  -28.2610 O.2   146  ARG146     -0.2715
    154  CB       -40.1390   98.5060  -25.8530 C.3   146  ARG146      0.0348
    155  CG       -40.4420   97.0370  -25.6620 C.3   146  ARG146      0.0492
    156  CD       -39.3690   96.3610  -24.8540 C.3   146  ARG146      0.2205
    157  NE       -39.5420   96.6530  -23.4400 N.pl3 146  ARG146     -0.0865
    158  CZ       -38.9150   97.6280  -22.7960 C.cat 146  ARG146      0.5346
    159  NH1      -39.1420   97.8100  -21.5120 N.pl3 146  ARG146      0.1354
    160  NH2      -38.0590   98.4120  -23.4310 N.pl3 146  ARG146      0.1354
    161  N        -41.0720  101.5520  -27.3060 N.am  147  VAL147     -0.1963
    162  CA       -40.5890  102.6980  -28.0520 C.3   147  VAL147      0.1727
    163  C        -39.8680  103.6220  -27.0930 C.2   147  VAL147      0.2616
    164  O        -40.3720  103.9200  -26.0090 O.2   147  VAL147     -0.2715
    165  CB       -41.7460  103.4580  -28.7280 C.3   147  VAL147      0.0290
    166  CG1      -41.2790  104.8230  -29.2220 C.3   147  VAL147      0.0023
    167  CG2      -42.3210  102.6380  -29.8710 C.3   147  VAL147      0.0023
    168  N        -38.6780  104.0550  -27.4920 N.am  148  LYS148     -0.1963
    169  CA       -37.9160  105.0030  -26.7030 C.3   148  LYS148      0.1728
    170  C        -38.7580  106.2640  -26.5890 C.2   148  LYS148      0.2616
    171  O        -39.1760  106.8360  -27.5960 O.2   148  LYS148     -0.2715
    172  CB       -36.5720  105.2790  -27.3820 C.3   148  LYS148      0.0311
    173  CG       -35.5500  106.0420  -26.5560 C.3   148  LYS148      0.0038
    174  CD       -34.2110  106.0480  -27.2830 C.3   148  LYS148      0.0206
    175  CE       -33.2500  107.0820  -26.7210 C.3   148  LYS148      0.1093
    176  NZ       -32.6950  106.6960  -25.3950 N.3   148  LYS148     -0.1314
    177  N        -39.0150  106.6930  -25.3590 N.am  149  THR149     -0.1951
    178  CA       -39.8540  107.8600  -25.1470 C.3   149  THR149      0.1897
    179  C        -39.0020  109.0140  -24.6570 C.2   149  THR149      0.2313
    180  O        -38.1640  108.8490  -23.7710 O.2   149  THR149     -0.2863
    181  CB       -40.9550  107.5720  -24.1090 C.3   149  THR149      0.1794
    182  OG1      -41.6410  106.3640  -24.4600 O.3   149  THR149     -0.2208
    183  CG2      -41.9480  108.7210  -24.0410 C.3   149  THR149      0.0378
    184  N        -49.4520  111.2870  -20.8510 N.3   168  ASP168     -0.1239
    185  CA       -48.3840  110.4840  -20.2580 C.3   168  ASP168      0.1674
    186  C        -47.1380  111.3460  -20.0730 C.2   168  ASP168      0.2266
    187  O        -46.5520  111.8280  -21.0430 O.2   168  ASP168     -0.2867
    188  CB       -48.0600  109.2710  -21.1410 C.3   168  ASP168      0.1410
    189  CG       -46.8850  108.4530  -20.6200 C.2   168  ASP168      0.3668
    190  OD1      -46.5960  108.5100  -19.4060 O.co2 168  ASP168     -0.2456
    191  OD2      -46.2490  107.7470  -21.4320 O.co2 168  ASP168     -0.2456
    192  N        -43.4600  111.4910  -17.6920 N.3   170  GLY170     -0.1225
    193  CA       -42.1780  110.8190  -17.7920 C.3   170  GLY170      0.1811
    194  C        -41.0150  111.7890  -17.7080 C.2   170  GLY170      0.2280
    195  O        -39.8510  111.3890  -17.7700 O.2   170  GLY170     -0.2866
@<TRIPOS>BOND
     1    37    35   am
     2   112   111    2
     3    34    35    1
     4    34    33    1
     5    29    30    1
     6    35    36    2
     7    30    33    1
     8    30    31    1
     9   111   110    1
    10   109   110    1
    11   110   113    1
    12    31    32    2
    13    31    38   am
    14    55    54    1
    15    54    51    1
    16    54    56    1
    17   113   114    1
    18    50    51    1
    19    51    52    1
    20    38    39    1
    21   114   115    1
    22    40    39    1
    23    40    41    2
    24    39    42    1
    25    52    53    2
    26    52    57   am
    27   115   116   ar
    28   115   117   ar
    29    57    58    1
    30    42    43    1
    31    44    46   ar
    32    44    43   ar
    33    46    48   ar
    34    43    45   ar
    35    69    68    1
    36    63    61    1
    37    58    61    1
    38    58    59    1
    39    64    65    1
    40    61    62    1
    41    59    60    2
    42    48    49    1
    43    48    47   ar
    44    45    47   ar
    45    68    65    1
    46    65    66    1
    47    66    70   am
    48    66    67    2
    49   149   147    1
    50    70    71    1
    51   147   148    1
    52   147   144    1
    53   167   165    1
    54    76    75    2
    55    71    72    1
    56    71    74    1
    57    78    79    1
    58   166   165    1
    59    72    73    2
    60    74    75    1
    61    75    77   am
    62   144   143    1
    63   144   145    1
    64   165   162    1
    65   153   152    2
    66    79    82    1
    67    79    80    1
    68   162   161    1
    69   162   163    1
    70    82    83    1
    71   145   150   am
    72   145   146    2
    73   150   151    1
    74   171   170    2
    75    85    84    2
    76   168   163   am
    77   168   169    1
    78   152   161   am
    79   152   151    1
    80   172   169    1
    81   172   173    1
    82   174   175    1
    83   174   173    1
    84   163   164    2
    85    80    87   am
    86    80    81    2
    87    87    88    1
    88   175   176    1
    89   169   170    1
    90   151   154    1
    91    84    83    1
    92    84    86   am
    93   170   177   am
    94    91    88    1
    95    91    92    1
    96   154   155    1
    97    88    89    1
    98    89    90    2
    99   155   156    1
   100   177   178    1
   101   178   179    1
   102   178   181    1
   103   156   157    1
   104    93    94    1
   105   179   180    2
   106    26    25    2
   107   182   181    1
   108   181   183    1
   109   104   105    1
   110   104   103    1
   111   141   140    2
   112   105   106    2
   113   103   102    1
   114    27    28    1
   115    27    24    1
   116    25    24    1
   117   142   140   am
   118   157   158    2
   119   160   158    1
   120    94    97    1
   121    94    95    1
   122   140   139    1
   123    24    23    1
   124    98    99    1
   125   108   106    1
   126   106   107    1
   127   158   159    1
   128    95    96    2
   129   102    99    1
   130    99   100    1
   131   139   136    1
   132   133   132    1
   133    23    16   am
   134   191   189   ar
   135    17    16    2
   136   188   189    1
   137   188   185    1
   138   187   186    2
   139   138   137    2
   140   184   185    1
   141    16    15    1
   142   137   136    1
   143   136   135    1
   144   100   101    2
   145   189   190   ar
   146   135   129   am
   147   132   134    1
   148   132   131    1
   149   185   186    1
   150    13    11   ar
   151    15    14    1
   152    15    18    1
   153   129   128    1
   154   129   130    2
   155   131   128    1
   156   128   127    1
   157    12    11   ar
   158   121   120    2
   159    11    10    1
   160    18    19    1
   161   120   127   am
   162   120   119    1
   163   193   194    1
   164   193   192    1
   165   195   194    2
   166    10     9    1
   167    21    22    1
   168    21    20    1
   169    19    20    1
   170     6     5    1
   171     6     9    1
   172     6     7    1
   173     5     3   am
   174   122   119    1
   175   122   123    1
   176   119   118    1
   177   125   124    2
   178     7     8    2
   179     2     3    1
   180     2     1    1
   181     3     4    2
   182   124   123    1
   183   124   126   am
