@<TRIPOS>MOLECULE
tmp/4g5yB02.pdb
 56 51 0 0 0
SMALL
GASTEIGER

@<TRIPOS>ATOM
      1  N          6.8480  -25.9320   54.3350 N.3   189  ALA189     -0.1245
      2  CA         7.9620  -25.2510   54.9640 C.3   189  ALA189      0.1562
      3  C          8.3270  -24.0140   54.0970 C.2   189  ALA189      0.2260
      4  O          8.6360  -22.9450   54.6220 O.2   189  ALA189     -0.2867
      5  CB         9.1560  -26.1970   55.0250 C.3   189  ALA189      0.0290
      6  N          5.5870  -21.3890   54.4430 N.3   192  ALA192     -0.1231
      7  CA         5.6030  -20.7170   55.7540 C.3   192  ALA192      0.1694
      8  C          6.7580  -19.6310   55.7120 C.2   192  ALA192      0.2591
      9  O          6.5570  -18.4780   56.1540 O.2   192  ALA192     -0.2718
     10  CB         5.8890  -21.7480   56.8710 C.3   192  ALA192      0.0304
     11  N          7.8770  -20.0450   55.1620 N.am  193  ALA193     -0.1980
     12  CA         9.0740  -19.1160   55.0980 C.3   193  ALA193      0.1597
     13  C          8.8670  -17.9680   54.1150 C.2   193  ALA193      0.2287
     14  O          9.4380  -16.8890   54.3030 O.2   193  ALA193     -0.2864
     15  CB        10.3940  -19.8630   54.7730 C.3   193  ALA193      0.0319
     16  N          6.5580  -15.9750   53.6550 N.3   195  VAL195     -0.1231
     17  CA         5.9500  -14.7900   54.3200 C.3   195  VAL195      0.1692
     18  C          7.0290  -13.7450   54.6380 C.2   195  VAL195      0.2591
     19  O          6.7540  -12.5850   54.7470 O.2   195  VAL195     -0.2718
     20  CB         5.1240  -15.1650   55.5770 C.3   195  VAL195      0.0266
     21  CG1        6.0190  -15.5570   56.7060 C.3   195  VAL195      0.0020
     22  CG2        4.3770  -13.9630   56.1330 C.3   195  VAL195      0.0020
     23  N          8.2800  -14.1940   54.7080 N.am  196  ALA196     -0.1980
     24  CA         9.3640  -13.2710   55.1100 C.3   196  ALA196      0.1597
     25  C          9.5320  -12.1710   54.0740 C.2   196  ALA196      0.2287
     26  O         10.0330  -11.0870   54.4250 O.2   196  ALA196     -0.2864
     27  CB        10.6960  -14.0520   55.2730 C.3   196  ALA196      0.0319
     28  N          6.8200   -9.6410   54.8530 N.3   199  ALA199     -0.1245
     29  CA         7.0120   -9.1520   56.2480 C.3   199  ALA199      0.1562
     30  C          8.2800   -8.2160   56.2800 C.2   199  ALA199      0.2260
     31  O          8.2210   -7.1560   56.9460 O.2   199  ALA199     -0.2867
     32  CB         7.2060  -10.3370   57.0930 C.3   199  ALA199      0.0290
     33  N         14.4920   -9.4630   59.0150 N.3   222  VAL222     -0.1245
     34  CA        13.3520  -10.3480   58.7900 C.3   222  VAL222      0.1561
     35  C         13.7570  -11.5240   57.8490 C.2   222  VAL222      0.2260
     36  O         13.4440  -12.7020   58.1290 O.2   222  VAL222     -0.2867
     37  CB        12.1070   -9.5630   58.2610 C.3   222  VAL222      0.0252
     38  CG1       11.0060  -10.5820   57.9100 C.3   222  VAL222      0.0019
     39  CG2       11.6360   -8.5610   59.3490 C.3   222  VAL222      0.0019
     40  N         15.6980  -14.1070   59.4920 N.3   225  ALA225     -0.1231
     41  CA        15.0000  -14.9560   60.4760 C.3   225  ALA225      0.1694
     42  C         14.3110  -16.1750   59.7680 C.2   225  ALA225      0.2592
     43  O         13.7230  -17.0250   60.4400 O.2   225  ALA225     -0.2718
     44  CB        13.9640  -14.1130   61.2910 C.3   225  ALA225      0.0304
     45  N         14.4020  -16.2750   58.4410 N.am  226  ALA226     -0.1966
     46  CA        13.6700  -17.3440   57.6600 C.3   226  ALA226      0.1713
     47  C         14.6830  -18.3960   57.1880 C.2   226  ALA226      0.2455
     48  O         15.7820  -18.0440   56.7410 O.2   226  ALA226     -0.2730
     49  CB        12.9980  -16.7690   56.4080 C.3   226  ALA226      0.0333
     50  N         14.3040  -19.6930   57.2770 N.am  227  PRO227     -0.2772
     51  CA        15.1640  -20.7390   56.7610 C.3   227  PRO227      0.1083
     52  C         14.8600  -20.9500   55.2390 C.3   227  PRO227      0.2017
     53  O         13.6590  -20.8470   54.7890 O.3   227  PRO227     -0.2186
     54  CB        14.7010  -21.9890   57.5990 C.3   227  PRO227      0.0243
     55  CG        13.2200  -21.7150   57.8370 C.3   227  PRO227      0.0233
     56  CD        13.1090  -20.2110   57.9780 C.3   227  PRO227      0.0935
@<TRIPOS>BOND
     1    16    17    1
     2    25    26    2
     3    25    24    1
     4     3     4    2
     5     3     2    1
     6    13    14    2
     7    13    12    1
     8    17    18    1
     9    17    20    1
    10     1     2    1
    11     6     7    1
    12    18    23   am
    13    18    19    2
    14    23    24    1
    15    15    12    1
    16    53    52    1
    17    28    29    1
    18     2     5    1
    19    12    11    1
    20    24    27    1
    21    11     8   am
    22    52    51    1
    23    20    22    1
    24    20    21    1
    25     8     7    1
    26     8     9    2
    27     7    10    1
    28    29    30    1
    29    29    32    1
    30    30    31    2
    31    49    46    1
    32    48    47    2
    33    51    50    1
    34    51    54    1
    35    47    50   am
    36    47    46    1
    37    50    56    1
    38    54    55    1
    39    46    45    1
    40    55    56    1
    41    35    36    2
    42    35    34    1
    43    38    37    1
    44    37    34    1
    45    37    39    1
    46    45    42   am
    47    34    33    1
    48    40    41    1
    49    42    43    2
    50    42    41    1
    51    41    44    1
