@<TRIPOS>MOLECULE
tmp/4g5yA00.pdb
 177 174 0 0 0
SMALL
GASTEIGER

@<TRIPOS>ATOM
      1  N          8.3420   11.2700    6.0020 N.3    35  PRO35      -0.2102
      2  CA         9.5090   11.6420    6.8420 C.3    35  PRO35       0.1504
      3  C         10.6900   12.0370    6.0150 C.2    35  PRO35       0.2576
      4  O         11.0790   11.2920    5.0370 O.2    35  PRO35      -0.2718
      5  CB         9.8010   10.3980    7.6110 C.3    35  PRO35       0.0282
      6  CG         8.4710    9.5280    7.5000 C.3    35  PRO35       0.0208
      7  CD         8.0870    9.8340    6.0760 C.3    35  PRO35       0.0893
      8  N         11.3090   13.1720    6.4200 N.am   36  THR36      -0.1939
      9  CA        12.5320   13.6140    5.6820 C.3    36  THR36       0.2028
     10  C         13.6130   14.0440    6.6910 C.2    36  THR36       0.2642
     11  O         13.3410   14.2750    7.8940 O.2    36  THR36      -0.2714
     12  CB        12.2500   14.8050    4.7130 C.3    36  THR36       0.1808
     13  OG1       12.1920   16.0400    5.4640 O.3    36  THR36      -0.2208
     14  CG2       10.8670   14.5780    4.0150 C.3    36  THR36       0.0379
     15  N         14.8260   14.2050    6.1420 N.am   37  MET37      -0.1962
     16  CA        15.9090   14.8890    6.9190 C.3    37  MET37       0.1736
     17  C         16.1260   16.3160    6.3990 C.2    37  MET37       0.2617
     18  O         17.2210   16.8690    6.5120 O.2    37  MET37      -0.2715
     19  CB        17.1680   13.9830    6.7930 C.3    37  MET37       0.0427
     20  CG        16.9980   12.7350    7.5890 C.3    37  MET37       0.0599
     21  SD        18.6030   11.8850    7.8240 S.3    37  MET37      -0.1393
     22  CE        19.0810   11.8400    6.1370 C.3    37  MET37       0.0692
     23  N         15.1090   16.9000    5.7590 N.am   38  GLY38      -0.1955
     24  CA        15.1790   18.2260    5.1210 C.3    38  GLY38       0.1869
     25  C         16.1210   18.2080    3.8990 C.2    38  GLY38       0.2309
     26  O         16.4150   17.1170    3.3310 O.2    38  GLY38      -0.2863
     27  N         14.5930   18.0210   -2.1810 N.3    41  HIS41      -0.1241
     28  CA        14.6440   18.1340   -3.6500 C.3    41  HIS41       0.1621
     29  C         13.4590   17.4190   -4.3360 C.2    41  HIS41       0.2264
     30  O         12.5570   16.9140   -3.6870 O.2    41  HIS41      -0.2867
     31  CB        15.9880   17.5680   -4.0860 C.3    41  HIS41       0.0745
     32  CG        16.2280   16.1580   -3.5870 C.ar   41  HIS41       0.0817
     33  ND1       15.5690   15.1250   -4.0930 N.ar   41  HIS41      -0.2268
     34  CD2       17.0190   15.6620   -2.5520 C.ar   41  HIS41       0.1154
     35  CE1       15.9070   13.9730   -3.4310 C.ar   41  HIS41       0.1986
     36  NE2       16.8470   14.2920   -2.5240 N.ar   41  HIS41      -0.2212
     37  N         12.9760   14.5880   -5.5460 N.3    43  GLY43      -0.1210
     38  CA        12.7300   13.2270   -5.0310 C.3    43  GLY43       0.1956
     39  C         11.7810   13.3180   -3.8110 C.2    43  GLY43       0.2611
     40  O         10.7210   12.6080   -3.7490 O.2    43  GLY43      -0.2717
     41  N         12.1040   14.2020   -2.8720 N.am   44  HIS44      -0.1975
     42  CA        11.1640   14.3790   -1.7190 C.3    44  HIS44       0.1656
     43  C          9.7960   14.8480   -2.2300 C.2    44  HIS44       0.2291
     44  O          8.7490   14.4470   -1.6970 O.2    44  HIS44      -0.2864
     45  CB        11.6790   15.3690   -0.7550 C.3    44  HIS44       0.0771
     46  CG        13.0330   15.0230   -0.2190 C.ar   44  HIS44       0.0820
     47  ND1       14.1060   15.7070   -0.5560 N.ar   44  HIS44      -0.2267
     48  CD2       13.4440   14.0380    0.6840 C.ar   44  HIS44       0.1154
     49  CE1       15.1920   15.2180    0.0970 C.ar   44  HIS44       0.1986
     50  NE2       14.7780   14.1670    0.8440 N.ar   44  HIS44      -0.2212
     51  N          7.3550   12.1910   -3.1600 N.3    47  LEU47      -0.1245
     52  CA         6.6720   11.6420   -1.9890 C.3    47  LEU47       0.1561
     53  C          5.5230   12.5170   -1.5870 C.2    47  LEU47       0.2260
     54  O          4.3870   12.0310   -1.3960 O.2    47  LEU47      -0.2867
     55  CB         7.6350   11.5220   -0.7950 C.3    47  LEU47       0.0270
     56  CG         8.9130   10.6980   -0.9900 C.3    47  LEU47       0.0019
     57  CD1        9.4190   10.2490    0.3900 C.3    47  LEU47       0.0001
     58  CD2        8.6870    9.4610   -1.7660 C.3    47  LEU47       0.0001
     59  N         25.6930   16.9450    7.6300 N.3    79  TYR79      -0.1228
     60  CA        24.4290   16.8670    6.9170 C.3    79  TYR79       0.1721
     61  C         23.9020   18.2500    6.3920 C.2    79  TYR79       0.2437
     62  O         23.8060   19.1890    7.1850 O.2    79  TYR79      -0.2733
     63  CB        23.3730   16.0700    7.7370 C.3    79  TYR79       0.0547
     64  CG        22.3460   15.5810    6.7810 C.ar   79  TYR79      -0.0200
     65  CD1       22.5750   14.4230    6.0180 C.ar   79  TYR79      -0.0009
     66  CD2       21.2050   16.3460    6.5250 C.ar   79  TYR79      -0.0009
     67  CE1       21.6570   14.0090    5.0610 C.ar   79  TYR79       0.0417
     68  CE2       20.2820   15.9470    5.5800 C.ar   79  TYR79       0.0417
     69  CZ        20.5250   14.7860    4.8330 C.ar   79  TYR79       0.1957
     70  OH        19.6380   14.3880    3.8680 O.3    79  TYR79      -0.2866
     71  N         23.5740   18.3810    5.0590 N.am   80  PRO80      -0.2729
     72  CA        23.0070   19.6740    4.5320 C.3    80  PRO80       0.1401
     73  C         21.7870   20.1540    5.3320 C.2    80  PRO80       0.2269
     74  O         20.7800   19.4140    5.4580 O.2    80  PRO80      -0.2865
     75  CB        22.5630   19.3360    3.0760 C.3    80  PRO80       0.0296
     76  CG        22.7190   17.8450    2.9030 C.3    80  PRO80       0.0237
     77  CD        23.6630   17.3530    3.9930 C.3    80  PRO80       0.0939
     78  N          7.8760    6.4450    1.6940 N.3   154  PHE154     -0.1227
     79  CA         9.3350    6.3680    1.5850 C.3   154  PHE154      0.1736
     80  C          9.7530    6.1430    0.1290 C.2   154  PHE154      0.2596
     81  O          9.0290    5.4810   -0.6190 O.2   154  PHE154     -0.2718
     82  CB         9.8270    5.1850    2.4440 C.3   154  PHE154      0.0547
     83  CG         9.6950    5.4380    3.9180 C.ar  154  PHE154     -0.0202
     84  CD1       10.6630    6.1520    4.5980 C.ar  154  PHE154     -0.0042
     85  CD2        8.5780    5.0080    4.5960 C.ar  154  PHE154     -0.0042
     86  CE1       10.5140    6.4190    5.9970 C.ar  154  PHE154     -0.0003
     87  CE2        8.4340    5.2830    5.9770 C.ar  154  PHE154     -0.0003
     88  CZ         9.4020    5.9700    6.6730 C.ar  154  PHE154     -0.0000
     89  N         10.9860    6.5580   -0.2420 N.am  155  GLY155     -0.1957
     90  CA        11.3920    6.3780   -1.6300 C.3   155  GLY155      0.1869
     91  C         11.9910    4.9840   -1.8320 C.2   155  GLY155      0.2309
     92  O         12.6290    4.4130   -0.9360 O.2   155  GLY155     -0.2863
     93  N         14.4780    4.5790   -3.6220 N.3   157  LYS157     -0.1231
     94  CA        15.9060    4.8050   -3.7200 C.3   157  LYS157      0.1693
     95  C         16.6830    4.1200   -2.5540 C.2   157  LYS157      0.2592
     96  O         17.7360    3.4690   -2.7140 O.2   157  LYS157     -0.2718
     97  CB        16.2020    6.3090   -3.7240 C.3   157  LYS157      0.0285
     98  CG        17.6410    6.4590   -4.2470 C.3   157  LYS157      0.0035
     99  CD        18.5740    7.4100   -3.5740 C.3   157  LYS157      0.0206
    100  CE        17.9310    8.7080   -3.2280 C.3   157  LYS157      0.1093
    101  NZ        18.5920    9.2240   -2.0060 N.3   157  LYS157     -0.1314
    102  N         16.1830    4.3530   -1.3200 N.am  158  ASP158     -0.1974
    103  CA        16.7270    3.7120   -0.1390 C.3   158  ASP158      0.1709
    104  C         15.8950    2.4550    0.0830 C.2   158  ASP158      0.2293
    105  O         15.0770    2.3680    1.0010 O.2   158  ASP158     -0.2864
    106  CB        16.5920    4.7040    1.0250 C.3   158  ASP158      0.1436
    107  CG        17.4080    5.9450    0.7740 C.2   158  ASP158      0.3671
    108  OD1       18.6350    5.7930    0.8880 O.co2 158  ASP158     -0.2456
    109  OD2       16.8480    6.9980    0.3850 O.co2 158  ASP158     -0.2456
    110  N         16.2240    0.4290    3.3660 N.3   161  GLN161     -0.1245
    111  CA        15.4890    1.1580    4.4310 C.3   161  GLN161      0.1566
    112  C         13.9550    0.8970    4.2810 C.2   161  GLN161      0.2260
    113  O         13.2840    0.6770    5.2810 O.2   161  GLN161     -0.2867
    114  CB        15.7680    2.6310    4.2230 C.3   161  GLN161      0.0367
    115  CG        14.8330    3.5140    5.0370 C.3   161  GLN161      0.0905
    116  CD        15.2810    4.9510    5.0500 C.2   161  GLN161      0.2608
    117  OE1       16.2290    5.3010    5.7680 O.2   161  GLN161     -0.2717
    118  NE2       14.6810    5.7660    4.1990 N.am  161  GLN161     -0.0878
    119  N          7.6320    4.8800   -3.0740 N.3   181  VAL181     -0.1231
    120  CA         7.4940    5.7650   -4.2180 C.3   181  VAL181      0.1678
    121  C          8.7090    5.5930   -5.1320 C.2   181  VAL181      0.2434
    122  O          9.8260    5.5830   -4.6620 O.2   181  VAL181     -0.2733
    123  CB         7.4150    7.1860   -3.7420 C.3   181  VAL181      0.0265
    124  CG1        7.3060    8.2110   -4.9230 C.3   181  VAL181      0.0020
    125  CG2        6.2420    7.3090   -2.7960 C.3   181  VAL181      0.0020
    126  N          8.4890    5.4600   -6.4540 N.am  182  PRO182     -0.2718
    127  CA         9.5990    5.2230   -7.3500 C.3   182  PRO182      0.1535
    128  C         10.6310    6.3490   -7.3160 C.2   182  PRO182      0.2599
    129  O         10.3130    7.4860   -7.1500 O.2   182  PRO182     -0.2715
    130  CB         8.9320    5.1960   -8.7330 C.3   182  PRO182      0.0310
    131  CG         7.5600    4.6560   -8.4440 C.3   182  PRO182      0.0237
    132  CD         7.1970    5.4040   -7.1800 C.3   182  PRO182      0.0939
    133  N         11.8690    5.9600   -7.5070 N.am  183  THR183     -0.1937
    134  CA        13.0260    6.8740   -7.4940 C.3   183  THR183      0.2028
    135  C         12.9480    7.9450   -8.6100 C.2   183  THR183      0.2642
    136  O         12.6830    7.6200   -9.7850 O.2   183  THR183     -0.2714
    137  CB        14.2690    5.9940   -7.6410 C.3   183  THR183      0.1808
    138  OG1       14.3800    5.1110   -6.4710 O.3   183  THR183     -0.2208
    139  CG2       15.5550    6.8210   -7.8040 C.3   183  THR183      0.0379
    140  N         13.1110    9.1870   -8.2290 N.am  184  VAL184     -0.1977
    141  CA        13.0680   10.2950   -9.1550 C.3   184  VAL184      0.1596
    142  C         14.5210   10.5010   -9.6030 C.2   184  VAL184      0.2287
    143  O         15.4290   10.4500   -8.7680 O.2   184  VAL184     -0.2864
    144  CB        12.5210   11.5960   -8.4470 C.3   184  VAL184      0.0276
    145  CG1       12.6550   12.7540   -9.4420 C.3   184  VAL184      0.0022
    146  CG2       11.0810   11.3830   -8.0030 C.3   184  VAL184      0.0022
    147  N         18.0890   11.2670   -7.7740 N.3   192  MET192     -0.1230
    148  CA        18.1990   12.4880   -6.9870 C.3   192  MET192      0.1702
    149  C         18.5880   12.2020   -5.5440 C.2   192  MET192      0.2593
    150  O         18.1280   11.2340   -4.9290 O.2   192  MET192     -0.2718
    151  CB        16.8570   13.2400   -7.0770 C.3   192  MET192      0.0401
    152  CG        16.8640   13.8930   -8.4970 C.3   192  MET192      0.0596
    153  SD        15.6900   15.2230   -8.6470 S.3   192  MET192     -0.1393
    154  CE        16.7790   16.4120   -7.8720 C.3   192  MET192      0.0692
    155  N         19.4680   13.0460   -4.9620 N.am  193  SER193     -0.1938
    156  CA        19.8910   12.7480   -3.5880 C.3   193  SER193      0.2055
    157  C         20.5030   14.0260   -3.0680 C.2   193  SER193      0.2644
    158  O         21.1600   14.7410   -3.8460 O.2   193  SER193     -0.2714
    159  CB        20.9810   11.6550   -3.5800 C.3   193  SER193      0.2130
    160  OG        20.9290   10.9030   -2.3870 O.3   193  SER193     -0.2179
    161  N         20.2480   14.3370   -1.7890 N.am  194  SER194     -0.1935
    162  CA        20.8630   15.5780   -1.2240 C.3   194  SER194      0.2055
    163  C         22.3810   15.4190   -1.3190 C.2   194  SER194      0.2642
    164  O         23.0940   16.4020   -1.4780 O.2   194  SER194     -0.2714
    165  CB        20.4080   15.8070    0.2260 C.3   194  SER194      0.2130
    166  OG        18.9950   16.0140    0.1900 O.3   194  SER194     -0.2179
    167  N         22.8730   14.1820   -1.2930 N.am  195  ARG195     -0.1977
    168  CA        24.3480   14.0260   -1.3510 C.3   195  ARG195      0.1597
    169  C         24.9770   14.3510   -2.7260 C.2   195  ARG195      0.2287
    170  O         26.1960   14.5610   -2.8160 O.2   195  ARG195     -0.2864
    171  CB        24.8110   12.6730   -0.8870 C.3   195  ARG195      0.0334
    172  CG        24.4340   11.5760   -1.8250 C.3   195  ARG195      0.0492
    173  CD        24.6730   10.3010   -1.0820 C.3   195  ARG195      0.2205
    174  NE        23.9560   10.2750    0.1900 N.pl3 195  ARG195     -0.0865
    175  CZ        23.9400    9.2010    0.9810 C.cat 195  ARG195      0.5346
    176  NH1       24.6250    8.1060    0.6430 N.pl3 195  ARG195      0.1354
    177  NH2       23.2490    9.2130    2.1080 N.pl3 195  ARG195      0.1354
@<TRIPOS>BOND
     1   136   135    2
     2   142   141    1
     3   142   143    2
     4   145   144    1
     5   141   144    1
     6   141   140    1
     7   130   131    1
     8   130   127    1
     9   153   152    1
    10   153   154    1
    11   135   140   am
    12   135   134    1
    13   152   151    1
    14   144   146    1
    15   131   132    1
    16   139   137    1
    17   147   148    1
    18   137   134    1
    19   137   138    1
    20   133   134    1
    21   133   128   am
    22   127   128    1
    23   127   126    1
    24   128   129    2
    25   132   126    1
    26   151   148    1
    27   148   149    1
    28   126   121   am
    29    37    38    1
    30   149   155   am
    31   149   150    2
    32   121   122    2
    33   121   120    1
    34    38    39    1
    35   155   156    1
    36   124   123    1
    37    29    30    2
    38    29    28    1
    39    98    97    1
    40    98    99    1
    41   120   123    1
    42   120   119    1
    43    33    32   ar
    44    33    35   ar
    45    31    28    1
    46    31    32    1
    47   158   157    2
    48    39    40    2
    49    39    41   am
    50   123   125    1
    51    97    94    1
    52    94    93    1
    53    94    95    1
    54    28    27    1
    55   156   159    1
    56   156   157    1
    57    32    34   ar
    58   159   160    1
    59    99   100    1
    60    35    36   ar
    61   100   101    1
    62    51    52    1
    63   157   161   am
    64    41    42    1
    65   170   169    2
    66   169   168    1
    67    96    95    2
    68    95   102   am
    69    34    36   ar
    70    43    42    1
    71    43    44    2
    72    52    53    1
    73    52    55    1
    74    91    90    1
    75    91    92    2
    76   172   173    1
    77   172   171    1
    78   161   162    1
    79    58    56    1
    80    42    45    1
    81    90    89    1
    82    53    54    2
    83   164   163    2
    84   168   167    1
    85   168   171    1
    86   102   103    1
    87   163   167   am
    88   163   162    1
    89   162   165    1
    90   173   174    1
    91    56    55    1
    92    56    57    1
    93    45    46    1
    94    81    80    2
    95    47    46   ar
    96    47    49   ar
    97    89    80   am
    98    46    48   ar
    99   103   104    1
   100   103   106    1
   101   104   105    2
   102    49    50   ar
   103    80    79    1
   104   166   165    1
   105   174   175    2
   106   109   107   ar
   107   176   175    1
   108    48    50   ar
   109   107   108   ar
   110   107   106    1
   111   175   177    1
   112    79    78    1
   113    79    82    1
   114    82    83    1
   115    76    75    1
   116    76    77    1
   117    75    72    1
   118    26    25    2
   119   110   111    1
   120    70    69    1
   121    25    24    1
   122    83    85   ar
   123    83    84   ar
   124    77    71    1
   125    14    12    1
   126   118   116   am
   127   114   111    1
   128   114   115    1
   129   112   111    1
   130   112   113    2
   131    72    71    1
   132    72    73    1
   133    85    87   ar
   134    84    86   ar
   135    12    13    1
   136    12     9    1
   137    69    67   ar
   138    69    68   ar
   139     4     3    2
   140   115   116    1
   141   116   117    2
   142    71    61   am
   143    67    65   ar
   144    24    23    1
   145    73    74    2
   146    68    66   ar
   147     9     8    1
   148     9    10    1
   149    23    17   am
   150    87    88   ar
   151    86    88   ar
   152     1     7    1
   153     1     2    1
   154     3     8   am
   155     3     2    1
   156    65    64   ar
   157     7     6    1
   158    22    21    1
   159    15    10   am
   160    15    16    1
   161    61    60    1
   162    61    62    2
   163    17    18    2
   164    17    16    1
   165    66    64   ar
   166    10    11    2
   167    64    63    1
   168    19    16    1
   169    19    20    1
   170     2     5    1
   171    60    59    1
   172    60    63    1
   173     6     5    1
   174    20    21    1
