@<TRIPOS>MOLECULE
tmp/4g67A00.pdb
 196 190 0 0 0
SMALL
GASTEIGER

@<TRIPOS>ATOM
      1  N         26.9870  -11.4100  -26.8320 N.3    42  TYR42      -0.1241
      2  CA        27.2160  -12.3210  -25.6950 C.3    42  TYR42       0.1605
      3  C         28.5860  -13.0150  -25.6640 C.2    42  TYR42       0.2264
      4  O         28.7970  -13.8870  -24.8090 O.2    42  TYR42      -0.2867
      5  CB        26.1040  -13.3570  -25.6290 C.3    42  TYR42       0.0534
      6  CG        24.7390  -12.7610  -25.4610 C.ar   42  TYR42      -0.0201
      7  CD1       24.3890  -12.1270  -24.2680 C.ar   42  TYR42      -0.0009
      8  CD2       23.7920  -12.8220  -26.4810 C.ar   42  TYR42      -0.0009
      9  CE1       23.1410  -11.5480  -24.0990 C.ar   42  TYR42       0.0417
     10  CE2       22.5400  -12.2090  -26.3320 C.ar   42  TYR42       0.0417
     11  CZ        22.2220  -11.5850  -25.1320 C.ar   42  TYR42       0.1957
     12  OH        20.9960  -10.9830  -24.9250 O.3    42  TYR42      -0.2866
     13  N         26.6460   -7.2380  -23.8930 N.3    49  TYR49      -0.1241
     14  CA        26.0840   -7.5420  -22.5990 C.3    49  TYR49       0.1605
     15  C         27.0600   -8.2040  -21.6410 C.2    49  TYR49       0.2264
     16  O         26.6800   -8.4580  -20.5370 O.2    49  TYR49      -0.2867
     17  CB        24.8300   -8.4010  -22.7820 C.3    49  TYR49       0.0534
     18  CG        23.6420   -7.5880  -23.2380 C.ar   49  TYR49      -0.0201
     19  CD1       23.2230   -6.4970  -22.4880 C.ar   49  TYR49      -0.0009
     20  CD2       22.9170   -7.8990  -24.3750 C.ar   49  TYR49      -0.0009
     21  CE1       22.1280   -5.7430  -22.8460 C.ar   49  TYR49       0.0417
     22  CE2       21.8210   -7.1030  -24.7420 C.ar   49  TYR49       0.0417
     23  CZ        21.4450   -6.0470  -23.9550 C.ar   49  TYR49       0.1957
     24  OH        20.3640   -5.2130  -24.2060 O.3    49  TYR49      -0.2866
     25  N         22.3680    1.0650  -19.4820 N.3    56  PHE56      -0.1241
     26  CA        20.9870    1.2640  -18.9750 C.3    56  PHE56       0.1605
     27  C         20.8220    2.6700  -18.4040 C.2    56  PHE56       0.2264
     28  O         21.6590    3.1350  -17.6050 O.2    56  PHE56      -0.2867
     29  CB        20.6450    0.2420  -17.8770 C.3    56  PHE56       0.0534
     30  CG        20.9850   -1.1780  -18.2350 C.ar   56  PHE56      -0.0203
     31  CD1       20.2160   -1.8830  -19.1460 C.ar   56  PHE56      -0.0042
     32  CD2       22.1080   -1.7980  -17.6860 C.ar   56  PHE56      -0.0042
     33  CE1       20.5540   -3.1780  -19.4710 C.ar   56  PHE56      -0.0003
     34  CE2       22.4330   -3.0970  -18.0010 C.ar   56  PHE56      -0.0003
     35  CZ        21.6530   -3.7970  -18.8980 C.ar   56  PHE56      -0.0000
     36  N         19.6840    2.8120  -24.0570 N.3    66  PHE66      -0.1241
     37  CA        18.2260    2.6740  -24.1720 C.3    66  PHE66       0.1605
     38  C         17.6380    2.7480  -22.7750 C.2    66  PHE66       0.2264
     39  O         18.3260    2.4860  -21.7960 O.2    66  PHE66      -0.2867
     40  CB        17.8110    1.3510  -24.8540 C.3    66  PHE66       0.0534
     41  CG        18.4080    0.1260  -24.2060 C.ar   66  PHE66      -0.0203
     42  CD1       17.7300   -0.5550  -23.2010 C.ar   66  PHE66      -0.0042
     43  CD2       19.6870   -0.3080  -24.5540 C.ar   66  PHE66      -0.0042
     44  CE1       18.3100   -1.6660  -22.5700 C.ar   66  PHE66      -0.0003
     45  CE2       20.2730   -1.3840  -23.9060 C.ar   66  PHE66      -0.0003
     46  CZ        19.5790   -2.0700  -22.9130 C.ar   66  PHE66      -0.0000
     47  N         14.5060    1.4140  -20.1700 N.3    68  THR68      -0.1218
     48  CA        13.5900    0.3210  -19.8960 C.3    68  THR68       0.1862
     49  C         12.6910    0.8130  -18.7410 C.2    68  THR68       0.2287
     50  O         12.9960    1.8280  -18.0920 O.2    68  THR68      -0.2866
     51  CB        14.3650   -0.9290  -19.3950 C.3    68  THR68       0.1770
     52  OG1       15.1330   -0.5570  -18.2530 O.3    68  THR68      -0.2211
     53  CG2       15.3070   -1.4610  -20.4820 C.3    68  THR68       0.0375
     54  N         12.1240   -0.2520  -15.6550 N.3    70  PRO70      -0.2102
     55  CA        12.7740   -0.0700  -14.3460 C.3    70  PRO70       0.1504
     56  C         13.6280    1.1860  -14.2570 C.2    70  PRO70       0.2575
     57  O         13.7040    1.7920  -13.1920 O.2    70  PRO70      -0.2718
     58  CB        13.6420   -1.3360  -14.2070 C.3    70  PRO70       0.0282
     59  CG        12.9130   -2.3540  -15.0140 C.3    70  PRO70       0.0208
     60  CD        12.4840   -1.5610  -16.2380 C.3    70  PRO70       0.0893
     61  N         14.2500    1.5840  -15.3530 N.am   71  GLU71      -0.1980
     62  CA        15.0600    2.8060  -15.3740 C.3    71  GLU71       0.1602
     63  C         14.2120    4.0510  -15.4160 C.2    71  GLU71       0.2287
     64  O         14.5810    5.1120  -14.9010 O.2    71  GLU71      -0.2864
     65  CB        16.0400    2.8040  -16.5330 C.3    71  GLU71       0.0415
     66  CG        17.0890    1.7130  -16.4660 C.3    71  GLU71       0.1163
     67  CD        17.9150    1.7200  -15.1890 C.2    71  GLU71       0.3649
     68  OE1       18.4460    2.8070  -14.8080 O.co2  71  GLU71      -0.2457
     69  OE2       18.0490    0.6350  -14.5760 O.co2  71  GLU71      -0.2457
     70  N         14.7620  -13.3430  -10.8960 N.3    98  GLU98      -0.1231
     71  CA        14.8070  -12.4250  -12.0300 C.3    98  GLU98       0.1699
     72  C         15.9680  -12.7680  -12.9520 C.2    98  GLU98       0.2592
     73  O         17.1060  -12.9560  -12.4970 O.2    98  GLU98      -0.2718
     74  CB        14.9500  -10.9850  -11.5330 C.3    98  GLU98       0.0402
     75  CG        14.8950   -9.9940  -12.6920 C.3    98  GLU98       0.1161
     76  CD        15.1160   -8.5470  -12.3450 C.2    98  GLU98       0.3649
     77  OE1       15.3100   -8.2140  -11.1540 O.co2  98  GLU98      -0.2457
     78  OE2       15.0770   -7.7440  -13.2920 O.co2  98  GLU98      -0.2457
     79  N         15.6530  -12.9000  -14.2450 N.am   99  PHE99      -0.1962
     80  CA        16.6370  -12.9950  -15.3040 C.3    99  PHE99       0.1771
     81  C         16.9710  -11.6160  -15.8870 C.2    99  PHE99       0.2620
     82  O         16.0780  -10.8110  -16.1070 O.2    99  PHE99      -0.2715
     83  CB        16.0910  -13.8800  -16.4200 C.3    99  PHE99       0.0574
     84  CG        15.9920  -15.3280  -16.0370 C.ar   99  PHE99      -0.0200
     85  CD1       17.0240  -16.2160  -16.3620 C.ar   99  PHE99      -0.0042
     86  CD2       14.8910  -15.8100  -15.2950 C.ar   99  PHE99      -0.0042
     87  CE1       16.9440  -17.5340  -15.9690 C.ar   99  PHE99      -0.0003
     88  CE2       14.8240  -17.1440  -14.9230 C.ar   99  PHE99      -0.0003
     89  CZ        15.8290  -17.9980  -15.2850 C.ar   99  PHE99      -0.0000
     90  N         18.2340  -11.3600  -16.1850 N.am  100  GLY100     -0.1940
     91  CA        18.6150  -10.1020  -16.8300 C.3   100  GLY100      0.2014
     92  C         18.2830   -8.8880  -15.9660 C.2   100  GLY100      0.2639
     93  O         17.5220   -7.9970  -16.3560 O.2   100  GLY100     -0.2714
     94  N         18.8870   -8.8200  -14.7820 N.am  101  ALA101     -0.1963
     95  CA        18.4590   -7.8470  -13.7680 C.3   101  ALA101      0.1728
     96  C         18.9280   -6.4140  -14.0050 C.2   101  ALA101      0.2617
     97  O         18.5480   -5.5240  -13.2380 O.2   101  ALA101     -0.2715
     98  CB        18.8540   -8.3100  -12.3640 C.3   101  ALA101      0.0334
     99  N         19.7200   -6.1600  -15.0450 N.am  102  GLY102     -0.1940
    100  CA        20.1310   -4.7870  -15.3760 C.3   102  GLY102      0.2014
    101  C         20.8690   -4.1010  -14.2290 C.2   102  GLY102      0.2639
    102  O         21.7890   -4.6540  -13.6810 O.2   102  GLY102     -0.2714
    103  N         20.4550   -2.9040  -13.8420 N.am  103  THR103     -0.1950
    104  CA        21.1050   -2.1840  -12.7330 C.3   103  THR103      0.1897
    105  C         20.7160   -2.6390  -11.3500 C.2   103  THR103      0.2313
    106  O         21.2740   -2.1520  -10.3730 O.2   103  THR103     -0.2863
    107  CB        20.7770   -0.6940  -12.7770 C.3   103  THR103      0.1794
    108  OG1       19.3690   -0.5410  -12.6010 O.3   103  THR103     -0.2208
    109  CG2       21.2430   -0.0890  -14.1310 C.3   103  THR103      0.0378
    110  N         14.8400   -2.9810  -10.6850 N.3   106  LEU106     -0.1245
    111  CA        13.6190   -3.7780  -10.6050 C.3   106  LEU106      0.1561
    112  C         13.6190   -4.6410   -9.3320 C.2   106  LEU106      0.2260
    113  O         12.5990   -4.7190   -8.6440 O.2   106  LEU106     -0.2867
    114  CB        13.4140   -4.6550  -11.8620 C.3   106  LEU106      0.0270
    115  CG        12.0790   -5.4290  -11.8720 C.3   106  LEU106      0.0019
    116  CD1       10.9190   -4.4460  -11.8560 C.3   106  LEU106      0.0001
    117  CD2       11.9620   -6.3070  -13.1240 C.3   106  LEU106      0.0001
    118  N         19.6680  -13.9160  -11.9890 N.3   127  VAL127     -0.1231
    119  CA        20.2550  -14.7620  -12.9940 C.3   127  VAL127      0.1692
    120  C         20.7140  -13.9700  -14.2120 C.2   127  VAL127      0.2592
    121  O         19.9060  -13.5380  -15.0270 O.2   127  VAL127     -0.2718
    122  CB        19.2980  -15.8860  -13.3970 C.3   127  VAL127      0.0266
    123  CG1       19.9660  -16.7920  -14.4150 C.3   127  VAL127      0.0020
    124  CG2       18.8800  -16.6580  -12.1550 C.3   127  VAL127      0.0020
    125  N         22.0180  -13.7170  -14.2830 N.am  128  ASP128     -0.1960
    126  CA        22.6120  -13.0880  -15.4580 C.3   128  ASP128      0.1840
    127  C         23.6400  -14.0450  -16.0980 C.2   128  ASP128      0.2621
    128  O         24.1450  -14.9810  -15.4550 O.2   128  ASP128     -0.2715
    129  CB        23.2710  -11.7570  -15.0480 C.3   128  ASP128      0.1450
    130  CG        22.2680  -10.6110  -15.0220 C.2   128  ASP128      0.3671
    131  OD1       22.0720   -9.9610  -14.0050 O.co2 128  ASP128     -0.2456
    132  OD2       21.7030  -10.3290  -16.0900 O.co2 128  ASP128     -0.2456
    133  N         23.9340  -13.8290  -17.3720 N.am  129  LEU129     -0.1977
    134  CA        24.7930  -14.7760  -18.0740 C.3   129  LEU129      0.1596
    135  C         26.2260  -14.7390  -17.6110 C.2   129  LEU129      0.2287
    136  O         26.9460  -15.7380  -17.7070 O.2   129  LEU129     -0.2864
    137  CB        24.6950  -14.5070  -19.5740 C.3   129  LEU129      0.0297
    138  CG        23.3510  -14.7950  -20.1710 C.3   129  LEU129      0.0022
    139  CD1       23.2710  -14.1550  -21.5490 C.3   129  LEU129      0.0001
    140  CD2       23.0780  -16.3020  -20.2650 C.3   129  LEU129      0.0001
    141  N         27.5490   -7.1270  -13.9290 N.3   133  LEU133     -0.1245
    142  CA        26.6010   -6.1920  -13.3440 C.3   133  LEU133      0.1561
    143  C         26.4240   -6.4090  -11.8460 C.2   133  LEU133      0.2260
    144  O         25.7100   -5.6330  -11.2140 O.2   133  LEU133     -0.2867
    145  CB        25.2250   -6.2770  -13.9930 C.3   133  LEU133      0.0270
    146  CG        25.1590   -5.9810  -15.4910 C.3   133  LEU133      0.0019
    147  CD1       23.8040   -6.4420  -16.0460 C.3   133  LEU133      0.0001
    148  CD2       25.4030   -4.5090  -15.7390 C.3   133  LEU133      0.0001
    149  N         12.0830   -8.7340  -17.5850 N.3   169  ASN169     -0.1225
    150  CA        11.6610   -7.5420  -18.3260 C.3   169  ASN169      0.1785
    151  C         12.6320   -7.1970  -19.4480 C.2   169  ASN169      0.2597
    152  O         13.8100   -6.9510  -19.1530 O.2   169  ASN169     -0.2718
    153  CB        11.5640   -6.3630  -17.3400 C.3   169  ASN169      0.1169
    154  CG        11.0360   -5.1270  -18.0090 C.2   169  ASN169      0.2627
    155  OD1        9.8610   -5.0780  -18.3490 O.2   169  ASN169     -0.2716
    156  ND2       11.9110   -4.2130  -18.3540 N.am  169  ASN169     -0.0877
    157  N         12.1680   -7.2250  -20.7030 N.am  170  GLU170     -0.1965
    158  CA        13.0010   -6.9600  -21.8990 C.3   170  GLU170      0.1733
    159  C         14.2210   -7.9000  -21.9770 C.2   170  GLU170      0.2616
    160  O         15.3410   -7.4820  -22.2910 O.2   170  GLU170     -0.2715
    161  CB        13.4470   -5.4810  -21.9840 C.3   170  GLU170      0.0429
    162  CG        12.3240   -4.4930  -22.3040 C.3   170  GLU170      0.1163
    163  CD        12.8370   -3.1480  -22.8410 C.2   170  GLU170      0.3649
    164  OE1       13.9010   -3.1200  -23.4960 O.co2 170  GLU170     -0.2457
    165  OE2       12.2040   -2.1120  -22.5550 O.co2 170  GLU170     -0.2457
    166  N         13.9810   -9.1730  -21.6610 N.am  171  VAL171     -0.1977
    167  CA        14.9900  -10.2310  -21.7270 C.3   171  VAL171      0.1596
    168  C         14.7570  -11.0620  -23.0000 C.2   171  VAL171      0.2287
    169  O         15.6640  -11.2820  -23.8030 O.2   171  VAL171     -0.2864
    170  CB        14.9280  -11.0870  -20.4390 C.3   171  VAL171      0.0276
    171  CG1       15.7770  -12.3310  -20.5380 C.3   171  VAL171      0.0022
    172  CG2       15.3890  -10.2540  -19.2410 C.3   171  VAL171      0.0022
    173  N         16.0990   -9.7720  -26.3810 N.3   174  ALA174     -0.1231
    174  CA        17.5420   -9.5890  -26.4780 C.3   174  ALA174      0.1694
    175  C         18.1850  -10.8740  -26.9500 C.2   174  ALA174      0.2591
    176  O         19.4050  -10.9230  -27.1780 O.2   174  ALA174     -0.2718
    177  CB        18.1070   -9.1260  -25.1240 C.3   174  ALA174      0.0304
    178  N         17.3850  -11.9140  -27.1520 N.am  175  MET175     -0.1979
    179  CA        17.9460  -13.2170  -27.4980 C.3   175  MET175      0.1605
    180  C         18.2260  -13.3510  -28.9490 C.2   175  MET175      0.2287
    181  O         17.5330  -12.7570  -29.7650 O.2   175  MET175     -0.2864
    182  CB        17.0040  -14.3050  -27.0330 C.3   175  MET175      0.0413
    183  CG        16.8090  -14.0680  -25.5280 C.3   175  MET175      0.0598
    184  SD        16.3310  -15.4900  -24.6000 S.3   175  MET175     -0.1393
    185  CE        16.3770  -14.8420  -22.9270 C.3   175  MET175      0.0692
    186  N         14.7570  -20.7950  -24.1850 N.3   236  PHE236     -0.1241
    187  CA        14.8320  -20.1720  -22.8820 C.3   236  PHE236      0.1605
    188  C         13.5270  -20.3170  -22.0860 C.2   236  PHE236      0.2264
    189  O         13.5410  -20.6810  -20.8960 O.2   236  PHE236     -0.2867
    190  CB        15.1860  -18.7040  -23.0520 C.3   236  PHE236      0.0534
    191  CG        15.1080  -17.9000  -21.7780 C.ar  236  PHE236     -0.0203
    192  CD1       16.1620  -17.8900  -20.8910 C.ar  236  PHE236     -0.0042
    193  CD2       14.0010  -17.1510  -21.5000 C.ar  236  PHE236     -0.0042
    194  CE1       16.1130  -17.1330  -19.7450 C.ar  236  PHE236     -0.0003
    195  CE2       13.9270  -16.3900  -20.3320 C.ar  236  PHE236     -0.0003
    196  CZ        14.9940  -16.3950  -19.4610 C.ar  236  PHE236     -0.0000
@<TRIPOS>BOND
     1   181   180    2
     2   180   179    1
     3   179   178    1
     4   179   182    1
     5   176   175    2
     6   178   175   am
     7   182   183    1
     8   175   174    1
     9     1     2    1
    10     8    10   ar
    11     8     6   ar
    12   174   173    1
    13   174   177    1
    14    10    11   ar
    15     2     3    1
    16     2     5    1
    17     3     4    2
    18     5     6    1
    19   183   184    1
    20     6     7   ar
    21    11    12    1
    22    11     9   ar
    23    40    41    1
    24    40    37    1
    25    22    20   ar
    26    22    23   ar
    27   184   185    1
    28    43    41   ar
    29    43    45   ar
    30    20    18   ar
    31     7     9   ar
    32    24    23    1
    33    41    42   ar
    34   186   187    1
    35    37    36    1
    36    37    38    1
    37    23    21   ar
    38    45    46   ar
    39    13    14    1
    40   169   168    2
    41   164   163   ar
    42    18    17    1
    43    18    19   ar
    44    42    44   ar
    45   190   187    1
    46   190   191    1
    47   168   167    1
    48    46    44   ar
    49   187   188    1
    50    21    19   ar
    51   163   165   ar
    52   163   162    1
    53    17    14    1
    54    38    39    2
    55    14    15    1
    56   162   161    1
    57   160   159    2
    58   188   189    2
    59   161   158    1
    60   159   158    1
    61   159   166   am
    62   158   157    1
    63   191   193   ar
    64   191   192   ar
    65   167   166    1
    66   167   170    1
    67    15    16    2
    68   139   138    1
    69   193   195   ar
    70   192   194   ar
    71   157   151   am
    72   171   170    1
    73    53    51    1
    74   170   172    1
    75   195   196   ar
    76   140   138    1
    77   138   137    1
    78    47    48    1
    79    48    51    1
    80    48    49    1
    81   194   196   ar
    82   137   134    1
    83    25    26    1
    84    33    31   ar
    85    33    35   ar
    86   151   152    2
    87   151   150    1
    88    51    52    1
    89    31    30   ar
    90    26    27    1
    91    26    29    1
    92    35    34   ar
    93    49    50    2
    94    27    28    2
    95   156   154   am
    96   155   154    2
    97   150   149    1
    98   150   153    1
    99    30    29    1
   100    30    32   ar
   101   134   135    1
   102   134   133    1
   103   154   153    1
   104    34    32   ar
   105   136   135    2
   106   133   127   am
   107    91    90    1
   108    91    92    1
   109    65    66    1
   110    65    62    1
   111    66    67    1
   112    83    84    1
   113    83    80    1
   114    85    84   ar
   115    85    87   ar
   116    93    92    2
   117    60    54    1
   118    60    59    1
   119    90    81   am
   120    82    81    2
   121   127   126    1
   122   127   128    2
   123   132   130   ar
   124   147   146    1
   125    84    86   ar
   126    87    89   ar
   127    92    94   am
   128    81    80    1
   129   148   146    1
   130    54    55    1
   131   146   145    1
   132   126   129    1
   133   126   125    1
   134    63    62    1
   135    63    64    2
   136   100    99    1
   137   100   101    1
   138    62    61    1
   139    61    56   am
   140    80    79    1
   141    86    88   ar
   142    89    88   ar
   143    67    68   ar
   144    67    69   ar
   145   129   130    1
   146    99    96   am
   147   121   120    2
   148   130   131   ar
   149    59    58    1
   150    94    95    1
   151   123   122    1
   152    55    56    1
   153    55    58    1
   154   125   120   am
   155    56    57    2
   156    79    72   am
   157   101   103   am
   158   101   102    2
   159   120   119    1
   160   109   107    1
   161    96    95    1
   162    96    97    2
   163   145   142    1
   164   141   142    1
   165   103   104    1
   166    95    98    1
   167   122   119    1
   168   122   124    1
   169   142   143    1
   170    78    76   ar
   171   117   115    1
   172   119   118    1
   173    72    73    2
   174    72    71    1
   175   107   104    1
   176   107   108    1
   177   104   105    1
   178    75    76    1
   179    75    74    1
   180    76    77   ar
   181    71    74    1
   182    71    70    1
   183   115   114    1
   184   115   116    1
   185   114   111    1
   186   143   144    2
   187   105   106    2
   188   110   111    1
   189   111   112    1
   190   112   113    2
