@<TRIPOS>MOLECULE
tmp/4g68B00.pdb
 207 199 0 0 0
SMALL
GASTEIGER

@<TRIPOS>ATOM
      1  N         19.8340   -9.9910   63.8520 N.3     8  LEU8       -0.1231
      2  CA        18.7660  -10.8270   64.3040 C.3     8  LEU8        0.1693
      3  C         18.9900  -12.2800   64.0800 C.2     8  LEU8        0.2592
      4  O         18.0340  -13.0920   64.1260 O.2     8  LEU8       -0.2718
      5  CB        17.4390  -10.2990   63.6550 C.3     8  LEU8        0.0284
      6  CG        17.3630  -10.2610   62.1260 C.3     8  LEU8        0.0019
      7  CD1       17.7570  -11.5850   61.4480 C.3     8  LEU8        0.0001
      8  CD2       15.8990  -10.1000   61.7330 C.3     8  LEU8        0.0001
      9  N         20.2500  -12.6830   63.7770 N.am    9  PHE9       -0.1962
     10  CA        20.5140  -14.0930   63.4780 C.3     9  PHE9        0.1771
     11  C         20.5720  -14.9060   64.7600 C.2     9  PHE9        0.2620
     12  O         21.6450  -15.2390   65.2590 O.2     9  PHE9       -0.2715
     13  CB        21.7740  -14.2680   62.6020 C.3     9  PHE9        0.0574
     14  CG        21.5570  -13.7930   61.1780 C.ar    9  PHE9       -0.0200
     15  CD1       20.7740  -14.5110   60.2980 C.ar    9  PHE9       -0.0042
     16  CD2       22.0040  -12.4970   60.7860 C.ar    9  PHE9       -0.0042
     17  CE1       20.5120  -14.0360   59.0080 C.ar    9  PHE9       -0.0003
     18  CE2       21.6960  -12.0110   59.5030 C.ar    9  PHE9       -0.0003
     19  CZ        21.0230  -12.8030   58.6170 C.ar    9  PHE9       -0.0000
     20  N         19.3840  -15.2710   65.2610 N.am   10  THR10      -0.1937
     21  CA        19.2370  -15.9810   66.5370 C.3    10  THR10       0.2028
     22  C         19.2950  -17.5260   66.4550 C.2    10  THR10       0.2643
     23  O         19.7120  -18.1780   67.4090 O.2    10  THR10      -0.2714
     24  CB        17.9110  -15.5960   67.2190 C.3    10  THR10       0.1808
     25  OG1       16.8540  -15.6280   66.2570 O.3    10  THR10      -0.2208
     26  CG2       17.9910  -14.2150   67.9160 C.3    10  THR10       0.0379
     27  N         18.8520  -18.1050   65.3430 N.am   11  GLY11      -0.1939
     28  CA        18.8420  -19.5390   65.1830 C.3    11  GLY11       0.2014
     29  C         20.1300  -20.1520   64.6800 C.2    11  GLY11       0.2638
     30  O         21.0030  -19.4740   64.1850 O.2    11  GLY11      -0.2714
     31  N         20.2480  -21.4580   64.8270 N.am   12  GLU12      -0.1977
     32  CA        21.4110  -22.1710   64.3510 C.3    12  GLU12       0.1602
     33  C         21.1930  -22.7230   62.9350 C.2    12  GLU12       0.2287
     34  O         20.0870  -23.0640   62.5840 O.2    12  GLU12      -0.2864
     35  CB        21.7120  -23.3450   65.3500 C.3    12  GLU12       0.0415
     36  CG        22.0550  -22.8130   66.7290 C.3    12  GLU12       0.1163
     37  CD        23.3990  -22.0940   66.7780 C.2    12  GLU12       0.3649
     38  OE1       24.1570  -22.0240   65.7360 O.co2  12  GLU12      -0.2457
     39  OE2       23.6970  -21.5500   67.8590 O.co2  12  GLU12      -0.2457
     40  N         23.1110  -20.1890   61.8930 N.3    14  ALA14      -0.1245
     41  CA        23.5100  -18.7990   61.6250 C.3    14  ALA14       0.1562
     42  C         24.1600  -18.1300   62.8460 C.2    14  ALA14       0.2260
     43  O         25.1520  -17.4200   62.7170 O.2    14  ALA14      -0.2867
     44  CB        22.3430  -17.9660   61.1420 C.3    14  ALA14       0.0290
     45  N         14.0690  -11.6820   65.5310 N.3    41  ASN41      -0.1240
     46  CA        13.3940  -10.8590   64.4910 C.3    41  ASN41       0.1653
     47  C         12.3220   -9.8590   64.9690 C.2    41  ASN41       0.2266
     48  O         12.4770   -8.6720   64.8230 O.2    41  ASN41      -0.2867
     49  CB        12.8350  -11.8750   63.4410 C.3    41  ASN41       0.1155
     50  CG        12.0640  -11.2380   62.3200 C.2    41  ASN41       0.2627
     51  OD1       12.4700  -10.2410   61.7790 O.2    41  ASN41      -0.2716
     52  ND2       10.9570  -11.8510   61.9300 N.am   41  ASN41      -0.0877
     53  N         12.8510   -5.5440   65.5730 N.3    45  LYS45      -0.1245
     54  CA        12.1670   -4.3850   64.9780 C.3    45  LYS45       0.1561
     55  C         11.8920   -3.3320   66.0210 C.2    45  LYS45       0.2260
     56  O         12.1800   -2.1020   65.8340 O.2    45  LYS45      -0.2867
     57  CB        10.8100   -4.8230   64.4200 C.3    45  LYS45       0.0271
     58  CG        11.0360   -5.7650   63.2530 C.3    45  LYS45       0.0035
     59  CD         9.6770   -6.3920   62.9000 C.3    45  LYS45       0.0206
     60  CE         9.9850   -7.4820   61.9120 C.3    45  LYS45       0.1093
     61  NZ         8.7160   -8.2200   61.4820 N.3    45  LYS45      -0.1314
     62  N         21.7020   -4.1900   61.3730 N.3    62  GLN62      -0.1245
     63  CA        20.9910   -4.8740   60.3110 C.3    62  GLN62       0.1566
     64  C         19.6200   -4.1680   60.1110 C.2    62  GLN62       0.2260
     65  O         19.0220   -3.6590   61.0790 O.2    62  GLN62      -0.2867
     66  CB        20.7390   -6.3100   60.7010 C.3    62  GLN62       0.0367
     67  CG        20.0790   -7.2040   59.6330 C.3    62  GLN62       0.0905
     68  CD        19.8850   -8.6480   60.0730 C.2    62  GLN62       0.2608
     69  OE1       20.3650   -9.0640   61.1130 O.2    62  GLN62      -0.2717
     70  NE2       19.1880   -9.4380   59.2320 N.am   62  GLN62      -0.0878
     71  N         15.9780   -3.6390   57.1780 N.3    64  TRP64      -0.1241
     72  CA        15.3270   -3.9290   55.8960 C.3    64  TRP64       0.1605
     73  C         15.2690   -2.6410   55.1080 C.2    64  TRP64       0.2264
     74  O         14.8090   -1.6190   55.6260 O.2    64  TRP64      -0.2867
     75  CB        13.8730   -4.4310   56.1350 C.3    64  TRP64       0.0550
     76  CG        13.8580   -5.7830   56.8340 C.ar   64  TRP64       0.0003
     77  CD1       13.9800   -7.0370   56.2590 C.ar   64  TRP64       0.0946
     78  CD2       13.8250   -6.0210   58.2810 C.ar   64  TRP64       0.0152
     79  NE1       14.0200   -8.0010   57.2210 N.ar   64  TRP64      -0.2442
     80  CE2       13.9170   -7.4450   58.4490 C.ar   64  TRP64       0.0810
     81  CE3       13.7710   -5.1790   59.4160 C.ar   64  TRP64       0.0012
     82  CZ2       13.9050   -8.0290   59.6810 C.ar   64  TRP64       0.0191
     83  CZ3       13.7410   -5.7650   60.6600 C.ar   64  TRP64       0.0001
     84  CH2       13.7740   -7.1730   60.7750 C.ar   64  TRP64       0.0015
     85  N         23.1770   -6.7830   51.7870 N.3   112  PHE112     -0.1227
     86  CA        23.7940   -8.1030   51.8990 C.3   112  PHE112      0.1736
     87  C         22.9000   -9.2500   51.4480 C.2   112  PHE112      0.2595
     88  O         23.4220  -10.3140   51.0760 O.2   112  PHE112     -0.2718
     89  CB        24.3560   -8.3150   53.3100 C.3   112  PHE112      0.0547
     90  CG        23.2910   -8.6190   54.3470 C.ar  112  PHE112     -0.0202
     91  CD1       22.9330   -9.9270   54.6350 C.ar  112  PHE112     -0.0042
     92  CD2       22.7000   -7.5650   55.0910 C.ar  112  PHE112     -0.0042
     93  CE1       21.9240  -10.1740   55.6200 C.ar  112  PHE112     -0.0003
     94  CE2       21.7490   -7.8370   56.1140 C.ar  112  PHE112     -0.0003
     95  CZ        21.3550   -9.1350   56.3280 C.ar  112  PHE112     -0.0000
     96  N         21.5710   -9.0760   51.3930 N.am  113  ASP113     -0.1974
     97  CA        20.7060  -10.1740   50.9180 C.3   113  ASP113      0.1709
     98  C         19.4260   -9.7980   50.2230 C.2   113  ASP113      0.2293
     99  O         18.9570   -8.6540   50.3280 O.2   113  ASP113     -0.2864
    100  CB        20.5460  -11.3690   51.9160 C.3   113  ASP113      0.1436
    101  CG        19.6030  -11.1220   53.0670 C.2   113  ASP113      0.3671
    102  OD1       18.8250  -10.1630   53.0840 O.co2 113  ASP113     -0.2456
    103  OD2       19.6590  -11.9500   54.0170 O.co2 113  ASP113     -0.2456
    104  N         15.4110  -11.1750   49.1280 N.3   115  GLN115     -0.1245
    105  CA        14.3510  -12.0720   49.5320 C.3   115  GLN115      0.1566
    106  C         13.5550  -12.5050   48.3110 C.2   115  GLN115      0.2260
    107  O         13.5520  -11.8210   47.2720 O.2   115  GLN115     -0.2867
    108  CB        13.3710  -11.3410   50.5310 C.3   115  GLN115      0.0367
    109  CG        14.0930  -10.9840   51.8280 C.3   115  GLN115      0.0905
    110  CD        13.1240  -10.4480   52.8820 C.2   115  GLN115      0.2608
    111  OE1       11.9370  -10.1860   52.5870 O.2   115  GLN115     -0.2717
    112  NE2       13.6450  -10.2350   54.0990 N.am  115  GLN115     -0.0878
    113  N          3.2540  -10.8700   60.3110 N.3   163  TRP163     -0.1241
    114  CA         3.9010  -10.7430   59.0080 C.3   163  TRP163      0.1605
    115  C          3.9550  -12.0770   58.1990 C.2   163  TRP163      0.2264
    116  O          3.8120  -12.0520   57.0110 O.2   163  TRP163     -0.2867
    117  CB         5.2680  -10.0100   59.1550 C.3   163  TRP163      0.0550
    118  CG         6.2450  -10.8650   59.8610 C.ar  163  TRP163      0.0003
    119  CD1        6.5280  -10.8760   61.2540 C.ar  163  TRP163      0.0946
    120  CD2        7.0620  -11.9000   59.2670 C.ar  163  TRP163      0.0152
    121  NE1        7.4900  -11.8170   61.5210 N.ar  163  TRP163     -0.2442
    122  CE2        7.7930  -12.5160   60.3580 C.ar  163  TRP163      0.0810
    123  CE3        7.1820  -12.4450   57.9630 C.ar  163  TRP163      0.0012
    124  CZ2        8.7300  -13.5560   60.1350 C.ar  163  TRP163      0.0191
    125  CZ3        8.1120  -13.5490   57.7430 C.ar  163  TRP163      0.0001
    126  CH2        8.8730  -14.0760   58.8250 C.ar  163  TRP163      0.0015
    127  N          2.4930  -12.3550   54.1350 N.3   166  TRP166     -0.1241
    128  CA         3.0880  -12.8100   52.8640 C.3   166  TRP166      0.1605
    129  C          2.1270  -13.5460   51.9820 C.2   166  TRP166      0.2264
    130  O          2.1610  -13.3710   50.7610 O.2   166  TRP166     -0.2867
    131  CB         4.2890  -13.7400   53.1070 C.3   166  TRP166      0.0550
    132  CG         5.5420  -12.9160   53.3940 C.ar  166  TRP166      0.0003
    133  CD1        5.7620  -11.9680   54.4150 C.ar  166  TRP166      0.0946
    134  CD2        6.7710  -12.9750   52.6330 C.ar  166  TRP166      0.0152
    135  NE1        7.0430  -11.4770   54.2820 N.ar  166  TRP166     -0.2442
    136  CE2        7.6540  -12.0330   53.1970 C.ar  166  TRP166      0.0810
    137  CE3        7.1830  -13.7080   51.5040 C.ar  166  TRP166      0.0012
    138  CZ2        8.9530  -11.8760   52.7090 C.ar  166  TRP166      0.0191
    139  CZ3        8.4470  -13.5200   50.9790 C.ar  166  TRP166      0.0001
    140  CH2        9.3220  -12.6110   51.5620 C.ar  166  TRP166      0.0015
    141  N          6.5480  -17.7960   63.7100 N.3   220  ARG220     -0.1231
    142  CA         7.1860  -18.3220   62.5180 C.3   220  ARG220      0.1694
    143  C          8.0730  -19.4580   62.9660 C.2   220  ARG220      0.2592
    144  O          8.1370  -20.4590   62.2790 O.2   220  ARG220     -0.2718
    145  CB         8.0720  -17.2130   61.8750 C.3   220  ARG220      0.0321
    146  CG         8.8050  -17.5760   60.5670 C.3   220  ARG220      0.0489
    147  CD        10.2550  -18.1130   60.8030 C.3   220  ARG220      0.2205
    148  NE        11.0180  -17.1700   61.5690 N.pl3 220  ARG220     -0.0865
    149  CZ        11.8560  -16.2560   61.0570 C.cat 220  ARG220      0.5346
    150  NH1       12.0440  -16.1630   59.7530 N.pl3 220  ARG220      0.1354
    151  NH2       12.5070  -15.4350   61.8990 N.pl3 220  ARG220      0.1354
    152  N          8.8430  -19.2500   64.0450 N.am  221  ASP221     -0.1974
    153  CA         9.8220  -20.3080   64.4770 C.3   221  ASP221      0.1709
    154  C          9.0890  -21.6160   64.8830 C.2   221  ASP221      0.2293
    155  O          9.5270  -22.7500   64.6070 O.2   221  ASP221     -0.2864
    156  CB        10.7130  -19.8050   65.6160 C.3   221  ASP221      0.1436
    157  CG        11.7190  -18.7390   65.1720 C.2   221  ASP221      0.3671
    158  OD1       12.0190  -18.5800   63.9640 O.co2 221  ASP221     -0.2456
    159  OD2       12.2760  -18.1240   66.0800 O.co2 221  ASP221     -0.2456
    160  N         14.1820  -17.0830   53.2480 N.3   239  PHE239     -0.1241
    161  CA        15.1030  -17.0630   54.4180 C.3   239  PHE239      0.1605
    162  C         14.7940  -18.2140   55.3830 C.2   239  PHE239      0.2264
    163  O         15.6100  -18.5480   56.2390 O.2   239  PHE239     -0.2867
    164  CB        15.0680  -15.7020   55.1690 C.3   239  PHE239      0.0534
    165  CG        13.7060  -15.0900   55.2440 C.ar  239  PHE239     -0.0203
    166  CD1       12.7300  -15.6040   56.1290 C.ar  239  PHE239     -0.0042
    167  CD2       13.3720  -14.0080   54.4080 C.ar  239  PHE239     -0.0042
    168  CE1       11.4650  -15.0450   56.2150 C.ar  239  PHE239     -0.0003
    169  CE2       12.1000  -13.4600   54.4770 C.ar  239  PHE239     -0.0003
    170  CZ        11.1190  -13.9860   55.3850 C.ar  239  PHE239     -0.0000
    171  N         16.7130  -22.3420   55.4960 N.3   242  ALA242     -0.1245
    172  CA        17.6760  -22.8750   56.4860 C.3   242  ALA242      0.1562
    173  C         17.0370  -23.6950   57.5670 C.2   242  ALA242      0.2260
    174  O         17.6780  -24.6700   58.0390 O.2   242  ALA242     -0.2867
    175  CB        18.4100  -21.6930   57.1470 C.3   242  ALA242      0.0290
    176  N         17.7160   -6.9440   52.4230 N.3   280  GLY280     -0.1225
    177  CA        18.5710   -7.1260   53.6640 C.3   280  GLY280      0.1811
    178  C         19.7680   -6.1680   53.5330 C.2   280  GLY280      0.2280
    179  O         20.4860   -6.2020   52.5140 O.2   280  GLY280     -0.2866
    180  N         20.0140  -19.2070   54.5950 N.3   313  THR313     -0.1218
    181  CA        19.2770  -18.2380   55.3930 C.3   313  THR313      0.1862
    182  C         18.9510  -16.9870   54.5850 C.2   313  THR313      0.2287
    183  O         18.2350  -16.0930   55.0560 O.2   313  THR313     -0.2866
    184  CB        20.0570  -17.7620   56.6300 C.3   313  THR313      0.1770
    185  OG1       21.4280  -17.5370   56.2900 O.3   313  THR313     -0.2211
    186  CG2       19.9680  -18.7990   57.8080 C.3   313  THR313      0.0375
    187  N          7.7170   -7.3840   50.5190 N.3   349  ALA349     -0.1245
    188  CA         6.5660   -7.6130   51.3860 C.3   349  ALA349      0.1562
    189  C          6.0540   -6.2930   51.8820 C.2   349  ALA349      0.2260
    190  O          6.8040   -5.3910   52.1240 O.2   349  ALA349     -0.2867
    191  CB         7.0350   -8.4960   52.5090 C.3   349  ALA349      0.0290
    192  N          4.9820   -5.0150   54.5570 N.3   351  ASP351     -0.1225
    193  CA         5.4250   -4.4120   55.7980 C.3   351  ASP351      0.1805
    194  C          6.8630   -3.8850   55.7690 C.2   351  ASP351      0.2597
    195  O          7.2840   -3.3360   56.7680 O.2   351  ASP351     -0.2718
    196  CB         5.2020   -5.3400   57.0230 C.3   351  ASP351      0.1424
    197  CG         6.1220   -6.5620   57.0040 C.2   351  ASP351      0.3668
    198  OD1        6.6610   -6.9010   55.9200 O.co2 351  ASP351     -0.2456
    199  OD2        6.2820   -7.1670   58.1150 O.co2 351  ASP351     -0.2456
    200  N          7.5930   -4.1140   54.6750 N.am  352  ILE352     -0.1980
    201  CA         8.9200   -3.5510   54.4300 C.3   352  ILE352      0.1595
    202  C          8.7880   -2.3440   53.5030 C.2   352  ILE352      0.2287
    203  O          9.6210   -1.4770   53.4780 O.2   352  ILE352     -0.2864
    204  CB         9.7890   -4.5970   53.6360 C.3   352  ILE352      0.0276
    205  CG1       10.1710   -5.7680   54.4550 C.3   352  ILE352      0.0022
    206  CG2       10.9410   -3.9510   52.8130 C.3   352  ILE352      0.0022
    207  CD1       11.1900   -6.6800   53.7710 C.3   352  ILE352      0.0001
@<TRIPOS>BOND
     1   107   106    2
     2   106   105    1
     3   104   105    1
     4   105   108    1
     5    98    99    2
     6    98    97    1
     7   187   188    1
     8   108   109    1
     9   130   129    2
    10    97    96    1
    11    97   100    1
    12   139   137   ar
    13   139   140   ar
    14    88    87    2
    15   188   189    1
    16   188   191    1
    17    96    87   am
    18    87    86    1
    19   137   134   ar
    20   140   138   ar
    21    85    86    1
    22   109   110    1
    23   189   190    2
    24    86    89    1
    25   100   101    1
    26   129   128    1
    27   176   177    1
    28   179   178    2
    29   111   110    2
    30   134   136   ar
    31   134   132   ar
    32   138   136   ar
    33   206   204    1
    34   128   131    1
    35   128   127    1
    36   110   112   am
    37   101   102   ar
    38   101   103   ar
    39   131   132    1
    40   136   135   ar
    41   160   161    1
    42    89    90    1
    43   132   133   ar
    44   203   202    2
    45   202   201    1
    46   178   177    1
    47   204   201    1
    48   204   205    1
    49   207   205    1
    50   135   133   ar
    51    90    91   ar
    52    90    92   ar
    53   167   169   ar
    54   167   165   ar
    55   161   164    1
    56   161   162    1
    57   201   200    1
    58   169   170   ar
    59   192   193    1
    60   182   183    2
    61   182   181    1
    62   180   181    1
    63    91    93   ar
    64   200   194   am
    65    92    94   ar
    66    73    74    2
    67    73    72    1
    68   164   165    1
    69   165   166   ar
    70   162   163    2
    71   170   168   ar
    72   181   184    1
    73   171   172    1
    74    93    95   ar
    75   194   193    1
    76   194   195    2
    77   193   196    1
    78    72    75    1
    79    72    71    1
    80   198   197   ar
    81    94    95   ar
    82   166   168   ar
    83    75    76    1
    84    77    76   ar
    85    77    79   ar
    86   185   184    1
    87   172   175    1
    88   172   173    1
    89   184   186    1
    90    76    78   ar
    91   197   196    1
    92   197   199   ar
    93   116   115    2
    94    79    80   ar
    95   173   174    2
    96   125   123   ar
    97   125   126   ar
    98   123   120   ar
    99   115   114    1
   100    78    80   ar
   101    78    81   ar
   102    80    82   ar
   103    19    17   ar
   104    19    18   ar
   105   126   124   ar
   106    17    15   ar
   107   114   117    1
   108   114   113    1
   109   117   118    1
   110    70    68   am
   111   120   118   ar
   112   120   122   ar
   113    81    83   ar
   114    18    16   ar
   115    67    68    1
   116    67    66    1
   117    82    84   ar
   118   150   149    1
   119   118   119   ar
   120    68    69    2
   121    64    63    1
   122    64    65    2
   123   124   122   ar
   124    15    14   ar
   125    63    66    1
   126    63    62    1
   127   122   121   ar
   128   146   147    1
   129   146   145    1
   130    83    84   ar
   131    16    14   ar
   132   147   148    1
   133   149   148    2
   134   149   151    1
   135    44    41    1
   136    14    13    1
   137   119   121   ar
   138     7     6    1
   139    61    60    1
   140    41    40    1
   141    41    42    1
   142     8     6    1
   143    51    50    2
   144   145   142    1
   145    60    59    1
   146    52    50   am
   147     6     5    1
   148   144   143    2
   149    50    49    1
   150   142   143    1
   151   142   141    1
   152    34    33    2
   153    13    10    1
   154    43    42    2
   155    59    58    1
   156    33    32    1
   157   143   152   am
   158    58    57    1
   159    49    46    1
   160    10     9    1
   161    10    11    1
   162     5     2    1
   163     9     3   am
   164     1     2    1
   165   158   157   ar
   166   152   153    1
   167     3     4    2
   168     3     2    1
   169    30    29    2
   170    32    31    1
   171    32    35    1
   172    57    54    1
   173   153   154    1
   174   153   156    1
   175    46    47    1
   176    46    45    1
   177   155   154    2
   178    29    31   am
   179    29    28    1
   180    11    12    2
   181    11    20   am
   182    48    47    2
   183    54    53    1
   184    54    55    1
   185   157   156    1
   186   157   159   ar
   187    28    27    1
   188    20    21    1
   189    27    22   am
   190    35    36    1
   191    38    37   ar
   192    56    55    2
   193    25    24    1
   194    22    21    1
   195    22    23    2
   196    21    24    1
   197    36    37    1
   198    37    39   ar
   199    24    26    1
