@<TRIPOS>MOLECULE
tmp/4g6aE00.pdb
 105 102 0 0 0
SMALL
GASTEIGER

@<TRIPOS>ATOM
      1  N        -11.5950   17.9100   55.5050 N.3    33  TYR33      -0.1241
      2  CA       -13.0150   17.6660   55.7230 C.3    33  TYR33       0.1605
      3  C        -13.6150   18.8280   56.5150 C.2    33  TYR33       0.2264
      4  O        -13.0970   19.2140   57.5660 O.2    33  TYR33      -0.2867
      5  CB       -13.2340   16.3280   56.4390 C.3    33  TYR33       0.0534
      6  CG       -12.6540   15.1450   55.6870 C.ar   33  TYR33      -0.0201
      7  CD1      -13.4580   14.3370   54.8890 C.ar   33  TYR33      -0.0009
      8  CD2      -11.2980   14.8450   55.7660 C.ar   33  TYR33      -0.0009
      9  CE1      -12.9260   13.2610   54.1940 C.ar   33  TYR33       0.0417
     10  CE2      -10.7580   13.7780   55.0760 C.ar   33  TYR33       0.0417
     11  CZ       -11.5730   12.9900   54.2930 C.ar   33  TYR33       0.1957
     12  OH       -11.0240   11.9280   53.6130 O.3    33  TYR33      -0.2866
     13  N        -20.3510   16.8110   57.6960 N.3    50  TYR50      -0.1241
     14  CA       -19.2950   17.4480   56.9160 C.3    50  TYR50       0.1605
     15  C        -19.5180   17.4000   55.4140 C.2    50  TYR50       0.2264
     16  O        -20.2340   16.5370   54.9040 O.2    50  TYR50      -0.2867
     17  CB       -17.9060   16.8680   57.2510 C.3    50  TYR50       0.0534
     18  CG       -17.6150   15.4740   56.7050 C.ar   50  TYR50      -0.0201
     19  CD1      -17.6060   14.3660   57.5460 C.ar   50  TYR50      -0.0009
     20  CD2      -17.3180   15.2720   55.3560 C.ar   50  TYR50      -0.0009
     21  CE1      -17.3340   13.0980   57.0590 C.ar   50  TYR50       0.0417
     22  CE2      -17.0540   14.0030   54.8590 C.ar   50  TYR50       0.0417
     23  CZ       -17.0620   12.9230   55.7140 C.ar   50  TYR50       0.1957
     24  OH       -16.7920   11.6660   55.2290 O.3    50  TYR50      -0.2866
     25  N        -16.7590   17.0470   52.2710 N.3    52  SER52      -0.1202
     26  CA       -15.3490   16.7200   52.1030 C.3    52  SER52       0.2020
     27  C        -14.7170   17.4890   50.9500 C.2    52  SER52       0.2618
     28  O        -15.3840   18.2530   50.2490 O.2    52  SER52      -0.2717
     29  CB       -15.1650   15.2210   51.8790 C.3    52  SER52       0.2103
     30  OG       -15.5230   14.8640   50.5580 O.3    52  SER52      -0.2182
     31  N        -13.4220   17.2660   50.7600 N.am   53  TYR53      -0.1975
     32  CA       -12.6650   17.9030   49.6910 C.3    53  TYR53       0.1639
     33  C        -13.1730   17.5000   48.3090 C.2    53  TYR53       0.2290
     34  O        -13.0050   18.2400   47.3380 O.2    53  TYR53      -0.2864
     35  CB       -11.1840   17.5510   49.8220 C.3    53  TYR53       0.0560
     36  CG       -10.8890   16.0680   49.7610 C.ar   53  TYR53      -0.0198
     37  CD1      -10.9470   15.2780   50.9050 C.ar   53  TYR53      -0.0009
     38  CD2      -10.5400   15.4600   48.5600 C.ar   53  TYR53      -0.0009
     39  CE1      -10.6780   13.9240   50.8520 C.ar   53  TYR53       0.0417
     40  CE2      -10.2670   14.1080   48.4970 C.ar   53  TYR53       0.0417
     41  CZ       -10.3370   13.3450   49.6440 C.ar   53  TYR53       0.1957
     42  OH       -10.0640   11.9980   49.5760 O.3    53  TYR53      -0.2866
     43  N        -18.1800   15.3200   48.6470 N.3    56  SER56      -0.1202
     44  CA       -19.0410   14.3160   49.2570 C.3    56  SER56       0.2020
     45  C        -19.4360   14.7600   50.6610 C.2    56  SER56       0.2619
     46  O        -18.6840   15.4650   51.3370 O.2    56  SER56      -0.2717
     47  CB       -18.3500   12.9520   49.3000 C.3    56  SER56       0.2103
     48  OG       -17.1310   13.0130   50.0160 O.3    56  SER56      -0.2182
     49  N        -20.6230   14.3520   51.0920 N.am   57  THR57      -0.1938
     50  CA       -21.1320   14.7760   52.3830 C.3    57  THR57       0.2028
     51  C        -21.3680   13.5930   53.3080 C.2    57  THR57       0.2642
     52  O        -21.4870   12.4520   52.8650 O.2    57  THR57      -0.2714
     53  CB       -22.4450   15.5660   52.2400 C.3    57  THR57       0.1808
     54  OG1      -23.4610   14.7130   51.7020 O.3    57  THR57      -0.2208
     55  CG2      -22.2540   16.7720   51.3260 C.3    57  THR57       0.0379
     56  N        -21.4260   13.8770   54.6030 N.am   58  TYR58      -0.1973
     57  CA       -21.7910   12.8740   55.5910 C.3    58  TYR58       0.1639
     58  C        -22.5840   13.5590   56.6890 C.2    58  TYR58       0.2290
     59  O        -22.1370   14.5600   57.2470 O.2    58  TYR58      -0.2864
     60  CB       -20.5480   12.1920   56.1620 C.3    58  TYR58       0.0560
     61  CG       -20.7850   11.5190   57.4960 C.ar   58  TYR58      -0.0198
     62  CD1      -20.1560   11.9740   58.6480 C.ar   58  TYR58      -0.0009
     63  CD2      -21.6500   10.4410   57.6060 C.ar   58  TYR58      -0.0009
     64  CE1      -20.3780   11.3670   59.8670 C.ar   58  TYR58       0.0417
     65  CE2      -21.8780    9.8280   58.8220 C.ar   58  TYR58       0.0417
     66  CZ       -21.2400   10.2930   59.9490 C.ar   58  TYR58       0.1957
     67  OH       -21.4650    9.6830   61.1620 O.3    58  TYR58      -0.2866
     68  N        -30.1780   13.3800   59.3350 N.3    64  ARG64      -0.1245
     69  CA       -29.9260   13.0150   57.9410 C.3    64  ARG64       0.1563
     70  C        -31.0690   13.4810   57.0240 C.2    64  ARG64       0.2260
     71  O        -30.8590   13.7280   55.8310 O.2    64  ARG64      -0.2867
     72  CB       -29.6680   11.4970   57.8250 C.3    64  ARG64       0.0307
     73  CG       -29.1110   11.0150   56.4670 C.3    64  ARG64       0.0489
     74  CD       -28.5230    9.5800   56.5400 C.3    64  ARG64       0.2205
     75  NE       -27.2380    9.5300   57.2490 N.pl3  64  ARG64      -0.0865
     76  CZ       -26.7750    8.4740   57.9180 C.cat  64  ARG64       0.5346
     77  NH1      -27.4860    7.3520   57.9880 N.pl3  64  ARG64       0.1354
     78  NH2      -25.5980    8.5410   58.5290 N.pl3  64  ARG64       0.1354
     79  N        -11.1180   19.0660   59.7560 N.3    98  ILE98      -0.1245
     80  CA       -10.3960   17.8360   60.0420 C.3    98  ILE98       0.1561
     81  C         -9.3200   17.6610   58.9850 C.2    98  ILE98       0.2260
     82  O         -9.6040   17.7350   57.7900 O.2    98  ILE98      -0.2867
     83  CB       -11.3190   16.6090   59.9940 C.3    98  ILE98       0.0252
     84  CG1      -12.3750   16.6830   61.0950 C.3    98  ILE98       0.0019
     85  CG2      -10.5100   15.3280   60.1280 C.3    98  ILE98       0.0019
     86  CD1      -13.2740   15.4630   61.1640 C.3    98  ILE98       0.0001
     87  N         -5.8170   15.2050   57.6690 N.3   100  THR100     -0.1218
     88  CA        -5.1970   13.8850   57.7620 C.3   100  THR100      0.1862
     89  C         -3.9180   13.9170   58.6040 C.2   100  THR100      0.2287
     90  O         -3.2540   12.8990   58.7800 O.2   100  THR100     -0.2866
     91  CB        -4.8880   13.3010   56.3670 C.3   100  THR100      0.1770
     92  OG1       -4.1890   14.2750   55.5810 O.3   100  THR100     -0.2211
     93  CG2       -6.1760   12.9200   55.6520 C.3   100  THR100      0.0375
     94  N         -6.4460   13.5440   61.9280 N.3   103  TYR103     -0.1241
     95  CA        -7.7030   12.8090   61.7950 C.3   103  TYR103      0.1605
     96  C         -8.6920   13.2370   62.8820 C.2   103  TYR103      0.2264
     97  O         -9.5400   12.4540   63.3170 O.2   103  TYR103     -0.2867
     98  CB        -7.4780   11.2890   61.8110 C.3   103  TYR103      0.0534
     99  CG        -6.6970   10.7700   60.6210 C.ar  103  TYR103     -0.0201
    100  CD1       -7.3140   10.5770   59.3910 C.ar  103  TYR103     -0.0009
    101  CD2       -5.3430   10.4680   60.7300 C.ar  103  TYR103     -0.0009
    102  CE1       -6.6060   10.1040   58.3010 C.ar  103  TYR103      0.0417
    103  CE2       -4.6260    9.9950   59.6440 C.ar  103  TYR103      0.0417
    104  CZ        -5.2630    9.8150   58.4330 C.ar  103  TYR103      0.1957
    105  OH        -4.5530    9.3440   57.3520 O.3   103  TYR103     -0.2866
@<TRIPOS>BOND
     1    34    33    2
     2    33    32    1
     3    40    38   ar
     4    40    41   ar
     5    38    36   ar
     6    43    44    1
     7    44    47    1
     8    44    45    1
     9    47    48    1
    10    42    41    1
    11    41    39   ar
    12    32    35    1
    13    32    31    1
    14    36    35    1
    15    36    37   ar
    16    28    27    2
    17    30    29    1
    18    45    49   am
    19    45    46    2
    20    31    27   am
    21    39    37   ar
    22    27    26    1
    23    49    50    1
    24    55    53    1
    25    54    53    1
    26    29    26    1
    27    26    25    1
    28    53    50    1
    29    50    51    1
    30    52    51    2
    31    51    56   am
    32    12    11    1
    33     9    11   ar
    34     9     7   ar
    35    11    10   ar
    36    56    57    1
    37    22    20   ar
    38    22    23   ar
    39     7     6   ar
    40    16    15    2
    41    10     8   ar
    42    24    23    1
    43    20    18   ar
    44    15    14    1
    45     1     2    1
    46    92    91    1
    47    57    60    1
    48    57    58    1
    49    93    91    1
    50     6     8   ar
    51     6     5    1
    52    23    21   ar
    53     2     5    1
    54     2     3    1
    55    71    70    2
    56    60    61    1
    57    91    88    1
    58    73    74    1
    59    73    72    1
    60     3     4    2
    61    74    75    1
    62    58    59    2
    63    18    17    1
    64    18    19   ar
    65    14    17    1
    66    14    13    1
    67    70    69    1
    68    21    19   ar
    69    75    76    2
    70   105   104    1
    71    61    63   ar
    72    61    62   ar
    73    63    65   ar
    74    87    88    1
    75    88    89    1
    76    82    81    2
    77    72    69    1
    78    76    77    1
    79    76    78    1
    80    69    68    1
    81   102   104   ar
    82   102   100   ar
    83   104   103   ar
    84    89    90    2
    85    62    64   ar
    86    65    66   ar
    87    81    80    1
    88   100    99   ar
    89   103   101   ar
    90    79    80    1
    91    64    66   ar
    92    66    67    1
    93    83    80    1
    94    83    85    1
    95    83    84    1
    96    99   101   ar
    97    99    98    1
    98    84    86    1
    99    95    98    1
   100    95    94    1
   101    95    96    1
   102    96    97    2
