@<TRIPOS>MOLECULE
tmp/4g6gA01.pdb
 131 127 0 0 0
SMALL
GASTEIGER

@<TRIPOS>ATOM
      1  N         34.1740   28.7740    7.0370 N.3    28  TRP28      -0.1241
      2  CA        33.5810   27.6640    7.7760 C.3    28  TRP28       0.1605
      3  C         33.0940   28.0670    9.1720 C.2    28  TRP28       0.2264
      4  O         31.9530   27.7980    9.5430 O.2    28  TRP28      -0.2867
      5  CB        34.5640   26.5030    7.8690 C.3    28  TRP28       0.0550
      6  CG        34.6080   25.6690    6.6250 C.ar   28  TRP28       0.0003
      7  CD1       35.5500   25.7090    5.6370 C.ar   28  TRP28       0.0946
      8  CD2       33.6620   24.6680    6.2360 C.ar   28  TRP28       0.0152
      9  NE1       35.2430   24.7980    4.6590 N.ar   28  TRP28      -0.2442
     10  CE2       34.0920   24.1420    5.0110 C.ar   28  TRP28       0.0810
     11  CE3       32.4920   24.1610    6.8150 C.ar   28  TRP28       0.0012
     12  CZ2       33.3920   23.1360    4.3490 C.ar   28  TRP28       0.0191
     13  CZ3       31.8000   23.1660    6.1610 C.ar   28  TRP28       0.0001
     14  CH2       32.2500   22.6610    4.9370 C.ar   28  TRP28       0.0015
     15  N         36.8480   22.0680    0.5120 N.3    57  PRO57      -0.2116
     16  CA        37.3400   20.7480    0.1180 C.3    57  PRO57       0.1372
     17  C         37.2240   20.4890   -1.3930 C.2    57  PRO57       0.2244
     18  O         37.9090   19.6030   -1.9080 O.2    57  PRO57      -0.2868
     19  CB        36.4530   19.7810    0.9180 C.3    57  PRO57       0.0268
     20  CG        35.9290   20.5990    2.0560 C.3    57  PRO57       0.0207
     21  CD        35.7650   21.9830    1.5100 C.3    57  PRO57       0.0892
     22  N         38.1850   22.2880    8.5270 N.3   358  ALA358     -0.1231
     23  CA        36.8300   22.7990    8.4620 C.3   358  ALA358      0.1694
     24  C         36.0170   22.0090    9.4510 C.2   358  ALA358      0.2591
     25  O         35.0670   22.4980   10.0630 O.2   358  ALA358     -0.2718
     26  CB        36.2610   22.6440    7.0560 C.3   358  ALA358      0.0304
     27  N         36.4140   20.7620    9.6100 N.am  359  GLN359     -0.1979
     28  CA        35.7390   19.8680   10.5170 C.3   359  GLN359      0.1601
     29  C         35.7400   20.4190   11.9410 C.2   359  GLN359      0.2287
     30  O         34.7040   20.4310   12.6140 O.2   359  GLN359     -0.2864
     31  CB        36.4110   18.5000   10.4580 C.3   359  GLN359      0.0394
     32  CG        35.5380   17.3430   10.8880 C.3   359  GLN359      0.0908
     33  CD        36.3080   16.0340   10.9050 C.2   359  GLN359      0.2608
     34  OE1       37.1360   15.7730   10.0320 O.2   359  GLN359     -0.2717
     35  NE2       36.0640   15.2220   11.9160 N.am  359  GLN359     -0.0878
     36  N         33.7540   23.8930   11.9820 N.3   362  HIS362     -0.1241
     37  CA        32.3140   23.6910   11.9450 C.3   362  HIS362      0.1621
     38  C         31.7530   23.2450   13.3080 C.2   362  HIS362      0.2264
     39  O         30.6950   23.7020   13.7300 O.2   362  HIS362     -0.2867
     40  CB        31.9470   22.6900   10.8550 C.3   362  HIS362      0.0745
     41  CG        30.5230   22.2540   10.9110 C.ar  362  HIS362      0.0817
     42  ND1       29.5070   22.9760   10.3280 N.ar  362  HIS362     -0.2268
     43  CD2       29.9360   21.1860   11.5050 C.ar  362  HIS362      0.1154
     44  CE1       28.3550   22.3650   10.5450 C.ar  362  HIS362      0.1986
     45  NE2       28.5880   21.2830   11.2660 N.ar  362  HIS362     -0.2212
     46  N         35.7050   13.0350   13.1610 N.3   401  LEU401     -0.1231
     47  CA        34.8410   12.2480   12.2990 C.3   401  LEU401      0.1693
     48  C         35.5800   11.5630   11.1440 C.2   401  LEU401      0.2593
     49  O         34.9800   10.7990   10.3860 O.2   401  LEU401     -0.2718
     50  CB        33.7420   13.1390   11.7390 C.3   401  LEU401      0.0284
     51  CG        32.3930   13.1840   12.4360 C.3   401  LEU401      0.0019
     52  CD1       32.5250   12.8850   13.9120 C.3   401  LEU401      0.0001
     53  CD2       31.7600   14.5390   12.1720 C.3   401  LEU401      0.0001
     54  N         36.8760   11.8270   11.0050 N.am  402  GLY402     -0.1942
     55  CA        37.6810   11.1370   10.0050 C.3   402  GLY402      0.2014
     56  C         38.2900   12.0070    8.9140 C.2   402  GLY402      0.2639
     57  O         38.4400   13.2210    9.0800 O.2   402  GLY402     -0.2714
     58  N         38.6330   11.3920    7.7840 N.am  403  ALA403     -0.1963
     59  CA        39.3420   12.0960    6.7170 C.3   403  ALA403      0.1728
     60  C         39.1360   11.4270    5.3650 C.2   403  ALA403      0.2616
     61  O         38.9010   10.2240    5.3120 O.2   403  ALA403     -0.2715
     62  CB        40.8240   12.1810    7.0430 C.3   403  ALA403      0.0334
     63  N         39.2050   12.2060    4.2790 N.am  404  LEU404     -0.1977
     64  CA        39.1240   11.6610    2.9160 C.3   404  LEU404      0.1596
     65  C         40.1590   12.3010    2.0100 C.2   404  LEU404      0.2287
     66  O         40.5460   13.4220    2.2150 O.2   404  LEU404     -0.2864
     67  CB        37.7500   11.8830    2.2860 C.3   404  LEU404      0.0297
     68  CG        36.5310   11.3600    3.0350 C.3   404  LEU404      0.0022
     69  CD1       35.9690   12.4710    3.8780 C.3   404  LEU404      0.0001
     70  CD2       35.4910   10.8850    2.0600 C.3   404  LEU404      0.0001
     71  N         36.3060    6.8510    8.1360 N.3   416  ILE416     -0.1231
     72  CA        35.1890    7.5140    8.8010 C.3   416  ILE416      0.1692
     73  C         35.0480    6.9660   10.2220 C.2   416  ILE416      0.2591
     74  O         35.0590    5.7520   10.4320 O.2   416  ILE416     -0.2718
     75  CB        33.8580    7.2740    8.0630 C.3   416  ILE416      0.0266
     76  CG1       33.9730    7.6510    6.5840 C.3   416  ILE416      0.0019
     77  CG2       32.7520    8.0750    8.7120 C.3   416  ILE416      0.0020
     78  CD1       34.6410    8.9550    6.3760 C.3   416  ILE416      0.0001
     79  N         34.9130    7.8520   11.2030 N.am  417  ARG417     -0.1980
     80  CA        34.8320    7.4050   12.5820 C.3   417  ARG417      0.1597
     81  C         34.0100    8.3440   13.4390 C.2   417  ARG417      0.2287
     82  O         33.5420    9.3700   12.9760 O.2   417  ARG417     -0.2864
     83  CB        36.2360    7.2340   13.1830 C.3   417  ARG417      0.0334
     84  CG        37.2180    8.2540   12.7170 C.3   417  ARG417      0.0492
     85  CD        38.4940    8.2950   13.5520 C.3   417  ARG417      0.2205
     86  NE        39.3630    9.3430   13.0200 N.pl3 417  ARG417     -0.0865
     87  CZ        40.3850    9.1250   12.1970 C.cat 417  ARG417      0.5346
     88  NH1       40.6960    7.8830   11.8510 N.pl3 417  ARG417      0.1354
     89  NH2       41.1100   10.1460   11.7400 N.pl3 417  ARG417      0.1354
     90  N         29.7990   11.9110    0.3160 N.3   438  LEU438     -0.1231
     91  CA        30.0900   12.5720    1.5850 C.3   438  LEU438      0.1693
     92  C         30.3230   14.0720    1.3650 C.2   438  LEU438      0.2592
     93  O         29.7500   14.8950    2.0760 O.2   438  LEU438     -0.2718
     94  CB        31.3010   11.9180    2.2640 C.3   438  LEU438      0.0284
     95  CG        31.0590   10.9820    3.4590 C.3   438  LEU438      0.0019
     96  CD1       29.6850   10.3550    3.4630 C.3   438  LEU438      0.0001
     97  CD2       32.1240    9.9280    3.4840 C.3   438  LEU438      0.0001
     98  N         31.1320   14.4390    0.3680 N.am  439  TYR439     -0.1976
     99  CA        31.3860   15.8640    0.1190 C.3   439  TYR439      0.1639
    100  C         30.1240   16.6160   -0.2990 C.2   439  TYR439      0.2290
    101  O         29.8840   17.7330    0.1410 O.2   439  TYR439     -0.2864
    102  CB        32.4620   16.0630   -0.9330 C.3   439  TYR439      0.0560
    103  CG        33.8770   16.0260   -0.4060 C.ar  439  TYR439     -0.0198
    104  CD1       34.1620   15.5310    0.8470 C.ar  439  TYR439     -0.0009
    105  CD2       34.9260   16.5200   -1.1700 C.ar  439  TYR439     -0.0009
    106  CE1       35.4440   15.5050    1.3270 C.ar  439  TYR439      0.0417
    107  CE2       36.2130   16.5000   -0.6980 C.ar  439  TYR439      0.0417
    108  CZ        36.4610   15.9840    0.5500 C.ar  439  TYR439      0.1957
    109  OH        37.7360   15.9590    1.0250 O.3   439  TYR439     -0.2866
    110  N         27.2200   15.9380    0.6490 N.3   441  SER441     -0.1202
    111  CA        26.3920   16.0290    1.8470 C.3   441  SER441      0.2020
    112  C         26.8970   17.0950    2.8140 C.2   441  SER441      0.2618
    113  O         26.1220   17.6640    3.5810 O.2   441  SER441     -0.2717
    114  CB        26.3240   14.6740    2.5550 C.3   441  SER441      0.2103
    115  OG        26.0170   13.6360    1.6420 O.3   441  SER441     -0.2182
    116  N         28.1980   17.3580    2.7750 N.am  442  MET442     -0.1979
    117  CA        28.8090   18.3390    3.6730 C.3   442  MET442      0.1605
    118  C         28.6310   19.7990    3.2380 C.2   442  MET442      0.2287
    119  O         28.8390   20.6990    4.0390 O.2   442  MET442     -0.2864
    120  CB        30.3070   18.0550    3.8330 C.3   442  MET442      0.0413
    121  CG        30.6320   16.7180    4.4980 C.3   442  MET442      0.0598
    122  SD        32.4170   16.4540    4.5880 S.3   442  MET442     -0.1393
    123  CE        32.6140   14.9790    3.5940 C.3   442  MET442      0.0692
    124  N         27.1120   23.3920    2.4730 N.3   444  LEU444     -0.1245
    125  CA        26.2340   24.1100    3.4020 C.3   444  LEU444      0.1561
    126  C         24.9550   24.6960    2.7980 C.2   444  LEU444      0.2260
    127  O         24.1170   25.2150    3.5270 O.2   444  LEU444     -0.2867
    128  CB        27.0060   25.2170    4.1360 C.3   444  LEU444      0.0270
    129  CG        28.1790   24.7800    5.0080 C.3   444  LEU444      0.0019
    130  CD1       28.7880   25.9740    5.7340 C.3   444  LEU444      0.0001
    131  CD2       27.7300   23.7150    5.9920 C.3   444  LEU444      0.0001
@<TRIPOS>BOND
     1    18    17    2
     2    17    16    1
     3   105   107   ar
     4   105   103   ar
     5   102   103    1
     6   102    99    1
     7   107   108   ar
     8   103   104   ar
     9   100    99    1
    10   100   101    2
    11    16    15    1
    12    16    19    1
    13    99    98    1
    14    90    91    1
    15    98    92   am
    16    15    21    1
    17   108   109    1
    18   108   106   ar
    19   110   111    1
    20   104   106   ar
    21    19    20    1
    22    92    91    1
    23    92    93    2
    24    21    20    1
    25    91    94    1
    26   115   114    1
    27   111   114    1
    28   111   112    1
    29    65    66    2
    30    65    64    1
    31    70    68    1
    32    94    95    1
    33    67    64    1
    34    67    68    1
    35   124   125    1
    36   116   112   am
    37   116   117    1
    38   126   125    1
    39   126   127    2
    40   112   113    2
    41    64    63    1
    42    68    69    1
    43   118   117    1
    44   118   119    2
    45   125   128    1
    46    95    96    1
    47    95    97    1
    48   123   122    1
    49   117   120    1
    50   120   121    1
    51   128   129    1
    52    63    60   am
    53    12    14   ar
    54    12    10   ar
    55   121   122    1
    56     9    10   ar
    57     9     7   ar
    58    14    13   ar
    59   129   130    1
    60   129   131    1
    61    10     8   ar
    62    61    60    2
    63    60    59    1
    64     7     6   ar
    65    13    11   ar
    66     8     6   ar
    67     8    11   ar
    68    78    76    1
    69    76    75    1
    70     6     5    1
    71    59    62    1
    72    59    58    1
    73     1     2    1
    74    26    23    1
    75     2     5    1
    76     2     3    1
    77    58    56   am
    78    75    77    1
    79    75    72    1
    80    71    72    1
    81    23    22    1
    82    23    24    1
    83    72    73    1
    84    56    57    2
    85    56    55    1
    86     3     4    2
    87    24    27   am
    88    24    25    2
    89    27    28    1
    90    55    54    1
    91    34    33    2
    92    73    74    2
    93    73    79   am
    94    42    44   ar
    95    42    41   ar
    96    49    48    2
    97    31    28    1
    98    31    32    1
    99    28    29    1
   100    44    45   ar
   101    40    41    1
   102    40    37    1
   103    32    33    1
   104    33    35   am
   105    41    43   ar
   106    54    48   am
   107    48    47    1
   108    79    80    1
   109    45    43   ar
   110    50    47    1
   111    50    51    1
   112    89    87    1
   113    88    87    1
   114    29    30    2
   115    37    36    1
   116    37    38    1
   117    53    51    1
   118    87    86    2
   119    47    46    1
   120    51    52    1
   121    80    83    1
   122    80    81    1
   123    84    83    1
   124    84    85    1
   125    82    81    2
   126    86    85    1
   127    38    39    2
