@<TRIPOS>MOLECULE
tmp/4g6iA01.pdb
 133 128 0 0 0
SMALL
GASTEIGER

@<TRIPOS>ATOM
      1  N         36.9310    5.3780   26.2070 N.3     3  THR3       -0.1203
      2  CA        36.1330    5.8750   25.0860 C.3     3  THR3        0.1994
      3  C         36.8570    5.7150   23.7530 C.2     3  THR3        0.2618
      4  O         36.2720    5.9290   22.6930 O.2     3  THR3       -0.2717
      5  CB        35.7640    7.3630   25.2590 C.3     3  THR3        0.1784
      6  OG1       36.9580    8.1360   25.4130 O.3     3  THR3       -0.2211
      7  CG2       34.8690    7.5630   26.4720 C.3     3  THR3        0.0376
      8  N         38.1320    5.3490   23.8100 N.am    4  GLY4       -0.1942
      9  CA        38.9440    5.2280   22.6050 C.3     4  GLY4        0.2014
     10  C         39.4280    6.5720   22.0910 C.2     4  GLY4        0.2639
     11  O         39.8430    6.6880   20.9360 O.2     4  GLY4       -0.2714
     12  N         39.3580    7.5910   22.9450 N.am    5  ILE5       -0.1963
     13  CA        39.9450    8.8910   22.6430 C.3     5  ILE5        0.1727
     14  C         41.3220    8.9420   23.2990 C.2     5  ILE5        0.2616
     15  O         41.4400    9.0910   24.5170 O.2     5  ILE5       -0.2715
     16  CB        39.0600   10.0710   23.1110 C.3     5  ILE5        0.0290
     17  CG1       37.6720    9.9920   22.4620 C.3     5  ILE5        0.0022
     18  CG2       39.7280   11.4040   22.7840 C.3     5  ILE5        0.0023
     19  CD1       36.6430   10.9290   23.0600 C.3     5  ILE5        0.0001
     20  N         42.3580    8.7970   22.4800 N.am    6  ILE6       -0.1977
     21  CA        43.7340    8.7400   22.9640 C.3     6  ILE6        0.1596
     22  C         44.1840   10.1220   23.4370 C.2     6  ILE6        0.2287
     23  O         43.9580   11.1220   22.7560 O.2     6  ILE6       -0.2864
     24  CB        44.6850    8.1800   21.8740 C.3     6  ILE6        0.0276
     25  CG1       44.2120    6.7960   21.3890 C.3     6  ILE6        0.0022
     26  CG2       46.1310    8.1330   22.3580 C.3     6  ILE6        0.0022
     27  CD1       44.0280    5.7550   22.4800 C.3     6  ILE6        0.0001
     28  N         29.5940    8.4480   26.0220 N.3    99  GLY99      -0.1210
     29  CA        29.8030    8.7400   24.6030 C.3    99  GLY99       0.1956
     30  C         29.1870    7.7110   23.6730 C.2    99  GLY99       0.2612
     31  O         28.3440    6.9110   24.0850 O.2    99  GLY99      -0.2717
     32  N         29.6240    7.7290   22.4150 N.am  100  GLY100     -0.1942
     33  CA        29.0550    6.8740   21.3750 C.3   100  GLY100      0.2014
     34  C         29.6880    5.5030   21.2120 C.2   100  GLY100      0.2638
     35  O         29.1380    4.6490   20.5140 O.2   100  GLY100     -0.2714
     36  N         30.8450    5.2890   21.8400 N.am  101  HIS101     -0.1973
     37  CA        31.5280    3.9970   21.7590 C.3   101  HIS101      0.1656
     38  C         32.3920    3.7010   22.9530 C.2   101  HIS101      0.2291
     39  O         33.4590    4.2970   23.1330 O.2   101  HIS101     -0.2864
     40  CB        32.3460    3.8820   20.4730 C.3   101  HIS101      0.0771
     41  CG        32.9460    2.5130   20.2570 C.ar  101  HIS101      0.0820
     42  ND1       34.2730    2.2990   20.2440 N.ar  101  HIS101     -0.2267
     43  CD2       32.3450    1.2700   20.0590 C.ar  101  HIS101      0.1154
     44  CE1       34.5140    0.9910   20.0380 C.ar  101  HIS101      0.1986
     45  NE2       33.3330    0.3620   19.9250 N.ar  101  HIS101     -0.2212
     46  N         31.4070    1.2900   14.9270 N.3   142  SER142     -0.1217
     47  CA        32.5920    1.7580   15.6410 C.3   142  SER142      0.1889
     48  C         33.4380    0.5890   16.1330 C.2   142  SER142      0.2288
     49  O         32.9100   -0.4230   16.5950 O.2   142  SER142     -0.2866
     50  CB        32.1950    2.6540   16.8160 C.3   142  SER142      0.2089
     51  OG        31.6420    3.8770   16.3640 O.3   142  SER142     -0.2183
     52  N         42.2380    3.1430   19.6480 N.3   148  THR148     -0.1203
     53  CA        41.6610    4.3210   19.0100 C.3   148  THR148      0.1994
     54  C         40.2790    3.9780   18.4700 C.2   148  THR148      0.2619
     55  O         40.1390    3.0730   17.6470 O.2   148  THR148     -0.2717
     56  CB        42.5500    4.8300   17.8510 C.3   148  THR148      0.1784
     57  OG1       43.9230    4.8600   18.2630 O.3   148  THR148     -0.2211
     58  CG2       42.1240    6.2230   17.4080 C.3   148  THR148      0.0376
     59  N         39.2620    4.6960   18.9420 N.am  149  SER149     -0.1937
     60  CA        37.9030    4.5270   18.4380 C.3   149  SER149      0.2055
     61  C         37.8110    5.0660   17.0180 C.2   149  SER149      0.2643
     62  O         38.1260    6.2320   16.7620 O.2   149  SER149     -0.2714
     63  CB        36.8870    5.2200   19.3460 C.3   149  SER149      0.2130
     64  OG        36.6260    4.4330   20.4920 O.3   149  SER149     -0.2179
     65  N         37.4030    4.1950   16.0990 N.am  150  LEU150     -0.1963
     66  CA        37.3720    4.5150   14.6760 C.3   150  LEU150      0.1728
     67  C         36.1240    3.9430   14.0140 C.2   150  LEU150      0.2616
     68  O         35.6550    2.8620   14.3810 O.2   150  LEU150     -0.2715
     69  CB        38.6270    3.9780   13.9750 C.3   150  LEU150      0.0311
     70  CG        40.0000    4.5060   14.4140 C.3   150  LEU150      0.0022
     71  CD1       41.1150    3.6000   13.9120 C.3   150  LEU150      0.0001
     72  CD2       40.2190    5.9410   13.9560 C.3   150  LEU150      0.0001
     73  N         35.5940    4.6780   13.0400 N.am  151  THR151     -0.1951
     74  CA        34.4220    4.2430   12.2870 C.3   151  THR151      0.1897
     75  C         34.8570    3.4000   11.0880 C.2   151  THR151      0.2313
     76  O         35.7710    3.7780   10.3560 O.2   151  THR151     -0.2863
     77  CB        33.5790    5.4460   11.8110 C.3   151  THR151      0.1794
     78  OG1       33.3560    6.3410   12.9080 O.3   151  THR151     -0.2208
     79  CG2       32.2310    4.9860   11.2580 C.3   151  THR151      0.0378
     80  N         39.2400    5.7150    8.0590 N.3   163  LEU163     -0.1231
     81  CA        39.7760    6.9880    7.6010 C.3   163  LEU163      0.1693
     82  C         40.2560    7.7860    8.8080 C.2   163  LEU163      0.2592
     83  O         39.4550    8.1930    9.6510 O.2   163  LEU163     -0.2718
     84  CB        38.7080    7.7750    6.8300 C.3   163  LEU163      0.0284
     85  CG        39.0560    8.4380    5.4890 C.3   163  LEU163      0.0019
     86  CD1       37.9300    9.3700    5.0590 C.3   163  LEU163      0.0001
     87  CD2       40.3850    9.1800    5.5140 C.3   163  LEU163      0.0001
     88  N         41.5660    7.9910    8.8950 N.am  164  LEU164     -0.1966
     89  CA        42.1510    8.7320   10.0090 C.3   164  LEU164      0.1728
     90  C         42.4440   10.1770    9.6390 C.2   164  LEU164      0.2616
     91  O         43.2310   10.4520    8.7320 O.2   164  LEU164     -0.2715
     92  CB        43.4010    8.0240   10.5310 C.3   164  LEU164      0.0311
     93  CG        43.0640    6.9940   11.6120 C.3   164  LEU164      0.0022
     94  CD1       43.5550    5.6070   11.2320 C.3   164  LEU164      0.0001
     95  CD2       43.5920    7.4160   12.9750 C.3   164  LEU164      0.0001
     96  N         41.7890   11.0930   10.3500 N.am  165  ILE165     -0.1977
     97  CA        41.9260   12.5300   10.1030 C.3   165  ILE165      0.1596
     98  C         43.2830   13.0490   10.5790 C.2   165  ILE165      0.2287
     99  O         43.9430   12.4130   11.4060 O.2   165  ILE165     -0.2864
    100  CB        40.7700   13.3470   10.7380 C.3   165  ILE165      0.0276
    101  CG1       40.7600   13.2070   12.2690 C.3   165  ILE165      0.0022
    102  CG2       39.4310   12.9350   10.1340 C.3   165  ILE165      0.0022
    103  CD1       39.9110   14.2380   12.9870 C.3   165  ILE165      0.0001
    104  N         44.2970   15.3540   12.6170 N.3   167  HIS167     -0.1226
    105  CA        44.4380   15.4760   14.0710 C.3   167  HIS167      0.1752
    106  C         44.7290   14.1550   14.7270 C.2   167  HIS167      0.2596
    107  O         45.6350   14.0610   15.5570 O.2   167  HIS167     -0.2718
    108  CB        43.2020   16.1210   14.6930 C.3   167  HIS167      0.0759
    109  CG        43.1890   16.0750   16.2040 C.ar  167  HIS167      0.0818
    110  ND1       42.3950   15.2370   16.8960 N.ar  167  HIS167     -0.2268
    111  CD2       43.9250   16.7890   17.1490 C.ar  167  HIS167      0.1154
    112  CE1       42.6020   15.4100   18.2150 C.ar  167  HIS167      0.1986
    113  NE2       43.5390   16.3600   18.3680 N.ar  167  HIS167     -0.2212
    114  N         43.9700   13.1250   14.3530 N.am  168  SER168     -0.1952
    115  CA        44.1540   11.7750   14.8940 C.3   168  SER168      0.1924
    116  C         45.5310   11.2010   14.5680 C.2   168  SER168      0.2314
    117  O         46.1080   10.4770   15.3760 O.2   168  SER168     -0.2863
    118  CB        43.0590   10.8340   14.3900 C.3   168  SER168      0.2116
    119  OG        41.8070   11.1480   14.9730 O.3   168  SER168     -0.2180
    120  N         48.1670   13.0150   17.0970 N.3   171  VAL171     -0.1231
    121  CA        48.0980   12.7380   18.5380 C.3   171  VAL171      0.1692
    122  C         48.0670   11.2530   18.9060 C.2   171  VAL171      0.2592
    123  O         48.0270   10.9070   20.0890 O.2   171  VAL171     -0.2718
    124  CB        46.9210   13.4810   19.2250 C.3   171  VAL171      0.0266
    125  CG1       47.1000   14.9900   19.1180 C.3   171  VAL171      0.0020
    126  CG2       45.5790   13.0460   18.6500 C.3   171  VAL171      0.0020
    127  N         48.0810   10.3830   17.8970 N.am  172  THR172     -0.1953
    128  CA        48.1590    8.9360   18.1230 C.3   172  THR172      0.1897
    129  C         49.3350    8.3290   17.3610 C.2   172  THR172      0.2313
    130  O         49.9960    9.0110   16.5750 O.2   172  THR172     -0.2863
    131  CB        46.8680    8.1930   17.6990 C.3   172  THR172      0.1794
    132  OG1       46.7660    8.1770   16.2690 O.3   172  THR172     -0.2208
    133  CG2       45.6270    8.8390   18.2990 C.3   172  THR172      0.0378
@<TRIPOS>BOND
     1    86    85    1
     2    85    87    1
     3    85    84    1
     4    84    81    1
     5    81    80    1
     6    81    82    1
     7    91    90    2
     8    82    88   am
     9    82    83    2
    10    88    89    1
    11    90    89    1
    12    90    96   am
    13    89    92    1
    14    97    96    1
    15    97    98    1
    16    97   100    1
    17   102   100    1
    18    76    75    2
    19    92    93    1
    20    98    99    2
    21   100   101    1
    22    75    74    1
    23    94    93    1
    24    79    77    1
    25    93    95    1
    26    77    74    1
    27    77    78    1
    28   101   103    1
    29    74    73    1
    30   104   105    1
    31    73    67   am
    32    71    70    1
    33    72    70    1
    34    69    70    1
    35    69    66    1
    36    67    68    2
    37    67    66    1
    38   105   108    1
    39   105   106    1
    40   114   106   am
    41   114   115    1
    42   118   115    1
    43   118   119    1
    44   116   115    1
    45   116   117    2
    46    66    65    1
    47   108   109    1
    48   106   107    2
    49    46    47    1
    50    47    48    1
    51    47    50    1
    52    65    61   am
    53    48    49    2
    54   109   110   ar
    55   109   111   ar
    56   132   131    1
    57    51    50    1
    58   130   129    2
    59    62    61    2
    60   110   112   ar
    61    61    60    1
    62   120   121    1
    63   111   113   ar
    64   129   128    1
    65    58    56    1
    66    55    54    2
    67   131   128    1
    68   131   133    1
    69    56    57    1
    70    56    53    1
    71   127   128    1
    72   127   122   am
    73   112   113   ar
    74    60    59    1
    75    60    63    1
    76    54    59   am
    77    54    53    1
    78   121   122    1
    79   121   124    1
    80   126   124    1
    81   122   123    2
    82    53    52    1
    83   125   124    1
    84    63    64    1
    85    45    44   ar
    86    45    43   ar
    87    44    42   ar
    88    43    41   ar
    89    42    41   ar
    90    41    40    1
    91    40    37    1
    92    35    34    2
    93    11    10    2
    94    34    33    1
    95    34    36   am
    96    33    32    1
    97    25    24    1
    98    25    27    1
    99    37    36    1
   100    37    38    1
   101    24    26    1
   102    24    21    1
   103    10     9    1
   104    10    12   am
   105    32    30   am
   106    17    19    1
   107    17    16    1
   108    20    21    1
   109    20    14   am
   110     9     8    1
   111    13    12    1
   112    13    16    1
   113    13    14    1
   114     4     3    2
   115    23    22    2
   116    18    16    1
   117    38    39    2
   118    21    22    1
   119    14    15    2
   120    30    31    2
   121    30    29    1
   122     3     8   am
   123     3     2    1
   124    29    28    1
   125     2     5    1
   126     2     1    1
   127     5     6    1
   128     5     7    1
