@<TRIPOS>MOLECULE
tmp/4g6iB00.pdb
 76 68 0 0 0
SMALL
GASTEIGER

@<TRIPOS>ATOM
      1  N         36.9540   -3.5560   40.9010 N.3     5  ILE5       -0.1245
      2  CA        38.3670   -3.4350   41.2460 C.3     5  ILE5        0.1561
      3  C         38.5170   -3.5120   42.7650 C.2     5  ILE5        0.2260
      4  O         38.1450   -2.5850   43.4870 O.2     5  ILE5       -0.2867
      5  CB        38.9960   -2.1320   40.6860 C.3     5  ILE5        0.0252
      6  CG1       38.8540   -2.0560   39.1530 C.3     5  ILE5        0.0019
      7  CG2       40.4540   -1.9960   41.1190 C.3     5  ILE5        0.0019
      8  CD1       39.5630   -3.1480   38.3680 C.3     5  ILE5        0.0001
      9  N         37.6790    1.5670   36.5880 N.3    95  GLY95      -0.1210
     10  CA        38.7560    0.7930   35.9680 C.3    95  GLY95       0.1956
     11  C         38.3890   -0.5530   35.3670 C.2    95  GLY95       0.2612
     12  O         39.0950   -1.0490   34.4870 O.2    95  GLY95      -0.2717
     13  N         37.2980   -1.1510   35.8400 N.am   96  GLY96      -0.1956
     14  CA        36.8190   -2.4240   35.2970 C.3    96  GLY96       0.1869
     15  C         35.6740   -2.1960   34.3320 C.2    96  GLY96       0.2309
     16  O         35.8550   -1.5990   33.2720 O.2    96  GLY96      -0.2863
     17  N         35.4770  -12.8020   25.3500 N.3   136  LYS136     -0.1245
     18  CA        36.1140  -11.4870   25.5100 C.3   136  LYS136      0.1561
     19  C         35.1720  -10.4020   26.0410 C.2   136  LYS136      0.2260
     20  O         35.4550   -9.2040   25.9370 O.2   136  LYS136     -0.2867
     21  CB        36.8460  -11.0550   24.2330 C.3   136  LYS136      0.0271
     22  CG        38.1070  -11.8560   23.9540 C.3   136  LYS136      0.0035
     23  CD        39.1470  -11.6260   25.0400 C.3   136  LYS136      0.0206
     24  CE        40.2590  -12.6550   24.9770 C.3   136  LYS136      0.1093
     25  NZ        41.3340  -12.3490   25.9610 N.3   136  LYS136     -0.1314
     26  N         32.8160   -9.1400   29.5960 N.3   138  SER138     -0.1217
     27  CA        33.1430   -8.9330   31.0000 C.3   138  SER138      0.1889
     28  C         32.2610   -9.7840   31.9110 C.2   138  SER138      0.2288
     29  O         31.1400  -10.1540   31.5490 O.2   138  SER138     -0.2866
     30  CB        33.0110   -7.4520   31.3720 C.3   138  SER138      0.2089
     31  OG        33.8090   -6.6340   30.5330 O.3   138  SER138     -0.2183
     32  N         36.2640   -7.7190   38.4950 N.3   145  SER145     -0.1202
     33  CA        36.0230   -7.4920   37.0720 C.3   145  SER145      0.2020
     34  C         37.0340   -8.2790   36.2520 C.2   145  SER145      0.2619
     35  O         38.2440   -8.0800   36.3870 O.2   145  SER145     -0.2717
     36  CB        36.1120   -6.0020   36.7340 C.3   145  SER145      0.2103
     37  OG        35.9080   -5.7830   35.3480 O.3   145  SER145     -0.2182
     38  N         36.5330   -9.1810   35.4130 N.am  146  LEU146     -0.1965
     39  CA        37.3940  -10.0890   34.6580 C.3   146  LEU146      0.1728
     40  C         36.9240  -10.2900   33.2220 C.2   146  LEU146      0.2616
     41  O         35.7230  -10.2570   32.9370 O.2   146  LEU146     -0.2715
     42  CB        37.4880  -11.4470   35.3650 C.3   146  LEU146      0.0311
     43  CG        38.2180  -11.5250   36.7100 C.3   146  LEU146      0.0022
     44  CD1       37.7630  -12.7540   37.4800 C.3   146  LEU146      0.0001
     45  CD2       39.7330  -11.5230   36.5270 C.3   146  LEU146      0.0001
     46  N         37.8890  -10.4960   32.3290 N.am  147  THR147     -0.1951
     47  CA        37.6220  -10.8140   30.9310 C.3   147  THR147      0.1897
     48  C         37.3760  -12.3120   30.7700 C.2   147  THR147      0.2313
     49  O         38.1590  -13.1320   31.2470 O.2   147  THR147     -0.2863
     50  CB        38.8100  -10.4200   30.0280 C.3   147  THR147      0.1794
     51  OG1       39.1160   -9.0330   30.2080 O.3   147  THR147     -0.2208
     52  CG2       38.4910  -10.6760   28.5600 C.3   147  THR147      0.0378
     53  N         37.9570  -15.1190   28.6840 N.3   149  ASN149     -0.1240
     54  CA        38.9430  -15.3530   27.6230 C.3   149  ASN149      0.1653
     55  C         38.5090  -16.3740   26.5790 C.2   149  ASN149      0.2266
     56  O         38.7890  -16.2170   25.3880 O.2   149  ASN149     -0.2867
     57  CB        40.3030  -15.7110   28.2200 C.3   149  ASN149      0.1155
     58  CG        40.9200  -14.5540   28.9830 C.2   149  ASN149      0.2627
     59  OD1       40.7320  -13.3880   28.6260 O.2   149  ASN149     -0.2716
     60  ND2       41.6580  -14.8690   30.0390 N.am  149  ASN149     -0.0877
     61  N         41.7380  -15.2770   33.4120 N.3   159  LEU159     -0.1245
     62  CA        43.1400  -15.2310   33.8010 C.3   159  LEU159      0.1561
     63  C         43.3160  -14.2140   34.9170 C.2   159  LEU159      0.2260
     64  O         42.9060  -13.0590   34.7860 O.2   159  LEU159     -0.2867
     65  CB        44.0230  -14.8930   32.5910 C.3   159  LEU159      0.0270
     66  CG        45.5530  -15.0650   32.6090 C.3   159  LEU159      0.0019
     67  CD1       46.2590  -13.8330   33.1600 C.3   159  LEU159      0.0001
     68  CD2       46.0090  -16.3310   33.3300 C.3   159  LEU159      0.0001
     69  N         45.8120  -12.0170   36.9640 N.3   161  ILE161     -0.1245
     70  CA        47.1390  -11.4050   36.9090 C.3   161  ILE161      0.1561
     71  C         47.7960  -11.4160   38.2930 C.2   161  ILE161      0.2260
     72  O         47.1020  -11.5020   39.3110 O.2   161  ILE161     -0.2867
     73  CB        47.0780   -9.9680   36.3350 C.3   161  ILE161      0.0252
     74  CG1       46.1940   -9.0650   37.2100 C.3   161  ILE161      0.0019
     75  CG2       46.5830   -9.9970   34.8930 C.3   161  ILE161      0.0019
     76  CD1       46.2120   -7.5960   36.8330 C.3   161  ILE161      0.0001
@<TRIPOS>BOND
     1    22    21    1
     2    22    23    1
     3    21    18    1
     4    24    23    1
     5    24    25    1
     6    17    18    1
     7    56    55    2
     8    18    19    1
     9    20    19    2
    10    55    54    1
    11    54    57    1
    12    54    53    1
    13    57    58    1
    14    52    50    1
    15    59    58    2
    16    58    60   am
    17    26    27    1
    18    50    51    1
    19    50    47    1
    20    31    30    1
    21    48    47    1
    22    48    49    2
    23    47    46    1
    24    27    30    1
    25    27    28    1
    26    29    28    2
    27    46    40   am
    28    65    66    1
    29    65    62    1
    30    66    67    1
    31    66    68    1
    32    41    40    2
    33    40    39    1
    34    16    15    2
    35    61    62    1
    36    62    63    1
    37    15    14    1
    38    12    11    2
    39    39    42    1
    40    39    38    1
    41    64    63    2
    42    75    73    1
    43    14    13    1
    44    37    36    1
    45    42    43    1
    46    11    13   am
    47    11    10    1
    48    38    34   am
    49    10     9    1
    50    34    35    2
    51    34    33    1
    52    73    70    1
    53    73    74    1
    54    45    43    1
    55    43    44    1
    56    36    33    1
    57    76    74    1
    58    70    69    1
    59    70    71    1
    60    33    32    1
    61    71    72    2
    62     8     6    1
    63     6     5    1
    64     5     7    1
    65     5     2    1
    66     1     2    1
    67     2     3    1
    68     3     4    2
