@<TRIPOS>MOLECULE
tmp/4g6iA00.pdb
 142 140 0 0 0
SMALL
GASTEIGER

@<TRIPOS>ATOM
      1  N         37.1510    1.2950   32.2070 N.3     1  MET1       -0.1230
      2  CA        36.5180    1.5410   30.8770 C.3     1  MET1        0.1702
      3  C         37.0330    2.8160   30.2200 C.2     1  MET1        0.2592
      4  O         37.5780    3.6970   30.8900 O.2     1  MET1       -0.2718
      5  CB        34.9820    1.5110   30.9650 C.3     1  MET1        0.0401
      6  CG        34.3750    2.1980   32.1780 C.3     1  MET1        0.0596
      7  SD        32.8820    1.3650   32.7680 S.3     1  MET1       -0.1393
      8  CE        31.7910    1.5550   31.3580 C.3     1  MET1        0.0692
      9  N         36.8700    2.8900   28.9020 N.am    2  PHE2       -0.1976
     10  CA        37.4850    3.9320   28.0820 C.3     2  PHE2        0.1639
     11  C         36.5410    4.3470   26.9530 C.2     2  PHE2        0.2290
     12  O         35.4790    3.7470   26.7660 O.2     2  PHE2       -0.2864
     13  CB        38.8180    3.4320   27.4990 C.3     2  PHE2        0.0560
     14  CG        39.7270    2.7830   28.5110 C.ar    2  PHE2       -0.0200
     15  CD1       39.6910    1.4070   28.7210 C.ar    2  PHE2       -0.0042
     16  CD2       40.6240    3.5460   29.2500 C.ar    2  PHE2       -0.0042
     17  CE1       40.5210    0.8070   29.6570 C.ar    2  PHE2       -0.0003
     18  CE2       41.4590    2.9520   30.1860 C.ar    2  PHE2       -0.0003
     19  CZ        41.4060    1.5820   30.3900 C.ar    2  PHE2       -0.0000
     20  N         43.7390    1.2320   36.0250 N.3    40  SER40      -0.1217
     21  CA        43.6780    0.7110   34.6670 C.3    40  SER40       0.1889
     22  C         44.0650    1.7840   33.6610 C.2    40  SER40       0.2288
     23  O         43.4790    2.8650   33.6460 O.2    40  SER40      -0.2866
     24  CB        42.2620    0.2220   34.3640 C.3    40  SER40       0.2089
     25  OG        41.9150   -0.8740   35.1830 O.3    40  SER40      -0.2183
     26  N         45.0600   -2.2170   24.9710 N.3    46  VAL46      -0.1231
     27  CA        45.1290   -3.2670   25.9850 C.3    46  VAL46       0.1692
     28  C         45.0270   -2.6550   27.3790 C.2    46  VAL46       0.2592
     29  O         45.8650   -1.8420   27.7700 O.2    46  VAL46      -0.2718
     30  CB        46.4260   -4.1020   25.8800 C.3    46  VAL46       0.0266
     31  CG1       46.3340   -5.3390   26.7630 C.3    46  VAL46       0.0020
     32  CG2       46.6900   -4.5070   24.4370 C.3    46  VAL46       0.0020
     33  N         43.9980   -3.0450   28.1260 N.am   47  CYS47      -0.1956
     34  CA        43.8830   -2.6000   29.5100 C.3    47  CYS47       0.1843
     35  C         44.9180   -3.3290   30.3540 C.2    47  CYS47       0.2625
     36  O         44.9580   -4.5590   30.3770 O.2    47  CYS47      -0.2714
     37  CB        42.4850   -2.8360   30.0710 C.3    47  CYS47       0.0997
     38  SG        42.2170   -1.9800   31.6420 S.3    47  CYS47      -0.0797
     39  N         45.7560   -2.5510   31.0290 N.am   48  LEU48      -0.1963
     40  CA        46.8210   -3.0720   31.8800 C.3    48  LEU48       0.1728
     41  C         46.7570   -2.3970   33.2450 C.2    48  LEU48       0.2616
     42  O         46.3050   -1.2570   33.3580 O.2    48  LEU48      -0.2715
     43  CB        48.1830   -2.8170   31.2270 C.3    48  LEU48       0.0311
     44  CG        48.9210   -3.8610   30.3660 C.3    48  LEU48       0.0022
     45  CD1       48.1380   -5.1340   30.0600 C.3    48  LEU48       0.0001
     46  CD2       49.4460   -3.2090   29.0940 C.3    48  LEU48       0.0001
     47  N         47.2170   -3.1040   34.2740 N.am   49  THR49      -0.1951
     48  CA        47.1210   -2.6300   35.6540 C.3    49  THR49       0.1897
     49  C         48.4580   -2.0820   36.1610 C.2    49  THR49       0.2313
     50  O         49.4900   -2.7520   36.0690 O.2    49  THR49      -0.2863
     51  CB        46.5960   -3.7520   36.5800 C.3    49  THR49       0.1794
     52  OG1       45.3270   -4.2110   36.0950 O.3    49  THR49      -0.2208
     53  CG2       46.4300   -3.2610   38.0120 C.3    49  THR49       0.0378
     54  N         52.4030   -5.1070   34.1930 N.3    66  GLU66      -0.1231
     55  CA        52.8540   -6.4750   33.9740 C.3    66  GLU66       0.1699
     56  C         51.9160   -7.1780   32.9990 C.2    66  GLU66       0.2592
     57  O         50.7390   -7.3780   33.3000 O.2    66  GLU66      -0.2718
     58  CB        52.9320   -7.2340   35.3050 C.3    66  GLU66       0.0402
     59  CG        53.8960   -6.6130   36.3100 C.3    66  GLU66       0.1161
     60  CD        53.9220   -7.3250   37.6520 C.2    66  GLU66       0.3649
     61  OE1       52.9460   -8.0200   38.0030 O.co2  66  GLU66      -0.2457
     62  OE2       54.9310   -7.1800   38.3700 O.co2  66  GLU66      -0.2457
     63  N         52.4440   -7.5340   31.8280 N.am   67  ALA67      -0.1966
     64  CA        51.6770   -8.2450   30.8030 C.3    67  ALA67       0.1728
     65  C         51.9090   -9.7490   30.9010 C.2    67  ALA67       0.2616
     66  O         53.0500  -10.2110   30.8530 O.2    67  ALA67      -0.2715
     67  CB        52.0450   -7.7380   29.4150 C.3    67  ALA67       0.0334
     68  N         50.8230  -10.5060   31.0350 N.am   68  TRP68      -0.1974
     69  CA        50.9040  -11.9590   31.2070 C.3    68  TRP68       0.1640
     70  C         50.5020  -12.7060   29.9600 C.2    68  TRP68       0.2290
     71  O         50.2970  -12.0890   28.9140 O.2    68  TRP68      -0.2864
     72  CB        50.1230  -12.3890   32.4480 C.3    68  TRP68       0.0576
     73  CG        50.6330  -11.6770   33.6790 C.ar   68  TRP68       0.0006
     74  CD1       50.0580  -10.5930   34.3350 C.ar   68  TRP68       0.0946
     75  CD2       51.8830  -11.9420   34.4060 C.ar   68  TRP68       0.0152
     76  NE1       50.8290  -10.1970   35.4000 N.ar   68  TRP68      -0.2442
     77  CE2       51.9380  -10.9630   35.4980 C.ar   68  TRP68       0.0810
     78  CE3       52.9170  -12.8660   34.2750 C.ar   68  TRP68       0.0012
     79  CZ2       52.9900  -10.9270   36.4000 C.ar   68  TRP68       0.0191
     80  CZ3       53.9720  -12.8200   35.1950 C.ar   68  TRP68       0.0001
     81  CH2       54.0040  -11.8750   36.2310 C.ar   68  TRP68       0.0015
     82  N         47.9680  -14.2200   28.3990 N.3    70  GLU70      -0.1231
     83  CA        46.8090  -13.9220   27.5490 C.3    70  GLU70       0.1699
     84  C         47.0120  -12.6500   26.7220 C.2    70  GLU70       0.2592
     85  O         46.7690  -12.6480   25.5130 O.2    70  GLU70      -0.2718
     86  CB        45.5170  -13.8470   28.3770 C.3    70  GLU70       0.0402
     87  CG        44.2480  -13.5670   27.5750 C.3    70  GLU70       0.1161
     88  CD        43.8350  -14.7050   26.6510 C.2    70  GLU70       0.3649
     89  OE1       44.2650  -15.8590   26.8660 O.co2  70  GLU70      -0.2457
     90  OE2       43.0630  -14.4450   25.7050 O.co2  70  GLU70      -0.2457
     91  N         47.4580  -11.5820   27.3810 N.am   71  ALA71      -0.1980
     92  CA        47.7640  -10.3240   26.7060 C.3    71  ALA71       0.1597
     93  C         48.9420  -10.4800   25.7430 C.2    71  ALA71       0.2287
     94  O         48.9130   -9.9480   24.6360 O.2    71  ALA71      -0.2864
     95  CB        48.0410   -9.2250   27.7220 C.3    71  ALA71       0.0319
     96  N         47.7390  -12.8140   22.5560 N.3    74  LEU74      -0.1231
     97  CA        46.6600  -12.2980   21.7190 C.3    74  LEU74       0.1693
     98  C         46.9350  -10.9090   21.1350 C.2    74  LEU74       0.2592
     99  O         46.5100  -10.6130   20.0170 O.2    74  LEU74      -0.2718
    100  CB        45.3440  -12.3000   22.5020 C.3    74  LEU74       0.0284
    101  CG        44.0180  -12.2440   21.7390 C.3    74  LEU74       0.0019
    102  CD1       43.7920  -13.4850   20.8860 C.3    74  LEU74       0.0001
    103  CD2       42.8820  -12.0800   22.7310 C.3    74  LEU74       0.0001
    104  N         47.6380  -10.0650   21.8870 N.am   75  THR75      -0.1953
    105  CA        47.8510   -8.6690   21.4900 C.3    75  THR75       0.1897
    106  C         49.2580   -8.4090   20.9470 C.2    75  THR75       0.2313
    107  O         50.1210   -9.2820   20.9960 O.2    75  THR75      -0.2863
    108  CB        47.5780   -7.6870   22.6510 C.3    75  THR75       0.1794
    109  OG1       48.7030   -7.6640   23.5410 O.3    75  THR75      -0.2208
    110  CG2       46.3150   -8.0730   23.4180 C.3    75  THR75       0.0378
    111  N         36.6690   -1.2020   26.4000 N.3   104  PHE104     -0.1227
    112  CA        36.9290   -1.8130   27.7030 C.3   104  PHE104      0.1736
    113  C         38.3680   -2.2750   27.8950 C.2   104  PHE104      0.2596
    114  O         38.8120   -2.5070   29.0200 O.2   104  PHE104     -0.2718
    115  CB        35.9370   -2.9450   27.9650 C.3   104  PHE104      0.0547
    116  CG        34.5350   -2.4620   28.2030 C.ar  104  PHE104     -0.0202
    117  CD1       34.0960   -2.1760   29.4900 C.ar  104  PHE104     -0.0042
    118  CD2       33.6610   -2.2680   27.1370 C.ar  104  PHE104     -0.0042
    119  CE1       32.8080   -1.7170   29.7130 C.ar  104  PHE104     -0.0003
    120  CE2       32.3720   -1.8070   27.3530 C.ar  104  PHE104     -0.0003
    121  CZ        31.9450   -1.5310   28.6430 C.ar  104  PHE104     -0.0000
    122  N         39.1010   -2.3990   26.7950 N.am  105  GLY105     -0.1942
    123  CA        40.4990   -2.7860   26.8760 C.3   105  GLY105      0.2014
    124  C         40.7250   -4.2840   26.9270 C.2   105  GLY105      0.2639
    125  O         41.8550   -4.7280   27.1290 O.2   105  GLY105     -0.2714
    126  N         39.6570   -5.0640   26.7650 N.am  106  HIS106     -0.1959
    127  CA        39.8170   -6.4880   26.4840 C.3   106  HIS106      0.1787
    128  C         39.8370   -6.7200   24.9980 C.2   106  HIS106      0.2620
    129  O         38.7950   -6.8140   24.3430 O.2   106  HIS106     -0.2715
    130  CB        38.8100   -7.3830   27.2180 C.3   106  HIS106      0.0785
    131  CG        37.3800   -6.8830   27.2010 C.ar  106  HIS106      0.0821
    132  ND1       36.7380   -6.5360   26.0680 N.ar  106  HIS106     -0.2267
    133  CD2       36.4590   -6.7280   28.2370 C.ar  106  HIS106      0.1154
    134  CE1       35.4810   -6.1540   26.3650 C.ar  106  HIS106      0.1986
    135  NE2       35.3110   -6.2740   27.6920 N.ar  106  HIS106     -0.2212
    136  N         41.0560   -6.7850   24.4690 N.am  107  VAL107     -0.1977
    137  CA        41.3200   -6.8940   23.0360 C.3   107  VAL107      0.1596
    138  C         40.9080   -8.2710   22.5190 C.2   107  VAL107      0.2287
    139  O         41.2180   -9.2890   23.1350 O.2   107  VAL107     -0.2864
    140  CB        42.8130   -6.6110   22.7440 C.3   107  VAL107      0.0276
    141  CG1       43.1810   -6.9550   21.3090 C.3   107  VAL107      0.0022
    142  CG2       43.1430   -5.1540   23.0350 C.3   107  VAL107      0.0022
@<TRIPOS>BOND
     1    99    98    2
     2   102   101    1
     3   106   107    2
     4   106   105    1
     5    98    97    1
     6    98   104   am
     7   141   140    1
     8   105   104    1
     9   105   108    1
    10    97   100    1
    11    97    96    1
    12   101   100    1
    13   101   103    1
    14   138   137    1
    15   138   139    2
    16   108   110    1
    17   108   109    1
    18   140   142    1
    19   140   137    1
    20   137   136    1
    21   129   128    2
    22    32    30    1
    23   136   128   am
    24    94    93    2
    25    26    27    1
    26   128   127    1
    27    85    84    2
    28    90    88   ar
    29    93    92    1
    30    30    27    1
    31    30    31    1
    32    27    28    1
    33   132   134   ar
    34   132   131   ar
    35   134   135   ar
    36   111   112    1
    37   127   126    1
    38   127   130    1
    39    88    89   ar
    40    88    87    1
    41    92    91    1
    42    92    95    1
    43    84    91   am
    44    84    83    1
    45   126   124   am
    46    12    11    2
    47   122   123    1
    48   122   113   am
    49   123   124    1
    50   124   125    2
    51    11    10    1
    52   118   120   ar
    53   118   116   ar
    54   131   130    1
    55   131   133   ar
    56   120   121   ar
    57    28    29    2
    58    28    33   am
    59    13    10    1
    60    13    14    1
    61    83    86    1
    62    83    82    1
    63    87    86    1
    64   135   133   ar
    65   112   113    1
    66   112   115    1
    67   113   114    2
    68   115   116    1
    69    10     9    1
    70    33    34    1
    71   116   117   ar
    72    14    15   ar
    73    14    16   ar
    74   121   119   ar
    75    15    17   ar
    76     9     3   am
    77    71    70    2
    78    46    44    1
    79    16    18   ar
    80    67    64    1
    81   117   119   ar
    82    34    37    1
    83    34    35    1
    84    17    19   ar
    85    70    69    1
    86    45    44    1
    87    37    38    1
    88    18    19   ar
    89     3     2    1
    90     3     4    2
    91    35    36    2
    92    35    39   am
    93    44    43    1
    94    64    65    1
    95    64    63    1
    96    66    65    2
    97     2     5    1
    98     2     1    1
    99    65    68   am
   100     5     6    1
   101    39    40    1
   102    68    69    1
   103    69    72    1
   104    43    40    1
   105     8     7    1
   106    63    56   am
   107    40    41    1
   108     6     7    1
   109    72    73    1
   110    56    57    2
   111    56    55    1
   112    41    42    2
   113    41    47   am
   114    23    22    2
   115    22    21    1
   116    73    74   ar
   117    73    75   ar
   118    55    54    1
   119    55    58    1
   120    47    48    1
   121    78    75   ar
   122    78    80   ar
   123    74    76   ar
   124    24    21    1
   125    24    25    1
   126    75    77   ar
   127    21    20    1
   128    80    81   ar
   129    58    59    1
   130    76    77   ar
   131    77    79   ar
   132    48    49    1
   133    48    51    1
   134    50    49    2
   135    52    51    1
   136    81    79   ar
   137    59    60    1
   138    51    53    1
   139    60    61   ar
   140    60    62   ar
