@<TRIPOS>MOLECULE
tmp/4g6nA00.pdb
 117 108 0 0 0
SMALL
GASTEIGER

@<TRIPOS>ATOM
      1  N         24.3840   12.8280   18.0880 N.3    21  ILE21      -0.1245
      2  CA        24.0670   12.3120   16.7470 C.3    21  ILE21       0.1561
      3  C         22.8610   13.0820   16.1710 C.2    21  ILE21       0.2260
      4  O         22.9310   13.5550   15.0340 O.2    21  ILE21      -0.2867
      5  CB        23.8370   10.7630   16.7110 C.3    21  ILE21       0.0252
      6  CG1       25.1140    9.9890   17.1150 C.3    21  ILE21       0.0019
      7  CG2       23.3110   10.2930   15.3250 C.3    21  ILE21       0.0019
      8  CD1       24.9740    8.4480   17.0940 C.3    21  ILE21       0.0001
      9  N         19.7260   11.4830   20.9430 N.3    29  VAL29      -0.1245
     10  CA        20.4810   10.3260   20.4670 C.3    29  VAL29       0.1561
     11  C         21.9600   10.7180   20.5120 C.2    29  VAL29       0.2260
     12  O         22.3240   11.8420   20.1520 O.2    29  VAL29      -0.2867
     13  CB        20.0320    9.8200   19.0630 C.3    29  VAL29       0.0252
     14  CG1       20.8060    8.5720   18.6410 C.3    29  VAL29       0.0019
     15  CG2       18.5280    9.5440   19.0290 C.3    29  VAL29       0.0019
     16  N         25.2610    3.2220   19.9530 N.3    42  ALA42      -0.1245
     17  CA        24.2270    4.2490   19.8590 C.3    42  ALA42       0.1562
     18  C         23.3770    4.1920   21.1260 C.2    42  ALA42       0.2260
     19  O         23.0760    3.0940   21.6180 O.2    42  ALA42      -0.2867
     20  CB        23.3580    4.0220   18.6180 C.3    42  ALA42       0.0290
     21  N         19.8550    6.0390   22.8030 N.3    44  LYS44      -0.1245
     22  CA        18.6530    6.8440   22.6630 C.3    44  LYS44       0.1561
     23  C         18.0680    7.1470   24.0700 C.2    44  LYS44       0.2260
     24  O         17.7170    6.2180   24.8030 O.2    44  LYS44      -0.2867
     25  CB        17.6360    6.0820   21.7770 C.3    44  LYS44       0.0271
     26  CG        16.4270    6.8950   21.3340 C.3    44  LYS44       0.0035
     27  CD        15.3470    6.0240   20.6900 C.3    44  LYS44       0.0206
     28  CE        14.0630    6.8010   20.4840 C.3    44  LYS44       0.1093
     29  NZ        12.8630    5.9190   20.4170 N.3    44  LYS44      -0.1314
     30  N         17.0900   -4.0900   14.2310 N.3    74  ILE74      -0.1245
     31  CA        17.9110   -3.5510   15.3200 C.3    74  ILE74       0.1561
     32  C         17.5410   -4.2300   16.6640 C.2    74  ILE74       0.2260
     33  O         16.3620   -4.3880   17.0100 O.2    74  ILE74      -0.2867
     34  CB        17.7950   -1.9930   15.4040 C.3    74  ILE74       0.0252
     35  CG1       18.9860   -1.3740   16.1640 C.3    74  ILE74       0.0019
     36  CG2       16.4500   -1.5310   15.9810 C.3    74  ILE74       0.0019
     37  CD1       20.3360   -1.3520   15.3590 C.3    74  ILE74       0.0001
     38  N         21.9440    0.4460   21.5770 N.3    95  GLN95      -0.1231
     39  CA        21.8310   -0.3760   20.3700 C.3    95  GLN95       0.1698
     40  C         23.1400   -0.3250   19.5630 C.2    95  GLN95       0.2592
     41  O         23.9890    0.5470   19.8140 O.2    95  GLN95      -0.2718
     42  CB        20.6220    0.0880   19.5190 C.3    95  GLN95       0.0381
     43  CG        19.2880    0.0330   20.2850 C.3    95  GLN95       0.0905
     44  CD        18.0950    0.5460   19.5290 C.2    95  GLN95       0.2608
     45  OE1       17.9300    1.7340   19.3200 O.2    95  GLN95      -0.2717
     46  NE2       17.2030   -0.3380   19.1480 N.am   95  GLN95      -0.0878
     47  N         23.3090   -1.2610   18.6090 N.am   96  ASP96      -0.1960
     48  CA        24.4860   -1.2650   17.7260 C.3    96  ASP96       0.1840
     49  C         24.5980    0.0820   17.0260 C.2    96  ASP96       0.2622
     50  O         23.5790    0.6450   16.5960 O.2    96  ASP96      -0.2715
     51  CB        24.3790   -2.3840   16.6740 C.3    96  ASP96       0.1450
     52  CG        24.4140   -3.7860   17.2240 C.2    96  ASP96       0.3671
     53  OD1       24.9030   -3.9680   18.3640 O.co2  96  ASP96      -0.2456
     54  OD2       23.9520   -4.7050   16.5190 O.co2  96  ASP96      -0.2456
     55  N         25.8120    0.6240   16.9570 N.am   97  LEU97      -0.1963
     56  CA        26.0250    1.9010   16.2800 C.3    97  LEU97       0.1728
     57  C         26.0670    1.6370   14.7860 C.2    97  LEU97       0.2616
     58  O         26.7830    0.7460   14.3270 O.2    97  LEU97      -0.2715
     59  CB        27.3160    2.6070   16.7650 C.3    97  LEU97       0.0311
     60  CG        27.6420    3.9850   16.1410 C.3    97  LEU97       0.0022
     61  CD1       26.6930    5.0550   16.6160 C.3    97  LEU97       0.0001
     62  CD2       29.0710    4.4220   16.4710 C.3    97  LEU97       0.0001
     63  N         25.2740    2.3890   14.0360 N.am   98  MET98      -0.1963
     64  CA        25.2380    2.2150   12.5970 C.3    98  MET98       0.1736
     65  C         25.8610    3.4630   11.9700 C.2    98  MET98       0.2616
     66  O         25.9640    4.4760   12.6510 O.2    98  MET98      -0.2715
     67  CB        23.7920    1.9300   12.1400 C.3    98  MET98       0.0427
     68  CG        23.1860    0.6950   12.8210 C.3    98  MET98       0.0599
     69  SD        23.9080   -0.8850   12.2470 S.3    98  MET98      -0.1393
     70  CE        22.9490   -1.1260   10.7640 C.3    98  MET98       0.0692
     71  N         26.3600    3.3740   10.7330 N.am   99  GLU99      -0.1963
     72  CA        27.0240    4.5120   10.0710 C.3    99  GLU99       0.1733
     73  C         26.0070    5.6040    9.6710 C.2    99  GLU99       0.2617
     74  O         26.2610    6.7910    9.8990 O.2    99  GLU99      -0.2715
     75  CB        27.8350    4.0430    8.8300 C.3    99  GLU99       0.0429
     76  CG        28.3530    5.1940    7.9740 C.3    99  GLU99       0.1163
     77  CD        29.5060    4.9240    7.0310 C.2    99  GLU99       0.3649
     78  OE1       30.5660    5.5640    7.2060 O.co2  99  GLU99      -0.2457
     79  OE2       29.3410    4.1170    6.0890 O.co2  99  GLU99      -0.2457
     80  N         24.8620    5.1990    9.0870 N.am  100  THR100     -0.1937
     81  CA        23.8600    6.1430    8.5920 C.3   100  THR100      0.2028
     82  C         22.4810    5.4610    8.4800 C.2   100  THR100      0.2642
     83  O         22.2940    4.3430    8.9430 O.2   100  THR100     -0.2714
     84  CB        24.3550    6.6780    7.1920 C.3   100  THR100      0.1808
     85  OG1       23.5180    7.7310    6.7360 O.3   100  THR100     -0.2208
     86  CG2       24.4630    5.5810    6.1200 C.3   100  THR100      0.0379
     87  N         21.5240    6.1520    7.8820 N.am  101  ASP101     -0.1971
     88  CA        20.2140    5.5870    7.5730 C.3   101  ASP101      0.1709
     89  C         19.9960    5.7780    6.0790 C.2   101  ASP101      0.2293
     90  O         20.7290    6.5580    5.4570 O.2   101  ASP101     -0.2864
     91  CB        19.0870    6.1670    8.4390 C.3   101  ASP101      0.1436
     92  CG        18.8890    7.6750    8.4140 C.2   101  ASP101      0.3671
     93  OD1       18.6300    8.2170    7.3340 O.co2 101  ASP101     -0.2456
     94  OD2       18.8280    8.2770    9.4950 O.co2 101  ASP101     -0.2456
     95  N         19.3600    9.6640    4.8780 N.3   104  LYS104     -0.1245
     96  CA        20.5920   10.4610    4.7510 C.3   104  LYS104      0.1561
     97  C         21.3850   10.0350    3.5270 C.2   104  LYS104      0.2260
     98  O         21.8580   10.8900    2.7830 O.2   104  LYS104     -0.2867
     99  CB        21.4680   10.3080    6.0080 C.3   104  LYS104      0.0271
    100  CG        20.8270   10.8500    7.2890 C.3   104  LYS104      0.0035
    101  CD        21.7600   10.7530    8.5030 C.3   104  LYS104      0.0206
    102  CE        22.6360   11.9800    8.6680 C.3   104  LYS104      0.1093
    103  NZ        23.5250   11.8820    9.8580 N.3   104  LYS104     -0.1314
    104  N         18.4710    1.4890    9.0270 N.3   146  LEU146     -0.1245
    105  CA        19.8360    1.8250    9.4210 C.3   146  LEU146      0.1561
    106  C         20.8330    1.0230    8.6360 C.2   146  LEU146      0.2260
    107  O         20.5880   -0.1320    8.3080 O.2   146  LEU146     -0.2867
    108  CB        20.0440    1.6090   10.9260 C.3   146  LEU146      0.0270
    109  CG        18.9640    2.2150   11.8400 C.3   146  LEU146      0.0019
    110  CD1       19.1890    1.8000   13.2850 C.3   146  LEU146      0.0001
    111  CD2       18.9040    3.7420   11.7100 C.3   146  LEU146      0.0001
    112  N         14.4460   -0.3710   12.0590 N.3   155  CYS155     -0.1235
    113  CA        14.2750    0.1530   13.4110 C.3   155  CYS155      0.1677
    114  C         12.9030    0.8390   13.5270 C.2   155  CYS155      0.2270
    115  O         12.1730    0.8930   12.5530 O.2   155  CYS155     -0.2867
    116  CB        15.4230    1.1110   13.7530 C.3   155  CYS155      0.0956
    117  SG        15.3620    2.6940   12.8630 S.3   155  CYS155     -0.0801
@<TRIPOS>BOND
     1    98    97    2
     2    97    96    1
     3    96    95    1
     4    96    99    1
     5    90    89    2
     6    99   100    1
     7    89    88    1
     8    79    77   ar
     9    86    84    1
    10    85    84    1
    11    77    78   ar
    12    77    76    1
    13    84    81    1
    14   100   101    1
    15    93    92   ar
    16    88    87    1
    17    88    91    1
    18    87    82   am
    19    76    75    1
    20   107   106    2
    21    92    91    1
    22    92    94   ar
    23    82    81    1
    24    82    83    2
    25   101   102    1
    26    81    80    1
    27   106   105    1
    28   102   103    1
    29    75    72    1
    30   104   105    1
    31    80    73   am
    32   105   108    1
    33    73    74    2
    34    73    72    1
    35    72    71    1
    36    71    65   am
    37    70    69    1
    38   108   109    1
    39   111   109    1
    40   109   110    1
    41    65    64    1
    42    65    66    2
    43   112   113    1
    44    67    64    1
    45    67    68    1
    46    69    68    1
    47   115   114    2
    48    64    63    1
    49   117   116    1
    50   113   114    1
    51   113   116    1
    52    63    57   am
    53    30    31    1
    54    58    57    2
    55    57    56    1
    56     4     3    2
    57    31    34    1
    58    31    32    1
    59     7     5    1
    60    37    35    1
    61    34    36    1
    62    34    35    1
    63    60    62    1
    64    60    61    1
    65    60    59    1
    66     3     2    1
    67    56    59    1
    68    56    55    1
    69    54    52   ar
    70    50    49    2
    71    32    33    2
    72    51    52    1
    73    51    48    1
    74     5     2    1
    75     5     6    1
    76     2     1    1
    77    55    49   am
    78    49    48    1
    79     8     6    1
    80    52    53   ar
    81    48    47    1
    82    47    40   am
    83    20    17    1
    84    14    13    1
    85    15    13    1
    86    13    10    1
    87    46    44   am
    88    45    44    2
    89    42    43    1
    90    42    39    1
    91    44    43    1
    92    40    41    2
    93    40    39    1
    94    17    16    1
    95    17    18    1
    96    12    11    2
    97    39    38    1
    98    29    28    1
    99    10    11    1
   100    10     9    1
   101    28    27    1
   102    27    26    1
   103    18    19    2
   104    26    25    1
   105    25    22    1
   106    22    21    1
   107    22    23    1
   108    23    24    2
