@<TRIPOS>MOLECULE
tmp/4g6oA00.pdb
 176 163 0 0 0
SMALL
GASTEIGER

@<TRIPOS>ATOM
      1  N         23.2480   12.6560   18.4160 N.3    21  ILE21      -0.1231
      2  CA        22.8630   12.1210   17.0990 C.3    21  ILE21       0.1692
      3  C         21.6180   12.8790   16.5810 C.2    21  ILE21       0.2593
      4  O         21.7270   13.6200   15.6050 O.2    21  ILE21      -0.2718
      5  CB        22.6690   10.5670   17.1080 C.3    21  ILE21       0.0266
      6  CG1       24.0100    9.8380   17.4230 C.3    21  ILE21       0.0019
      7  CG2       22.0590   10.0720   15.7700 C.3    21  ILE21       0.0020
      8  CD1       23.9380    8.2970   17.6430 C.3    21  ILE21       0.0001
      9  N         20.4730   12.6900   17.2370 N.am   22  GLY22      -0.1942
     10  CA        19.2090   13.3210   16.8670 C.3    22  GLY22       0.2014
     11  C         18.1190   13.1750   17.9130 C.2    22  GLY22       0.2641
     12  O         18.3980   12.7870   19.0540 O.2    22  GLY22      -0.2714
     13  N         16.8610   13.4980   17.5300 N.am   23  GLU23      -0.1931
     14  CA        15.6950   13.4690   18.4270 C.3    23  GLU23       0.1818
     15  C         14.4650   12.8770   17.7240 C.2    23  GLU23       0.2332
     16  O         13.3930   12.7500   18.3270 O.2    23  GLU23      -0.2860
     17  CB        15.3770   14.8930   18.9420 C.2    23  GLU23       0.0097
     18  CG        16.4670   15.5290   19.7960 C.2    23  GLU23       0.0837
     19  CD        16.2060   16.9310   20.3160 C.2    23  GLU23       0.3877
     20  OE1       15.3080   17.6210   19.7800 O.co2  23  GLU23      -0.2406
     21  OE2       16.9220   17.3500   21.2530 O.co2  23  GLU23      -0.2406
     22  N          8.5920   10.9620   23.5430 N.3    24  TYR24      -0.1227
     23  CA         9.6770   11.6540   22.8470 C.3    24  TYR24       0.1740
     24  C         11.0160   11.4870   23.5980 C.2    24  TYR24       0.2635
     25  O         11.0410   10.8860   24.6740 O.2    24  TYR24      -0.2714
     26  CB         9.3290   13.1450   22.6740 C.3    24  TYR24       0.0548
     27  CG         8.9910   13.8850   23.9430 C.ar   24  TYR24      -0.0200
     28  CD1       10.0010   14.4570   24.7190 C.ar   24  TYR24      -0.0009
     29  CD2        7.6760   14.0420   24.3700 C.ar   24  TYR24      -0.0009
     30  CE1        9.7110   15.1410   25.8860 C.ar   24  TYR24       0.0417
     31  CE2        7.3710   14.7270   25.5310 C.ar   24  TYR24       0.0417
     32  CZ         8.3940   15.2750   26.2770 C.ar   24  TYR24       0.1957
     33  OH         8.1080   15.9470   27.4470 O.3    24  TYR24      -0.2866
     34  N         12.1030   12.0090   23.0190 N.am   25  GLY25      -0.1732
     35  CA        13.4370   11.9500   23.6100 C.2    25  GLY25       0.1340
     36  C         14.6120   12.1530   22.6660 C.2    25  GLY25       0.2521
     37  O         14.4290   12.4390   21.4810 O.2    25  GLY25      -0.2816
     38  N         18.8190   10.8320   21.3400 N.3    27  VAL27      -0.1245
     39  CA        19.6500    9.6800   20.9720 C.3    27  VAL27       0.1561
     40  C         21.1220   10.1290   20.9200 C.2    27  VAL27       0.2260
     41  O         21.4270   11.1760   20.3430 O.2    27  VAL27      -0.2867
     42  CB        19.1960    9.0060   19.6370 C.3    27  VAL27       0.0252
     43  CG1       20.1370    7.8730   19.2280 C.3    27  VAL27       0.0019
     44  CG2       17.7670    8.4850   19.7390 C.3    27  VAL27       0.0019
     45  N         24.4940    2.7880   20.5190 N.3    40  ALA40      -0.1245
     46  CA        23.5410    3.8830   20.3580 C.3    40  ALA40       0.1562
     47  C         22.5800    3.8080   21.5250 C.2    40  ALA40       0.2260
     48  O         22.1800    2.7140   21.9280 O.2    40  ALA40      -0.2867
     49  CB        22.7960    3.7710   19.0270 C.3    40  ALA40       0.0290
     50  N         19.0790    5.6270   23.2330 N.3    42  LYS42      -0.1245
     51  CA        17.9000    6.4560   23.0550 C.3    42  LYS42       0.1561
     52  C         17.2420    6.7230   24.4090 C.2    42  LYS42       0.2260
     53  O         16.6960    5.8060   25.0340 O.2    42  LYS42      -0.2867
     54  CB        16.9170    5.7670   22.0840 C.3    42  LYS42       0.0271
     55  CG        15.5550    6.4390   21.9720 C.3    42  LYS42       0.0035
     56  CD        14.7250    5.8410   20.8430 C.3    42  LYS42       0.0206
     57  CE        14.1250    4.5020   21.1930 C.3    42  LYS42       0.1093
     58  NZ        13.0570    4.1420   20.2380 N.3    42  LYS42      -0.1314
     59  N         14.2860    8.1740   26.4330 N.3    44  ILE44      -0.1245
     60  CA        12.9040    8.5330   26.1860 C.3    44  ILE44       0.1561
     61  C         12.2590    8.9380   27.5070 C.2    44  ILE44       0.2260
     62  O         12.5360    8.3380   28.5550 O.2    44  ILE44      -0.2867
     63  CB        12.0670    7.4950   25.3930 C.3    44  ILE44       0.0252
     64  CG1       12.2710    6.0720   25.8810 C.3    44  ILE44       0.0019
     65  CG2       12.3340    7.6040   23.8870 C.3    44  ILE44       0.0019
     66  CD1       11.2020    5.6450   26.7050 C.3    44  ILE44       0.0001
     67  N          7.0450   -1.1230   21.4180 N.3    59  GLU59      -0.1245
     68  CA         8.3520   -1.2720   20.8080 C.3    59  GLU59       0.1567
     69  C          9.2690   -2.1230   21.6880 C.2    59  GLU59       0.2260
     70  O          9.9580   -3.0080   21.1780 O.2    59  GLU59      -0.2867
     71  CB         8.9970    0.0820   20.5120 C.3    59  GLU59       0.0388
     72  CG        10.4800   -0.0670   20.2590 C.3    59  GLU59       0.1160
     73  CD        11.2040    1.1280   19.7040 C.2    59  GLU59       0.3649
     74  OE1       11.6170    1.9840   20.5150 O.co2  59  GLU59      -0.2457
     75  OE2       11.4600    1.1460   18.4790 O.co2  59  GLU59      -0.2457
     76  N         16.7060   -4.0150   14.3400 N.3    72  ILE72      -0.1245
     77  CA        17.4260   -3.4260   15.4720 C.3    72  ILE72       0.1561
     78  C         17.0660   -4.1900   16.7990 C.2    72  ILE72       0.2260
     79  O         15.9150   -4.5690   17.0530 O.2    72  ILE72      -0.2867
     80  CB        17.1270   -1.9030   15.5790 C.3    72  ILE72       0.0252
     81  CG1       18.2430   -1.1770   16.3610 C.3    72  ILE72       0.0019
     82  CG2       15.7380   -1.6330   16.1860 C.3    72  ILE72       0.0019
     83  CD1       18.0150    0.3060   16.5010 C.3    72  ILE72       0.0001
     84  N         20.8650    0.2560   21.8940 N.3    93  GLN93      -0.1231
     85  CA        20.6680   -0.5000   20.6620 C.3    93  GLN93       0.1698
     86  C         21.9290   -0.5060   19.8290 C.2    93  GLN93       0.2592
     87  O         22.9450    0.0520   20.2390 O.2    93  GLN93      -0.2718
     88  CB        19.5000    0.1080   19.8630 C.3    93  GLN93       0.0381
     89  CG        18.1950    0.1000   20.6320 C.3    93  GLN93       0.0905
     90  CD        17.0590    0.7810   19.9310 C.2    93  GLN93       0.2608
     91  OE1       16.9890    2.0130   19.8540 O.2    93  GLN93      -0.2717
     92  NE2       16.0710    0.0090   19.5280 N.am   93  GLN93      -0.0878
     93  N         21.8660   -1.1820   18.6740 N.am   94  ASP94      -0.1960
     94  CA        22.9310   -1.2430   17.6940 C.3    94  ASP94       0.1840
     95  C         23.3010    0.1760   17.2340 C.2    94  ASP94       0.2622
     96  O         22.4120    0.9870   16.9720 O.2    94  ASP94      -0.2715
     97  CB        22.4580   -2.0870   16.4810 C.3    94  ASP94       0.1450
     98  CG        22.4240   -3.5890   16.7430 C.2    94  ASP94       0.3671
     99  OD1       23.5150   -4.1790   16.9800 O.co2  94  ASP94      -0.2456
    100  OD2       21.3120   -4.1850   16.6650 O.co2  94  ASP94      -0.2456
    101  N         24.6000    0.4820   17.1730 N.am   95  LEU95      -0.1963
    102  CA        25.0580    1.7620   16.6540 C.3    95  LEU95       0.1728
    103  C         25.2440    1.5920   15.1700 C.2    95  LEU95       0.2616
    104  O         25.8680    0.6220   14.7290 O.2    95  LEU95      -0.2715
    105  CB        26.3590    2.2520   17.3290 C.3    95  LEU95       0.0311
    106  CG        26.9650    3.5710   16.8010 C.3    95  LEU95       0.0022
    107  CD1       25.9840    4.7330   16.8810 C.3    95  LEU95       0.0001
    108  CD2       28.2190    3.9140   17.5670 C.3    95  LEU95       0.0001
    109  N         24.6430    2.4790   14.3920 N.am   96  MET96      -0.1977
    110  CA        24.7200    2.3630   12.9410 C.3    96  MET96       0.1605
    111  C         25.1410    3.7120   12.3900 C.2    96  MET96       0.2287
    112  O         24.6220    4.7350   12.8140 O.2    96  MET96      -0.2864
    113  CB        23.3820    1.8680   12.3480 C.3    96  MET96       0.0413
    114  CG        22.8750    0.5380   12.9630 C.3    96  MET96       0.0598
    115  SD        23.7520   -0.9850   12.4900 S.3    96  MET96      -0.1393
    116  CE        23.0500   -1.2560   10.9220 C.3    96  MET96       0.0692
    117  N         24.8250    5.1940    9.3250 N.3    98  THR98      -0.1203
    118  CA        23.8960    6.0300    8.5940 C.3    98  THR98       0.1994
    119  C         22.5170    5.3350    8.4870 C.2    98  THR98       0.2617
    120  O         22.2600    4.3220    9.1350 O.2    98  THR98      -0.2717
    121  CB        24.5120    6.3980    7.2190 C.3    98  THR98       0.1784
    122  OG1       23.6680    7.3380    6.5680 O.3    98  THR98      -0.2211
    123  CG2       24.7490    5.2000    6.3200 C.3    98  THR98       0.0376
    124  N         21.6450    5.9010    7.6550 N.am   99  ASP99      -0.1973
    125  CA        20.3270    5.3940    7.3850 C.3    99  ASP99       0.1709
    126  C         20.0620    5.6490    5.9460 C.2    99  ASP99       0.2293
    127  O         20.7720    6.4550    5.3310 O.2    99  ASP99      -0.2864
    128  CB        19.2640    6.0060    8.3210 C.3    99  ASP99       0.1436
    129  CG        19.0820    7.5110    8.2600 C.2    99  ASP99       0.3671
    130  OD1       18.6750    8.0130    7.2040 O.co2  99  ASP99      -0.2456
    131  OD2       19.1630    8.1490    9.3090 O.co2  99  ASP99      -0.2456
    132  N         19.4160    9.4530    4.8620 N.3   102  LYS102     -0.1245
    133  CA        20.6870   10.1900    4.7310 C.3   102  LYS102      0.1561
    134  C         21.4000    9.8180    3.4620 C.2   102  LYS102      0.2260
    135  O         21.7300   10.7170    2.7070 O.2   102  LYS102     -0.2867
    136  CB        21.5950    9.9730    5.9310 C.3   102  LYS102      0.0271
    137  CG        21.0690   10.6290    7.2050 C.3   102  LYS102      0.0035
    138  CD        21.9820   10.3340    8.3930 C.3   102  LYS102      0.0206
    139  CE        22.6040   11.5940    8.9580 C.3   102  LYS102      0.1093
    140  NZ        23.5050   11.3100   10.1100 N.3   102  LYS102     -0.1314
    141  N         14.2080    6.6190    6.6050 N.3   141  SER141     -0.1202
    142  CA        14.7900    7.0130    7.9140 C.3   141  SER141      0.2020
    143  C         14.6680    5.8960    8.9690 C.2   141  SER141      0.2618
    144  O         15.4100    5.9200    9.9460 O.2   141  SER141     -0.2717
    145  CB        14.1850    8.3280    8.4300 C.3   141  SER141      0.2103
    146  OG        12.7710    8.2710    8.4390 O.3   141  SER141     -0.2182
    147  N         13.8130    4.8840    8.7310 N.am  142  ASN142     -0.1974
    148  CA        13.6490    3.7320    9.6300 C.3   142  ASN142      0.1688
    149  C         14.4740    2.5290    9.2120 C.2   142  ASN142      0.2292
    150  O         14.2810    1.4380    9.7350 O.2   142  ASN142     -0.2864
    151  CB        12.1570    3.3630    9.7950 C.3   142  ASN142      0.1181
    152  CG        11.5120    4.3630   10.7370 C.2   142  ASN142      0.2629
    153  OD1       12.2090    5.0190   11.5060 O.2   142  ASN142     -0.2716
    154  ND2       10.2040    4.5780   10.6500 N.am  142  ASN142     -0.0877
    155  N         18.3600    1.5980    9.0700 N.3   144  LEU144     -0.1245
    156  CA        19.7170    1.9430    9.4710 C.3   144  LEU144      0.1561
    157  C         20.7090    1.1250    8.7090 C.2   144  LEU144      0.2260
    158  O         20.4150   -0.0020    8.3920 O.2   144  LEU144     -0.2867
    159  CB        19.9090    1.7140   10.9810 C.3   144  LEU144      0.0270
    160  CG        18.8700    2.3550   11.9210 C.3   144  LEU144      0.0019
    161  CD1       19.1890    2.0100   13.3770 C.3   144  LEU144      0.0001
    162  CD2       18.7900    3.8740   11.7190 C.3   144  LEU144      0.0001
    163  N         14.3280   -0.3530   12.0660 N.3   153  CYS153     -0.1221
    164  CA        14.1650    0.2040   13.4130 C.3   153  CYS153      0.1808
    165  C         12.8180    0.9640   13.5310 C.2   153  CYS153      0.2601
    166  O         12.1040    1.1170   12.5490 O.2   153  CYS153     -0.2717
    167  CB        15.3610    1.0650   13.8220 C.3   153  CYS153      0.0970
    168  SG        15.3330    2.7530   13.1770 S.3   153  CYS153     -0.0800
    169  N         12.4690    1.3580   14.7460 N.am  154  ASP154     -0.1973
    170  CA        11.2580    2.0840   15.1590 C.3   154  ASP154      0.1709
    171  C          9.9660    1.2360   15.0170 C.2   154  ASP154      0.2293
    172  O          9.2660    1.2630   13.9840 O.2   154  ASP154     -0.2864
    173  CB        11.1040    3.4170   14.4060 C.3   154  ASP154      0.1436
    174  CG        10.1120    4.3730   15.0520 C.2   154  ASP154      0.3671
    175  OD1        9.9320    5.4750   14.5210 O.co2 154  ASP154     -0.2456
    176  OD2        9.5190    4.0070   16.0950 O.co2 154  ASP154     -0.2456
@<TRIPOS>BOND
     1   135   134    2
     2   134   133    1
     3   133   132    1
     4   133   136    1
     5   127   126    2
     6   136   137    1
     7   126   125    1
     8   123   121    1
     9   122   121    1
    10   141   142    1
    11   130   129   ar
    12   137   138    1
    13   121   118    1
    14   125   124    1
    15   125   128    1
    16   124   119   am
    17   142   145    1
    18   142   143    1
    19   129   128    1
    20   129   131   ar
    21   158   157    2
    22   138   139    1
    23   145   146    1
    24   119   118    1
    25   119   120    2
    26   118   117    1
    27   157   156    1
    28   147   143   am
    29   147   148    1
    30   139   140    1
    31   143   144    2
    32   155   156    1
    33   149   148    1
    34   149   150    2
    35   156   159    1
    36   148   151    1
    37   151   152    1
    38   154   152   am
    39   152   153    2
    40   116   115    1
    41   159   160    1
    42   162   160    1
    43   160   161    1
    44   163   164    1
    45   113   110    1
    46   113   114    1
    47   111   112    2
    48   111   110    1
    49   115   114    1
    50   166   165    2
    51   110   109    1
    52   168   167    1
    53   164   165    1
    54   164   167    1
    55   165   169   am
    56   172   171    2
    57    76    77    1
    58   109   103   am
    59   173   174    1
    60   173   170    1
    61   175   174   ar
    62   104   103    2
    63   169   170    1
    64   171   170    1
    65   174   176   ar
    66   103   102    1
    67    77    80    1
    68    77    78    1
    69    80    82    1
    70    80    81    1
    71     4     3    2
    72     7     5    1
    73    81    83    1
    74    97    98    1
    75    97    94    1
    76     3     2    1
    77     3     9   am
    78   102   101    1
    79   102   105    1
    80   100    98   ar
    81    98    99   ar
    82    78    79    2
    83   106   107    1
    84   106   105    1
    85   106   108    1
    86    10     9    1
    87    10    11    1
    88    96    95    2
    89     2     5    1
    90     2     1    1
    91     5     6    1
    92   101    95   am
    93    95    94    1
    94     6     8    1
    95    13    11   am
    96    13    14    1
    97    94    93    1
    98    15    16    2
    99    15    14    1
   100    11    12    2
   101    14    17    1
   102    75    73   ar
   103    93    86   am
   104    17    18    2
   105    49    46    1
   106    43    42    1
   107    92    90   am
   108    42    44    1
   109    42    39    1
   110    73    72    1
   111    73    74   ar
   112    20    19   ar
   113    18    19    1
   114    86    87    2
   115    86    85    1
   116    91    90    2
   117    88    89    1
   118    88    85    1
   119    90    89    1
   120    58    57    1
   121    72    71    1
   122    19    21   ar
   123    41    40    2
   124    46    45    1
   125    46    47    1
   126    71    68    1
   127    85    84    1
   128    68    67    1
   129    68    69    1
   130    56    57    1
   131    56    55    1
   132    40    39    1
   133    39    38    1
   134    70    69    2
   135    37    36    2
   136    47    48    2
   137    55    54    1
   138    54    51    1
   139    36    35    1
   140    26    23    1
   141    26    27    1
   142    23    22    1
   143    23    24    1
   144    34    24    1
   145    34    35    2
   146    51    50    1
   147    51    52    1
   148    24    25    2
   149    65    63    1
   150    27    29   ar
   151    27    28   ar
   152    29    31   ar
   153    52    53    2
   154    28    30   ar
   155    63    64    1
   156    63    60    1
   157    31    32   ar
   158    64    66    1
   159    30    32   ar
   160    60    59    1
   161    60    61    1
   162    32    33    1
   163    61    62    2
