@<TRIPOS>MOLECULE
tmp/4g6zA00.pdb
 86 82 0 0 0
SMALL
GASTEIGER

@<TRIPOS>ATOM
      1  N         18.0770   34.2170   30.7440 N.3     6  ARG6       -0.1245
      2  CA        18.9670   33.3030   31.4890 C.3     6  ARG6        0.1563
      3  C         20.1840   33.9660   32.1250 C.2     6  ARG6        0.2260
      4  O         20.5640   35.0890   31.8050 O.2     6  ARG6       -0.2867
      5  CB        19.4220   32.1020   30.6240 C.3     6  ARG6        0.0307
      6  CG        20.5960   32.3370   29.6600 C.3     6  ARG6        0.0489
      7  CD        20.3080   33.2870   28.4870 C.3     6  ARG6        0.2205
      8  NE        21.2410   33.0590   27.3520 N.pl3   6  ARG6       -0.0865
      9  CZ        22.5010   33.4670   27.3100 C.cat   6  ARG6        0.5346
     10  NH1       23.0370   34.1660   28.3190 N.pl3   6  ARG6        0.1354
     11  NH2       23.2370   33.1700   26.2730 N.pl3   6  ARG6        0.1354
     12  N         23.9800   32.4790   32.7680 N.3     8  ALA8       -0.1231
     13  CA        24.7570   31.3350   32.3270 C.3     8  ALA8        0.1679
     14  C         26.2190   31.4710   32.7190 C.2     8  ALA8        0.2434
     15  O         27.0750   31.5070   31.8480 O.2     8  ALA8       -0.2733
     16  CB        24.6570   31.1770   30.8140 C.3     8  ALA8        0.0304
     17  N         26.5040   31.5350   34.0320 N.am    9  PRO9       -0.2718
     18  CA        27.8630   31.6750   34.5090 C.3     9  PRO9        0.1535
     19  C         28.7980   30.4910   34.2260 C.2     9  PRO9        0.2599
     20  O         28.4200   29.3000   34.3450 O.2     9  PRO9       -0.2715
     21  CB        27.6840   31.8630   36.0130 C.3     9  PRO9        0.0310
     22  CG        26.4630   31.0560   36.3270 C.3     9  PRO9        0.0237
     23  CD        25.5470   31.3650   35.1540 C.3     9  PRO9        0.0939
     24  N         30.0200   30.8440   33.8580 N.am   10  SER10      -0.1950
     25  CA        31.1470   29.9140   33.8840 C.3    10  SER10       0.1924
     26  C         31.6890   29.8650   35.3240 C.2    10  SER10       0.2314
     27  O         31.9920   30.8840   35.8960 O.2    10  SER10      -0.2863
     28  CB        32.2390   30.3700   32.9110 C.3    10  SER10       0.2116
     29  OG        31.7290   30.4390   31.5800 O.3    10  SER10      -0.2180
     30  N         27.8180   26.8650   32.8230 N.3    42  GLU42      -0.1245
     31  CA        28.7160   26.6160   31.7040 C.3    42  GLU42       0.1567
     32  C         30.0520   26.0110   32.1570 C.2    42  GLU42       0.2260
     33  O         31.0790   26.6770   32.2550 O.2    42  GLU42      -0.2867
     34  CB        28.8920   27.9030   30.8710 C.3    42  GLU42       0.0388
     35  CG        27.5510   28.4600   30.4220 C.3    42  GLU42       0.1160
     36  CD        27.6020   29.3230   29.1690 C.2    42  GLU42       0.3649
     37  OE1       28.5720   30.0850   28.9490 O.co2  42  GLU42      -0.2457
     38  OE2       26.6100   29.2690   28.4160 O.co2  42  GLU42      -0.2457
     39  N         32.6050   25.1950   22.8740 N.3   165  TYR165     -0.1241
     40  CA        31.8410   26.1350   23.7020 C.3   165  TYR165      0.1605
     41  C         30.7260   26.9230   22.9850 C.2   165  TYR165      0.2264
     42  O         29.5790   26.8990   23.4160 O.2   165  TYR165     -0.2867
     43  CB        32.7960   27.1610   24.3730 C.3   165  TYR165      0.0534
     44  CG        32.0030   28.2610   25.0800 C.ar  165  TYR165     -0.0201
     45  CD1       31.3150   27.9950   26.2650 C.ar  165  TYR165     -0.0009
     46  CD2       31.9110   29.5350   24.5370 C.ar  165  TYR165     -0.0009
     47  CE1       30.5860   28.9840   26.9070 C.ar  165  TYR165      0.0417
     48  CE2       31.1980   30.5440   25.1700 C.ar  165  TYR165      0.0417
     49  CZ        30.5390   30.2680   26.3500 C.ar  165  TYR165      0.1957
     50  OH        29.7870   31.2520   26.9180 O.3   165  TYR165     -0.2866
     51  N         26.5600   26.8250   23.6190 N.3   169  VAL169     -0.1245
     52  CA        25.7340   27.9840   23.9240 C.3   169  VAL169      0.1561
     53  C         24.5020   28.0670   23.0150 C.2   169  VAL169      0.2260
     54  O         23.3770   28.2670   23.5100 O.2   169  VAL169     -0.2867
     55  CB        26.5210   29.3020   23.9090 C.3   169  VAL169      0.0252
     56  CG1       25.6090   30.4850   24.2010 C.3   169  VAL169      0.0019
     57  CG2       27.6720   29.2910   24.9240 C.3   169  VAL169      0.0019
     58  N         23.9420   40.0830   28.7650 N.3   183  ARG183     -0.1245
     59  CA        25.2410   39.5680   29.2520 C.3   183  ARG183      0.1563
     60  C         26.2940   40.6390   29.0840 C.2   183  ARG183      0.2260
     61  O         25.9990   41.6530   28.4410 O.2   183  ARG183     -0.2867
     62  CB        25.6330   38.2940   28.5060 C.3   183  ARG183      0.0307
     63  CG        25.8880   38.4840   27.0000 C.3   183  ARG183      0.0489
     64  CD        26.1350   37.1850   26.2830 C.3   183  ARG183      0.2205
     65  NE        26.2640   37.3480   24.8250 N.pl3 183  ARG183     -0.0865
     66  CZ        26.1840   36.3610   23.9390 C.cat 183  ARG183      0.5346
     67  NH1       25.9830   35.0970   24.3180 N.pl3 183  ARG183      0.1354
     68  NH2       26.3140   36.6380   22.6410 N.pl3 183  ARG183      0.1354
     69  N         31.8840   41.8980   27.0950 N.3   186  ASP186     -0.1225
     70  CA        33.0540   41.0790   26.7420 C.3   186  ASP186      0.1805
     71  C         32.6900   39.8930   25.8920 C.2   186  ASP186      0.2597
     72  O         33.5670   39.2880   25.2840 O.2   186  ASP186     -0.2718
     73  CB        33.8920   40.6450   27.9610 C.3   186  ASP186      0.1424
     74  CG        33.0850   39.9720   29.0610 C.2   186  ASP186      0.3668
     75  OD1       31.8380   39.9210   29.0660 O.co2 186  ASP186     -0.2456
     76  OD2       33.7380   39.4700   29.9660 O.co2 186  ASP186     -0.2456
     77  N         31.3950   39.5900   25.7960 N.am  187  HIS187     -0.1975
     78  CA        30.8910   38.5410   24.8960 C.3   187  HIS187      0.1656
     79  C         30.4070   39.0130   23.5450 C.2   187  HIS187      0.2291
     80  O         29.8940   38.2060   22.7760 O.2   187  HIS187     -0.2864
     81  CB        29.7290   37.8190   25.5830 C.3   187  HIS187      0.0771
     82  CG        30.1460   37.1740   26.8550 C.ar  187  HIS187      0.0820
     83  ND1       31.2170   36.3100   26.9100 N.ar  187  HIS187     -0.2267
     84  CD2       29.7330   37.3500   28.1270 C.ar  187  HIS187      0.1154
     85  CE1       31.4090   35.9340   28.1620 C.ar  187  HIS187      0.1986
     86  NE2       30.5190   36.5540   28.9210 N.ar  187  HIS187     -0.2212
@<TRIPOS>BOND
     1    68    66    1
     2    80    79    2
     3    39    40    1
     4    41    42    2
     5    41    40    1
     6    53    54    2
     7    53    52    1
     8    79    78    1
     9    51    52    1
    10    40    43    1
    11    55    52    1
    12    55    56    1
    13    55    57    1
    14    66    67    1
    15    66    65    2
    16    43    44    1
    17    46    44   ar
    18    46    48   ar
    19    65    64    1
    20    78    81    1
    21    78    77    1
    22    44    45   ar
    23    48    49   ar
    24    72    71    2
    25    81    82    1
    26    77    71   am
    27    71    70    1
    28    45    47   ar
    29    11     9    1
    30    64    63    1
    31    49    47   ar
    32    49    50    1
    33    70    69    1
    34    70    73    1
    35    82    83   ar
    36    82    84   ar
    37    83    85   ar
    38    63    62    1
    39     9     8    2
    40     9    10    1
    41     8     7    1
    42    73    74    1
    43    84    86   ar
    44    85    86   ar
    45    38    36   ar
    46    61    60    2
    47     7     6    1
    48    62    59    1
    49    58    59    1
    50    37    36   ar
    51    74    75   ar
    52    74    76   ar
    53    60    59    1
    54    36    35    1
    55     6     5    1
    56    35    34    1
    57     5     2    1
    58     1     2    1
    59    16    13    1
    60    34    31    1
    61     2     3    1
    62    29    28    1
    63    31    32    1
    64    31    30    1
    65     4     3    2
    66    15    14    2
    67    32    33    2
    68    13    14    1
    69    13    12    1
    70    14    17   am
    71    28    25    1
    72    24    25    1
    73    24    19   am
    74    25    26    1
    75    17    18    1
    76    17    23    1
    77    19    20    2
    78    19    18    1
    79    18    21    1
    80    23    22    1
    81    26    27    2
    82    21    22    1
