@<TRIPOS>MOLECULE
tmp/4g72A06.pdb
 95 91 0 0 0
SMALL
GASTEIGER

@<TRIPOS>ATOM
      1  N         25.7980  -38.5770   27.6810 N.3   330  TRP330     -0.1227
      2  CA        24.6650  -38.7520   28.6250 C.3   330  TRP330      0.1737
      3  C         24.9760  -38.7020   30.0980 C.2   330  TRP330      0.2595
      4  O         24.0670  -38.6640   30.9180 O.2   330  TRP330     -0.2718
      5  CB        23.8710  -40.0370   28.3310 C.3   330  TRP330      0.0564
      6  CG        23.1270  -39.9990   27.0130 C.ar  330  TRP330      0.0003
      7  CD1       23.5410  -40.5220   25.7920 C.ar  330  TRP330      0.0946
      8  CD2       21.8200  -39.3790   26.7320 C.ar  330  TRP330      0.0152
      9  NE1       22.6130  -40.2780   24.8150 N.ar  330  TRP330     -0.2442
     10  CE2       21.5640  -39.5960   25.3030 C.ar  330  TRP330      0.0810
     11  CE3       20.8770  -38.6940   27.4880 C.ar  330  TRP330      0.0012
     12  CZ2       20.4200  -39.1350   24.6800 C.ar  330  TRP330      0.0191
     13  CZ3       19.7180  -38.2360   26.8440 C.ar  330  TRP330      0.0001
     14  CH2       19.5010  -38.4540   25.4710 C.ar  330  TRP330      0.0015
     15  N         26.2500  -38.7040   30.4530 N.am  331  ASP331     -0.1974
     16  CA        26.6460  -38.5360   31.8530 C.3   331  ASP331      0.1709
     17  C         26.6950  -37.0560   32.2060 C.2   331  ASP331      0.2293
     18  O         26.8490  -36.7030   33.3750 O.2   331  ASP331     -0.2864
     19  CB        28.0250  -39.1450   32.0860 C.3   331  ASP331      0.1436
     20  CG        28.9720  -38.8930   30.9100 C.2   331  ASP331      0.3671
     21  OD1       28.9490  -39.7130   29.9620 O.co2 331  ASP331     -0.2456
     22  OD2       29.7160  -37.8760   30.9200 O.co2 331  ASP331     -0.2456
     23  N         22.3140  -33.2200   28.7200 N.3   336  VAL336     -0.1245
     24  CA        21.0860  -33.9990   28.7770 C.3   336  VAL336      0.1561
     25  C         19.8020  -33.1490   28.8110 C.2   336  VAL336      0.2260
     26  O         18.8870  -33.3650   28.0110 O.2   336  VAL336     -0.2867
     27  CB        21.1350  -34.9790   29.9630 C.3   336  VAL336      0.0252
     28  CG1       19.7840  -35.6430   30.1830 C.3   336  VAL336      0.0019
     29  CG2       22.2030  -36.0250   29.7200 C.3   336  VAL336      0.0019
     30  N         21.7060  -34.9040   36.8210 N.3   411  LEU411     -0.1231
     31  CA        21.1160  -35.8720   35.9150 C.3   411  LEU411      0.1693
     32  C         19.7850  -36.3490   36.4610 C.2   411  LEU411      0.2591
     33  O         18.7910  -36.4290   35.7280 O.2   411  LEU411     -0.2718
     34  CB        22.0380  -37.0550   35.7590 C.3   411  LEU411      0.0284
     35  CG        23.2900  -36.7310   34.9790 C.3   411  LEU411      0.0019
     36  CD1       24.3240  -37.8060   35.2630 C.3   411  LEU411      0.0001
     37  CD2       22.9770  -36.6420   33.4900 C.3   411  LEU411      0.0001
     38  N         19.7620  -36.6490   37.7570 N.am  412  ALA412     -0.1980
     39  CA        18.5520  -37.0960   38.4120 C.3   412  ALA412      0.1597
     40  C         17.3860  -36.1050   38.2320 C.2   412  ALA412      0.2287
     41  O         16.3020  -36.4950   37.7800 O.2   412  ALA412     -0.2864
     42  CB        18.8260  -37.3770   39.8880 C.3   412  ALA412      0.0319
     43  N         16.3220  -35.7470   34.6150 N.3   415  TRP415     -0.1227
     44  CA        15.6170  -36.9510   34.1390 C.3   415  TRP415      0.1737
     45  C         14.2560  -37.1290   34.6890 C.2   415  TRP415      0.2595
     46  O         13.3200  -37.3650   33.9340 O.2   415  TRP415     -0.2718
     47  CB        16.4090  -38.2070   34.4180 C.3   415  TRP415      0.0564
     48  CG        17.2020  -38.6550   33.2180 C.ar  415  TRP415      0.0003
     49  CD1       18.5700  -38.5200   33.0040 C.ar  415  TRP415      0.0946
     50  CD2       16.6890  -39.3130   32.0030 C.ar  415  TRP415      0.0152
     51  NE1       18.9210  -39.0370   31.7890 N.ar  415  TRP415     -0.2442
     52  CE2       17.8490  -39.5310   31.1400 C.ar  415  TRP415      0.0810
     53  CE3       15.4310  -39.7240   31.5630 C.ar  415  TRP415      0.0012
     54  CZ2       17.7380  -40.1290   29.9000 C.ar  415  TRP415      0.0191
     55  CZ3       15.3290  -40.3320   30.3090 C.ar  415  TRP415      0.0001
     56  CH2       16.4570  -40.5340   29.5010 C.ar  415  TRP415      0.0015
     57  N         14.1330  -37.0300   36.0160 N.am  416  LEU416     -0.1980
     58  CA        12.8430  -37.1410   36.7010 C.3   416  LEU416      0.1596
     59  C         11.9010  -36.0070   36.3060 C.2   416  LEU416      0.2287
     60  O         10.6640  -36.1740   36.2610 O.2   416  LEU416     -0.2864
     61  CB        13.0400  -37.1150   38.2180 C.3   416  LEU416      0.0297
     62  CG        13.4930  -38.3680   38.9680 C.3   416  LEU416      0.0022
     63  CD1       13.6230  -38.0270   40.4420 C.3   416  LEU416      0.0001
     64  CD2       12.5310  -39.5280   38.7830 C.3   416  LEU416      0.0001
     65  N         10.6630  -36.8590   32.7540 N.3   419  LEU419     -0.1245
     66  CA         9.7060  -37.9640   32.8910 C.3   419  LEU419      0.1561
     67  C          8.3620  -37.5210   33.4470 C.2   419  LEU419      0.2260
     68  O          7.3150  -37.9620   32.9650 O.2   419  LEU419     -0.2867
     69  CB        10.2920  -39.0700   33.7670 C.3   419  LEU419      0.0270
     70  CG        11.4600  -39.7780   33.0990 C.3   419  LEU419      0.0019
     71  CD1       12.1910  -40.6840   34.0830 C.3   419  LEU419      0.0001
     72  CD2       10.9680  -40.5230   31.8570 C.3   419  LEU419      0.0001
     73  N          4.6980  -37.7820   31.6110 N.3   423  ILE423     -0.1245
     74  CA         3.5710  -38.4270   32.2590 C.3   423  ILE423      0.1561
     75  C          2.3900  -37.5110   32.4010 C.2   423  ILE423      0.2260
     76  O          1.2920  -37.8720   32.0430 O.2   423  ILE423     -0.2867
     77  CB         3.9830  -38.9940   33.6070 C.3   423  ILE423      0.0252
     78  CG1        4.9950  -40.0990   33.3510 C.3   423  ILE423      0.0019
     79  CG2        2.7770  -39.5260   34.3750 C.3   423  ILE423      0.0019
     80  CD1        5.7680  -40.5100   34.5710 C.3   423  ILE423      0.0001
     81  N          0.3540  -39.3390   39.4480 N.3   461  LEU461     -0.1245
     82  CA         1.7260  -39.8680   39.3860 C.3   461  LEU461      0.1561
     83  C          2.7290  -38.7760   39.0380 C.2   461  LEU461      0.2260
     84  O          3.7390  -38.5900   39.7250 O.2   461  LEU461     -0.2867
     85  CB         1.8190  -41.0030   38.3710 C.3   461  LEU461      0.0270
     86  CG         3.2050  -41.3910   37.8670 C.3   461  LEU461      0.0019
     87  CD1        4.1120  -41.9590   38.9450 C.3   461  LEU461      0.0001
     88  CD2        2.9600  -42.3950   36.7650 C.3   461  LEU461      0.0001
     89  N          5.9510  -37.5160   41.1680 N.3   465  VAL465     -0.1245
     90  CA         7.2310  -37.5440   40.4620 C.3   465  VAL465      0.1561
     91  C          7.8360  -36.1530   40.4230 C.2   465  VAL465      0.2260
     92  O          8.9800  -35.9620   40.8530 O.2   465  VAL465     -0.2867
     93  CB         7.1360  -38.0910   39.0370 C.3   465  VAL465      0.0252
     94  CG1        8.4230  -37.8210   38.2740 C.3   465  VAL465      0.0019
     95  CG2        6.9240  -39.5860   39.0900 C.3   465  VAL465      0.0019
@<TRIPOS>BOND
     1    12    10   ar
     2    12    14   ar
     3     9    10   ar
     4     9     7   ar
     5    10     8   ar
     6    14    13   ar
     7     7     6   ar
     8     8     6   ar
     9     8    11   ar
    10    13    11   ar
    11     6     5    1
    12     1     2    1
    13    26    25    2
    14     5     2    1
    15     2     3    1
    16    23    24    1
    17    24    25    1
    18    24    27    1
    19    56    54   ar
    20    56    55   ar
    21    29    27    1
    22    54    52   ar
    23    21    20   ar
    24    27    28    1
    25     3    15   am
    26     3     4    2
    27    55    53   ar
    28    15    16    1
    29    20    22   ar
    30    20    19    1
    31    52    51   ar
    32    52    50   ar
    33    53    50   ar
    34    73    74    1
    35    51    49   ar
    36    16    19    1
    37    16    17    1
    38    72    70    1
    39    50    48   ar
    40    76    75    2
    41    17    18    2
    42    74    75    1
    43    74    77    1
    44    65    66    1
    45    66    67    1
    46    66    69    1
    47    68    67    2
    48    49    48   ar
    49    70    69    1
    50    70    71    1
    51    48    47    1
    52    78    77    1
    53    78    80    1
    54    37    35    1
    55    77    79    1
    56    46    45    2
    57    44    47    1
    58    44    43    1
    59    44    45    1
    60    45    57   am
    61    35    36    1
    62    35    34    1
    63    33    32    2
    64    34    31    1
    65    31    32    1
    66    31    30    1
    67    57    58    1
    68    60    59    2
    69    59    58    1
    70    32    38   am
    71    58    61    1
    72    88    86    1
    73    38    39    1
    74    41    40    2
    75    86    85    1
    76    86    87    1
    77    61    62    1
    78    40    39    1
    79    94    93    1
    80    85    82    1
    81    39    42    1
    82    64    62    1
    83    62    63    1
    84    93    95    1
    85    93    90    1
    86    83    82    1
    87    83    84    2
    88    82    81    1
    89    91    90    1
    90    91    92    2
    91    90    89    1
