@<TRIPOS>MOLECULE
tmp/4g72A01.pdb
 124 120 0 0 0
SMALL
GASTEIGER

@<TRIPOS>ATOM
      1  N         23.3530  -42.0250   18.9600 N.3   325  ILE325     -0.1231
      2  CA        22.5950  -41.6200   20.1430 C.3   325  ILE325      0.1692
      3  C         23.2990  -42.0740   21.4310 C.2   325  ILE325      0.2591
      4  O         23.5620  -41.2520   22.3120 O.2   325  ILE325     -0.2718
      5  CB        21.1430  -42.1280   20.1700 C.3   325  ILE325      0.0266
      6  CG1       20.4210  -41.8290   18.8530 C.3   325  ILE325      0.0019
      7  CG2       20.4010  -41.5230   21.3570 C.3   325  ILE325      0.0020
      8  CD1       18.9980  -42.3510   18.8300 C.3   325  ILE325      0.0001
      9  N         23.6080  -43.3700   21.5380 N.am  326  ARG326     -0.1980
     10  CA        24.3030  -43.8890   22.7410 C.3   326  ARG326      0.1597
     11  C         25.7410  -43.3560   22.9020 C.2   326  ARG326      0.2287
     12  O         26.3240  -43.4490   23.9810 O.2   326  ARG326     -0.2864
     13  CB        24.2330  -45.4360   22.8780 C.3   326  ARG326      0.0334
     14  CG        24.4810  -46.2600   21.6600 C.3   326  ARG326      0.0492
     15  CD        24.7950  -47.7430   21.9720 C.3   326  ARG326      0.2205
     16  NE        26.2640  -47.8130   22.0410 N.pl3 326  ARG326     -0.0865
     17  CZ        27.2410  -47.4130   22.8330 C.cat 326  ARG326      0.5346
     18  NH1       27.0940  -46.7560   23.9730 N.pl3 326  ARG326      0.1354
     19  NH2       28.5060  -47.6520   22.4680 N.pl3 326  ARG326      0.1354
     20  N         26.6070  -40.2420   22.6810 N.3   328  LEU328     -0.1245
     21  CA        26.5850  -38.8640   23.1560 C.3   328  LEU328      0.1561
     22  C         26.8750  -38.7930   24.6570 C.2   328  LEU328      0.2260
     23  O         26.7680  -39.8210   25.3380 O.2   328  LEU328     -0.2867
     24  CB        25.2630  -38.2040   22.7970 C.3   328  LEU328      0.0270
     25  CG        25.0390  -37.9320   21.3100 C.3   328  LEU328      0.0019
     26  CD1       23.5860  -37.5270   21.1530 C.3   328  LEU328      0.0001
     27  CD2       25.9740  -36.8550   20.7670 C.3   328  LEU328      0.0001
     28  N         25.7980  -38.5770   27.6810 N.3   330  TRP330     -0.1241
     29  CA        24.6650  -38.7520   28.6250 C.3   330  TRP330      0.1605
     30  C         24.9760  -38.7020   30.0980 C.2   330  TRP330      0.2264
     31  O         24.0670  -38.6640   30.9180 O.2   330  TRP330     -0.2867
     32  CB        23.8710  -40.0370   28.3310 C.3   330  TRP330      0.0550
     33  CG        23.1270  -39.9990   27.0130 C.ar  330  TRP330      0.0003
     34  CD1       23.5410  -40.5220   25.7920 C.ar  330  TRP330      0.0946
     35  CD2       21.8200  -39.3790   26.7320 C.ar  330  TRP330      0.0152
     36  NE1       22.6130  -40.2780   24.8150 N.ar  330  TRP330     -0.2442
     37  CE2       21.5640  -39.5960   25.3030 C.ar  330  TRP330      0.0810
     38  CE3       20.8770  -38.6940   27.4880 C.ar  330  TRP330      0.0012
     39  CZ2       20.4200  -39.1350   24.6800 C.ar  330  TRP330      0.0191
     40  CZ3       19.7180  -38.2360   26.8440 C.ar  330  TRP330      0.0001
     41  CH2       19.5010  -38.4540   25.4710 C.ar  330  TRP330      0.0015
     42  N         16.6820  -33.8970   26.1590 N.3   340  LEU340     -0.1245
     43  CA        15.4300  -34.3900   26.6880 C.3   340  LEU340      0.1561
     44  C         14.3070  -33.3960   26.3640 C.2   340  LEU340      0.2260
     45  O         13.2420  -33.7900   25.8670 O.2   340  LEU340     -0.2867
     46  CB        15.5470  -34.6400   28.1960 C.3   340  LEU340      0.0270
     47  CG        16.3740  -35.8320   28.6820 C.3   340  LEU340      0.0019
     48  CD1       16.2860  -35.9080   30.1930 C.3   340  LEU340      0.0001
     49  CD2       15.8780  -37.1390   28.0980 C.3   340  LEU340      0.0001
     50  N         13.1260  -33.5530   22.9760 N.3   343  LEU343     -0.1245
     51  CA        12.4420  -34.7820   22.7340 C.3   343  LEU343      0.1561
     52  C         10.9790  -34.5670   23.0150 C.2   343  LEU343      0.2260
     53  O         10.1450  -34.8010   22.1510 O.2   343  LEU343     -0.2867
     54  CB        13.0350  -35.9130   23.5590 C.3   343  LEU343      0.0270
     55  CG        14.3350  -36.4770   22.9870 C.3   343  LEU343      0.0019
     56  CD1       14.9280  -37.4700   23.9720 C.3   343  LEU343      0.0001
     57  CD2       14.0970  -37.1480   21.6490 C.3   343  LEU343      0.0001
     58  N         16.3220  -35.7470   34.6150 N.3   415  TRP415     -0.1241
     59  CA        15.6170  -36.9510   34.1390 C.3   415  TRP415      0.1605
     60  C         14.2560  -37.1290   34.6890 C.2   415  TRP415      0.2264
     61  O         13.3200  -37.3650   33.9340 O.2   415  TRP415     -0.2867
     62  CB        16.4090  -38.2070   34.4180 C.3   415  TRP415      0.0550
     63  CG        17.2020  -38.6550   33.2180 C.ar  415  TRP415      0.0003
     64  CD1       18.5700  -38.5200   33.0040 C.ar  415  TRP415      0.0946
     65  CD2       16.6890  -39.3130   32.0030 C.ar  415  TRP415      0.0152
     66  NE1       18.9210  -39.0370   31.7890 N.ar  415  TRP415     -0.2442
     67  CE2       17.8490  -39.5310   31.1400 C.ar  415  TRP415      0.0810
     68  CE3       15.4310  -39.7240   31.5630 C.ar  415  TRP415      0.0012
     69  CZ2       17.7380  -40.1290   29.9000 C.ar  415  TRP415      0.0191
     70  CZ3       15.3290  -40.3320   30.3090 C.ar  415  TRP415      0.0001
     71  CH2       16.4570  -40.5340   29.5010 C.ar  415  TRP415      0.0015
     72  N         11.9660  -34.4340   33.2800 N.3   418  PHE418     -0.1227
     73  CA        11.5390  -34.7550   31.9330 C.3   418  PHE418      0.1736
     74  C         10.4520  -35.8270   31.9380 C.2   418  PHE418      0.2595
     75  O          9.4380  -35.7110   31.2230 O.2   418  PHE418     -0.2718
     76  CB        12.7300  -35.1800   31.0820 C.3   418  PHE418      0.0547
     77  CG        12.3390  -35.8670   29.8240 C.ar  418  PHE418     -0.0202
     78  CD1       12.5070  -37.2300   29.6890 C.ar  418  PHE418     -0.0042
     79  CD2       11.7620  -35.1590   28.7860 C.ar  418  PHE418     -0.0042
     80  CE1       12.1280  -37.8730   28.5290 C.ar  418  PHE418     -0.0003
     81  CE2       11.3720  -35.7980   27.6260 C.ar  418  PHE418     -0.0003
     82  CZ        11.5510  -37.1560   27.4950 C.ar  418  PHE418     -0.0000
     83  N         10.6630  -36.8590   32.7540 N.am  419  LEU419     -0.1980
     84  CA         9.7060  -37.9640   32.8910 C.3   419  LEU419      0.1596
     85  C          8.3620  -37.5210   33.4470 C.2   419  LEU419      0.2287
     86  O          7.3150  -37.9620   32.9650 O.2   419  LEU419     -0.2864
     87  CB        10.2920  -39.0700   33.7670 C.3   419  LEU419      0.0297
     88  CG        11.4600  -39.7780   33.0990 C.3   419  LEU419      0.0022
     89  CD1       12.1910  -40.6840   34.0830 C.3   419  LEU419      0.0001
     90  CD2       10.9680  -40.5230   31.8570 C.3   419  LEU419      0.0001
     91  N          6.4420  -35.7050   30.8080 N.3   422  MET422     -0.1230
     92  CA         5.8810  -36.6300   29.8560 C.3   422  MET422      0.1702
     93  C          4.5930  -37.1680   30.4300 C.2   422  MET422      0.2592
     94  O          3.5230  -37.0220   29.8220 O.2   422  MET422     -0.2718
     95  CB         6.8260  -37.7780   29.6030 C.3   422  MET422      0.0401
     96  CG         7.9640  -37.4710   28.6570 C.3   422  MET422      0.0596
     97  SD         7.5170  -36.4290   27.2670 S.3   422  MET422     -0.1393
     98  CE         8.2260  -34.9380   27.9600 C.3   422  MET422      0.0692
     99  N          4.6980  -37.7820   31.6110 N.am  423  ILE423     -0.1980
    100  CA         3.5710  -38.4270   32.2590 C.3   423  ILE423      0.1595
    101  C          2.3900  -37.5110   32.4010 C.2   423  ILE423      0.2287
    102  O          1.2920  -37.8720   32.0430 O.2   423  ILE423     -0.2864
    103  CB         3.9830  -38.9940   33.6070 C.3   423  ILE423      0.0276
    104  CG1        4.9950  -40.0990   33.3510 C.3   423  ILE423      0.0022
    105  CG2        2.7770  -39.5260   34.3750 C.3   423  ILE423      0.0022
    106  CD1        5.7680  -40.5100   34.5710 C.3   423  ILE423      0.0001
    107  N          0.6290  -36.8150   29.0510 N.3   426  VAL426     -0.1245
    108  CA        -0.3310  -37.8690   28.6880 C.3   426  VAL426      0.1561
    109  C         -1.6780  -37.5970   29.3620 C.2   426  VAL426      0.2260
    110  O         -2.6610  -37.3630   28.6820 O.2   426  VAL426     -0.2867
    111  CB         0.1800  -39.2870   29.0220 C.3   426  VAL426      0.0252
    112  CG1       -0.9160  -40.3170   28.8040 C.3   426  VAL426      0.0019
    113  CG2        1.3920  -39.6170   28.1780 C.3   426  VAL426      0.0019
    114  N         -2.3780  -40.7630   35.7600 N.3   458  PHE458     -0.1241
    115  CA        -1.1580  -40.1840   35.2140 C.3   458  PHE458      0.1605
    116  C         -0.8960  -38.8390   35.8320 C.2   458  PHE458      0.2264
    117  O          0.2320  -38.5430   36.2140 O.2   458  PHE458     -0.2867
    118  CB        -1.2640  -40.0200   33.7210 C.3   458  PHE458      0.0534
    119  CG        -1.3250  -41.3100   32.9990 C.ar  458  PHE458     -0.0203
    120  CD1       -0.1660  -41.8950   32.5170 C.ar  458  PHE458     -0.0042
    121  CD2       -2.5390  -41.9550   32.8190 C.ar  458  PHE458     -0.0042
    122  CE1       -0.2170  -43.1030   31.8600 C.ar  458  PHE458     -0.0003
    123  CE2       -2.5990  -43.1620   32.1500 C.ar  458  PHE458     -0.0003
    124  CZ        -1.4370  -43.7420   31.6710 C.ar  458  PHE458     -0.0000
@<TRIPOS>BOND
     1     8     6    1
     2     6     5    1
     3     1     2    1
     4     2     5    1
     5     2     3    1
     6     5     7    1
     7    27    25    1
     8    26    25    1
     9    25    24    1
    10     3     9   am
    11     3     4    2
    12     9    10    1
    13    57    55    1
    14    14    15    1
    15    14    13    1
    16    15    16    1
    17    16    17    2
    18    53    52    2
    19    19    17    1
    20    20    21    1
    21    51    50    1
    22    51    52    1
    23    51    54    1
    24    10    13    1
    25    10    11    1
    26    24    21    1
    27    17    18    1
    28    11    12    2
    29    55    54    1
    30    55    56    1
    31    21    22    1
    32    22    23    2
    33    39    37   ar
    34    39    41   ar
    35    36    37   ar
    36    36    34   ar
    37    37    35   ar
    38    41    40   ar
    39    34    33   ar
    40    45    44    2
    41    42    43    1
    42    44    43    1
    43    43    46    1
    44    35    33   ar
    45    35    38   ar
    46    40    38   ar
    47    33    32    1
    48    97    98    1
    49    97    96    1
    50    82    81   ar
    51    82    80   ar
    52    81    79   ar
    53    28    29    1
    54    49    47    1
    55   113   111    1
    56    46    47    1
    57    32    29    1
    58    80    78   ar
    59    29    30    1
    60    96    95    1
    61    47    48    1
    62   110   109    2
    63   108   111    1
    64   108   107    1
    65   108   109    1
    66    79    77   ar
    67   112   111    1
    68    71    69   ar
    69    71    70   ar
    70    95    92    1
    71    78    77   ar
    72    94    93    2
    73    77    76    1
    74    92    93    1
    75    92    91    1
    76    69    67   ar
    77    30    31    2
    78    70    68   ar
    79    93    99   am
    80    76    73    1
    81    67    66   ar
    82    67    65   ar
    83    75    74    2
    84    68    65   ar
    85    99   100    1
    86   124   122   ar
    87   124   123   ar
    88    66    64   ar
    89    90    88    1
    90   122   120   ar
    91    73    74    1
    92    73    72    1
    93    74    83   am
    94    65    63   ar
    95   102   101    2
    96   123   121   ar
    97   100   101    1
    98   100   103    1
    99   120   119   ar
   100    83    84    1
   101   121   119   ar
   102    84    85    1
   103    84    87    1
   104    86    85    2
   105   119   118    1
   106    64    63   ar
   107    88    87    1
   108    88    89    1
   109    63    62    1
   110   104   103    1
   111   104   106    1
   112   103   105    1
   113   118   115    1
   114    61    60    2
   115    59    62    1
   116    59    58    1
   117    59    60    1
   118   115   114    1
   119   115   116    1
   120   116   117    2
