@<TRIPOS>MOLECULE
tmp/4g73B02.pdb
 150 145 0 0 0
SMALL
GASTEIGER

@<TRIPOS>ATOM
      1  N         28.9150   32.8890  -35.4390 N.3    22  TRP22      -0.1241
      2  CA        27.8610   32.1560  -36.1550 C.3    22  TRP22       0.1605
      3  C         28.2350   31.6220  -37.5360 C.2    22  TRP22       0.2264
      4  O         27.9140   30.4880  -37.8650 O.2    22  TRP22      -0.2867
      5  CB        26.5810   33.0010  -36.2540 C.3    22  TRP22       0.0550
      6  CG        25.7730   32.9680  -34.9810 C.ar   22  TRP22       0.0003
      7  CD1       25.7340   33.9230  -33.9860 C.ar   22  TRP22       0.0946
      8  CD2       24.9070   31.9080  -34.5570 C.ar   22  TRP22       0.0152
      9  NE1       24.8700   33.5200  -32.9910 N.ar   22  TRP22      -0.2442
     10  CE2       24.3620   32.2920  -33.3120 C.ar   22  TRP22       0.0810
     11  CE3       24.5210   30.6970  -35.1230 C.ar   22  TRP22       0.0012
     12  CZ2       23.4490   31.4770  -32.6190 C.ar   22  TRP22       0.0191
     13  CZ3       23.6220   29.8960  -34.4370 C.ar   22  TRP22       0.0001
     14  CH2       23.0920   30.2920  -33.1930 C.ar   22  TRP22       0.0015
     15  N         22.1110   35.0820  -28.9600 N.3    51  PRO51      -0.2116
     16  CA        20.7560   35.4380  -28.4940 C.3    51  PRO51       0.1372
     17  C         20.5210   35.3340  -26.9790 C.2    51  PRO51       0.2244
     18  O         19.5610   35.9530  -26.5200 O.2    51  PRO51      -0.2868
     19  CB        19.8490   34.4380  -29.2310 C.3    51  PRO51       0.0268
     20  CG        20.6430   34.0210  -30.4130 C.3    51  PRO51       0.0207
     21  CD        22.0770   33.9750  -29.9310 C.3    51  PRO51       0.0892
     22  N         22.0770   36.2440  -36.8940 N.3   352  ALA352     -0.1231
     23  CA        22.6480   34.8960  -36.8250 C.3   352  ALA352      0.1694
     24  C         21.9200   33.9890  -37.8080 C.2   352  ALA352      0.2591
     25  O         22.5090   33.0490  -38.3590 O.2   352  ALA352     -0.2718
     26  CB        22.5530   34.3180  -35.4070 C.3   352  ALA352      0.0304
     27  N         20.6340   34.2680  -38.0120 N.am  353  GLN353     -0.1979
     28  CA        19.8150   33.4680  -38.9070 C.3   353  GLN353      0.1601
     29  C         20.4290   33.4820  -40.3190 C.2   353  GLN353      0.2287
     30  O         20.6390   32.4240  -40.9350 O.2   353  GLN353     -0.2864
     31  CB        18.3910   34.0110  -38.9250 C.3   353  GLN353      0.0394
     32  CG        17.3340   32.9560  -39.1420 C.3   353  GLN353      0.0908
     33  CD        15.9470   33.5720  -39.2220 C.2   353  GLN353      0.2608
     34  OE1       15.1080   33.1250  -39.9940 O.2   353  GLN353     -0.2717
     35  NE2       15.7080   34.6140  -38.4250 N.am  353  GLN353     -0.0878
     36  N         24.0070   31.8180  -40.2840 N.3   356  HIS356     -0.1241
     37  CA        23.8920   30.3680  -40.2500 C.3   356  HIS356      0.1621
     38  C         23.4450   29.7680  -41.6030 C.2   356  HIS356      0.2264
     39  O         23.9100   28.6840  -41.9920 O.2   356  HIS356     -0.2867
     40  CB        22.9430   29.9370  -39.1310 C.3   356  HIS356      0.0745
     41  CG        22.6130   28.4750  -39.1460 C.ar  356  HIS356      0.0817
     42  ND1       23.3630   27.5410  -38.4640 N.ar  356  HIS356     -0.2268
     43  CD2       21.6190   27.7920  -39.7630 C.ar  356  HIS356      0.1154
     44  CE1       22.8350   26.3400  -38.6520 C.ar  356  HIS356      0.1986
     45  NE2       21.7810   26.4650  -39.4360 N.ar  356  HIS356     -0.2212
     46  N         16.0090   32.1800  -46.5460 N.3   401  ASN401     -0.1240
     47  CA        14.6340   31.9260  -46.1060 C.3   401  ASN401      0.1653
     48  C         14.4090   32.4690  -44.7010 C.2   401  ASN401      0.2266
     49  O         14.8080   31.8130  -43.7340 O.2   401  ASN401     -0.2867
     50  CB        14.3460   30.4140  -46.1020 C.3   401  ASN401      0.1155
     51  CG        12.8970   30.0870  -45.7190 C.2   401  ASN401      0.2627
     52  OD1       11.9960   30.9230  -45.8720 O.2   401  ASN401     -0.2716
     53  ND2       12.6700   28.8610  -45.2270 N.am  401  ASN401     -0.0877
     54  N         12.9160   32.8760  -41.2890 N.3   403  LEU403     -0.1231
     55  CA        12.1140   32.0040  -40.4390 C.3   403  LEU403      0.1693
     56  C         11.3810   32.7800  -39.3450 C.2   403  LEU403      0.2593
     57  O         10.6730   32.1910  -38.5260 O.2   403  LEU403     -0.2718
     58  CB        12.9800   30.8980  -39.8250 C.3   403  LEU403      0.0284
     59  CG        13.1640   29.6050  -40.6310 C.3   403  LEU403      0.0019
     60  CD1       12.7890   29.7550  -42.1000 C.3   403  LEU403      0.0001
     61  CD2       14.5940   29.1710  -40.5380 C.3   403  LEU403      0.0001
     62  N         11.5300   34.1000  -39.3420 N.am  404  GLY404     -0.1942
     63  CA        10.8920   34.9080  -38.3170 C.3   404  GLY404      0.2014
     64  C         11.8390   35.5300  -37.2990 C.2   404  GLY404      0.2639
     65  O         13.0060   35.8220  -37.6100 O.2   404  GLY404     -0.2714
     66  N         11.3290   35.7560  -36.0880 N.am  405  ALA405     -0.1963
     67  CA        12.0500   36.5120  -35.0760 C.3   405  ALA405      0.1728
     68  C         11.3550   36.3480  -33.7500 C.2   405  ALA405      0.2616
     69  O         10.1510   36.1210  -33.7420 O.2   405  ALA405     -0.2715
     70  CB        12.0940   37.9730  -35.4620 C.3   405  ALA405      0.0334
     71  N         12.1040   36.4860  -32.6470 N.am  406  LEU406     -0.1977
     72  CA        11.5740   36.3530  -31.2810 C.3   406  LEU406      0.1596
     73  C         12.1460   37.4440  -30.3980 C.2   406  LEU406      0.2287
     74  O         13.2520   37.8860  -30.6220 O.2   406  LEU406     -0.2864
     75  CB        12.0030   35.0220  -30.6760 C.3   406  LEU406      0.0297
     76  CG        11.4610   33.7690  -31.3500 C.3   406  LEU406      0.0022
     77  CD1       12.5970   32.8810  -31.8270 C.3   406  LEU406      0.0001
     78  CD2       10.6090   33.0350  -30.3380 C.3   406  LEU406      0.0001
     79  N          6.8450   33.0710  -36.3700 N.3   418  ILE418     -0.1231
     80  CA         7.5470   31.9560  -36.9990 C.3   418  ILE418      0.1692
     81  C          7.0160   31.7420  -38.4150 C.2   418  ILE418      0.2592
     82  O          5.8000   31.6710  -38.6440 O.2   418  ILE418     -0.2718
     83  CB         7.2960   30.6530  -36.2460 C.3   418  ILE418      0.0266
     84  CG1        7.4500   30.8780  -34.7510 C.3   418  ILE418      0.0019
     85  CG2        8.2370   29.5700  -36.7320 C.3   418  ILE418      0.0020
     86  CD1        8.7460   31.5280  -34.3980 C.3   418  ILE418      0.0001
     87  N          7.9120   31.6230  -39.3780 N.am  419  ARG419     -0.1966
     88  CA         7.4540   31.5150  -40.7480 C.3   419  ARG419      0.1729
     89  C          8.3870   30.6820  -41.6030 C.2   419  ARG419      0.2616
     90  O          9.4170   30.2060  -41.1310 O.2   419  ARG419     -0.2715
     91  CB         7.2610   32.9130  -41.3440 C.3   419  ARG419      0.0348
     92  CG         8.3950   33.8610  -41.0700 C.3   419  ARG419      0.0492
     93  CD         8.2020   35.2090  -41.7950 C.3   419  ARG419      0.2205
     94  NE         9.1580   36.2040  -41.2950 N.pl3 419  ARG419     -0.0865
     95  CZ         8.8390   37.2740  -40.5600 C.cat 419  ARG419      0.5346
     96  NH1        7.5700   37.5270  -40.2580 N.pl3 419  ARG419      0.1354
     97  NH2        9.7920   38.1050  -40.1360 N.pl3 419  ARG419      0.1354
     98  N          8.0020   30.4830  -42.8560 N.am  420  SER420     -0.1950
     99  CA         8.8810   29.8630  -43.8500 C.3   420  SER420      0.1924
    100  C          8.3400   30.1700  -45.2290 C.2   420  SER420      0.2314
    101  O          7.2280   29.7540  -45.5800 O.2   420  SER420     -0.2863
    102  CB         8.9860   28.3470  -43.6510 C.3   420  SER420      0.2116
    103  OG         9.8850   27.7740  -44.5880 O.3   420  SER420     -0.2180
    104  N          3.3450   30.5510  -39.4230 N.3   425  PHE425     -0.1241
    105  CA         2.8570   29.4480  -38.5760 C.3   425  PHE425      0.1605
    106  C          2.4390   29.9060  -37.1980 C.2   425  PHE425      0.2264
    107  O          1.5970   29.2770  -36.5500 O.2   425  PHE425     -0.2867
    108  CB         3.9100   28.3330  -38.4510 C.3   425  PHE425      0.0534
    109  CG         4.3110   27.7500  -39.7880 C.ar  425  PHE425     -0.0203
    110  CD1        3.5200   26.7830  -40.4060 C.ar  425  PHE425     -0.0042
    111  CD2        5.4480   28.1990  -40.4490 C.ar  425  PHE425     -0.0042
    112  CE1        3.8590   26.2740  -41.6390 C.ar  425  PHE425     -0.0003
    113  CE2        5.7950   27.6780  -41.6850 C.ar  425  PHE425     -0.0003
    114  CZ         4.9960   26.7210  -42.2770 C.ar  425  PHE425     -0.0000
    115  N         12.4230   27.0300  -28.3720 N.3   440  LEU440     -0.1231
    116  CA        13.1010   27.4010  -29.6180 C.3   440  LEU440      0.1693
    117  C         14.6030   27.7650  -29.4770 C.2   440  LEU440      0.2592
    118  O         15.4550   27.2290  -30.2280 O.2   440  LEU440     -0.2718
    119  CB        12.3240   28.5000  -30.3310 C.3   440  LEU440      0.0284
    120  CG        11.4870   28.0620  -31.5420 C.3   440  LEU440      0.0019
    121  CD1       11.0780   26.6150  -31.4570 C.3   440  LEU440      0.0001
    122  CD2       10.2500   28.9420  -31.6810 C.3   440  LEU440      0.0001
    123  N         14.9410   28.6450  -28.5270 N.am  441  TYR441     -0.1976
    124  CA        16.3500   29.0310  -28.3540 C.3   441  TYR441      0.1639
    125  C         17.2290   27.8170  -28.0060 C.2   441  TYR441      0.2290
    126  O         18.3730   27.6950  -28.4850 O.2   441  TYR441     -0.2864
    127  CB        16.5180   30.1490  -27.3120 C.3   441  TYR441      0.0560
    128  CG        16.3590   31.5620  -27.8750 C.ar  441  TYR441     -0.0198
    129  CD1       15.9920   31.7810  -29.2010 C.ar  441  TYR441     -0.0009
    130  CD2       16.5850   32.6830  -27.0700 C.ar  441  TYR441     -0.0009
    131  CE1       15.8320   33.0870  -29.7100 C.ar  441  TYR441      0.0417
    132  CE2       16.4360   33.9830  -27.5690 C.ar  441  TYR441      0.0417
    133  CZ        16.0530   34.1780  -28.8870 C.ar  441  TYR441      0.1957
    134  OH        15.9110   35.4750  -29.3670 O.3   441  TYR441     -0.2866
    135  N         18.1400   26.0150  -31.0480 N.3   444  MET444     -0.1245
    136  CA        19.1310   26.6330  -31.9400 C.3   444  MET444      0.1570
    137  C         20.5570   26.5920  -31.3710 C.2   444  MET444      0.2261
    138  O         21.5100   26.9480  -32.0690 O.2   444  MET444     -0.2867
    139  CB        18.7500   28.0950  -32.2690 C.3   444  MET444      0.0387
    140  CG        17.3950   28.3160  -32.9620 C.3   444  MET444      0.0595
    141  SD        16.8900   30.0620  -32.7740 S.3   444  MET444     -0.1393
    142  CE        15.1120   29.8960  -32.6660 C.3   444  MET444      0.0692
    143  N         24.1180   25.3460  -30.6560 N.3   446  LEU446     -0.1245
    144  CA        24.9140   24.5170  -31.5740 C.3   446  LEU446      0.1561
    145  C         25.6100   23.3120  -30.9160 C.2   446  LEU446      0.2260
    146  O         26.1950   22.4750  -31.6150 O.2   446  LEU446     -0.2867
    147  CB        25.9630   25.3800  -32.2860 C.3   446  LEU446      0.0270
    148  CG        25.4650   26.5110  -33.1930 C.3   446  LEU446      0.0019
    149  CD1       26.6590   27.2090  -33.8820 C.3   446  LEU446      0.0001
    150  CD2       24.4730   25.9560  -34.2260 C.3   446  LEU446      0.0001
@<TRIPOS>BOND
     1    46    47    1
     2    47    50    1
     3    47    48    1
     4    50    51    1
     5    52    51    2
     6    51    53   am
     7   101   100    2
     8   100    99    1
     9    48    49    2
    10   103   102    1
    11    99   102    1
    12    99    98    1
    13    98    89   am
    14   114   113   ar
    15   114   112   ar
    16    60    59    1
    17    39    38    2
    18    93    94    1
    19    93    92    1
    20   113   111   ar
    21   112   110   ar
    22    89    90    2
    23    89    88    1
    24    38    37    1
    25    91    92    1
    26    91    88    1
    27    94    95    2
    28    54    55    1
    29    30    29    2
    30    88    87    1
    31    59    61    1
    32    59    58    1
    33    95    96    1
    34    95    97    1
    35   111   109   ar
    36    55    58    1
    37    55    56    1
    38   110   109   ar
    39    29    28    1
    40    36    37    1
    41    37    40    1
    42    34    33    2
    43   109   108    1
    44    43    45   ar
    45    43    41   ar
    46    45    44   ar
    47   104   105    1
    48    87    81   am
    49    56    62   am
    50    56    57    2
    51    62    63    1
    52    33    32    1
    53    33    35   am
    54    41    40    1
    55    41    42   ar
    56    32    31    1
    57    31    28    1
    58    28    27    1
    59    44    42   ar
    60    82    81    2
    61   105   108    1
    62   105   106    1
    63    81    80    1
    64    25    24    2
    65    63    64    1
    66    27    24   am
    67     4     3    2
    68    24    23    1
    69    65    64    2
    70     3     2    1
    71    64    66   am
    72   106   107    2
    73    80    79    1
    74    80    83    1
    75    22    23    1
    76    23    26    1
    77    85    83    1
    78     5     2    1
    79     5     6    1
    80    83    84    1
    81     2     1    1
    82    66    67    1
    83    70    67    1
    84    11     8   ar
    85    11    13   ar
    86    67    68    1
    87     6     8   ar
    88     6     7   ar
    89    84    86    1
    90     8    10   ar
    91    13    14   ar
    92   150   148    1
    93     7     9   ar
    94   149   148    1
    95    68    69    2
    96    68    71   am
    97    10     9   ar
    98    10    12   ar
    99   148   147    1
   100    14    12   ar
   101   140   141    1
   102   140   139    1
   103   141   142    1
   104    71    72    1
   105   147   144    1
   106   139   136    1
   107   138   137    2
   108   136   137    1
   109   136   135    1
   110    77    76    1
   111   122   120    1
   112   146   145    2
   113   144   145    1
   114   144   143    1
   115   120   121    1
   116   120   119    1
   117    76    75    1
   118    76    78    1
   119    72    75    1
   120    72    73    1
   121    74    73    2
   122    20    21    1
   123    20    19    1
   124   119   116    1
   125   118   117    2
   126    21    15    1
   127   131   129   ar
   128   131   133   ar
   129   116   117    1
   130   116   115    1
   131   117   123   am
   132   134   133    1
   133    19    16    1
   134   129   128   ar
   135    15    16    1
   136   133   132   ar
   137   123   124    1
   138    16    17    1
   139   126   125    2
   140   124   125    1
   141   124   127    1
   142   128   127    1
   143   128   130   ar
   144   132   130   ar
   145    17    18    2
