@<TRIPOS>MOLECULE
tmp/4g74B03.pdb
 107 102 0 0 0
SMALL
GASTEIGER

@<TRIPOS>ATOM
      1  N         28.8690   32.0780  -36.0790 N.3    22  TRP22      -0.1241
      2  CA        27.7530   31.4010  -36.7260 C.3    22  TRP22       0.1605
      3  C         28.0580   30.8950  -38.1390 C.2    22  TRP22       0.2264
      4  O         27.6810   29.7770  -38.4910 O.2    22  TRP22      -0.2867
      5  CB        26.5410   32.3200  -36.7650 C.3    22  TRP22       0.0550
      6  CG        25.7240   32.2880  -35.5250 C.ar   22  TRP22       0.0003
      7  CD1       25.6600   33.2470  -34.5530 C.ar   22  TRP22       0.0946
      8  CD2       24.8310   31.2500  -35.1250 C.ar   22  TRP22       0.0152
      9  NE1       24.7720   32.8660  -33.5730 N.ar   22  TRP22      -0.2442
     10  CE2       24.2520   31.6390  -33.8970 C.ar   22  TRP22       0.0810
     11  CE3       24.4610   30.0240  -35.6850 C.ar   22  TRP22       0.0012
     12  CZ2       23.3320   30.8530  -33.2160 C.ar   22  TRP22       0.0191
     13  CZ3       23.5530   29.2340  -35.0050 C.ar   22  TRP22       0.0001
     14  CH2       22.9920   29.6550  -33.7830 C.ar   22  TRP22       0.0015
     15  N         30.6320   22.4120  -39.4230 N.3    29  LYS29      -0.1245
     16  CA        29.8290   21.2320  -39.1100 C.3    29  LYS29       0.1561
     17  C         29.4180   20.4720  -40.3530 C.2    29  LYS29       0.2260
     18  O         29.2090   19.2650  -40.2960 O.2    29  LYS29      -0.2867
     19  CB        28.5740   21.6100  -38.3150 C.3    29  LYS29       0.0271
     20  CG        28.7610   21.6210  -36.8070 C.3    29  LYS29       0.0035
     21  CD        27.6750   22.4570  -36.1130 C.3    29  LYS29       0.0206
     22  CE        26.3920   21.6750  -35.8430 C.3    29  LYS29       0.1093
     23  NZ        26.5370   20.7450  -34.6880 N.3    29  LYS29      -0.1314
     24  N         20.5400   33.6580  -38.4590 N.3   353  GLN353     -0.1245
     25  CA        19.6550   32.8480  -39.2800 C.3   353  GLN353      0.1566
     26  C         20.1640   32.7860  -40.7140 C.2   353  GLN353      0.2260
     27  O         20.2780   31.7090  -41.2860 O.2   353  GLN353     -0.2867
     28  CB        18.2300   33.4060  -39.2510 C.3   353  GLN353      0.0367
     29  CG        17.2560   32.5630  -40.0550 C.3   353  GLN353      0.0905
     30  CD        15.8110   32.9480  -39.8370 C.2   353  GLN353      0.2608
     31  OE1       14.9060   32.3530  -40.4240 O.2   353  GLN353     -0.2717
     32  NE2       15.5830   33.9360  -38.9820 N.am  353  GLN353     -0.0878
     33  N         23.7100   31.0510  -40.8630 N.3   356  HIS356     -0.1241
     34  CA        23.6500   29.6050  -40.7320 C.3   356  HIS356      0.1621
     35  C         23.0960   28.8880  -41.9830 C.2   356  HIS356      0.2264
     36  O         23.5210   27.7820  -42.3050 O.2   356  HIS356     -0.2867
     37  CB        22.8450   29.2310  -39.4860 C.3   356  HIS356      0.0745
     38  CG        22.3500   27.8240  -39.4930 C.ar  356  HIS356      0.0817
     39  ND1       23.1120   26.7650  -39.0360 N.ar  356  HIS356     -0.2268
     40  CD2       21.1770   27.2910  -39.9050 C.ar  356  HIS356      0.1154
     41  CE1       22.4280   25.6460  -39.1680 C.ar  356  HIS356      0.1986
     42  NE2       21.2470   25.9370  -39.6940 N.ar  356  HIS356     -0.2212
     43  N         12.5890   32.0860  -41.4880 N.3   394  LEU394     -0.1245
     44  CA        11.8180   31.1680  -40.6650 C.3   394  LEU394      0.1561
     45  C         11.0730   31.9090  -39.5530 C.2   394  LEU394      0.2260
     46  O         10.1950   31.3480  -38.8980 O.2   394  LEU394     -0.2867
     47  CB        12.7230   30.0710  -40.1090 C.3   394  LEU394      0.0270
     48  CG        12.6920   28.7140  -40.8190 C.3   394  LEU394      0.0019
     49  CD1       12.6610   28.8630  -42.3260 C.3   394  LEU394      0.0001
     50  CD2       13.8930   27.8880  -40.4000 C.3   394  LEU394      0.0001
     51  N         12.1340   26.8090  -25.7360 N.3   430  ILE430     -0.1231
     52  CA        12.2720   25.5570  -26.4860 C.3   430  ILE430      0.1692
     53  C         12.9900   25.7530  -27.8330 C.2   430  ILE430      0.2591
     54  O         13.9520   25.0500  -28.1420 O.2   430  ILE430     -0.2718
     55  CB        10.8980   24.8830  -26.6920 C.3   430  ILE430      0.0266
     56  CG1       10.4110   24.3200  -25.3560 C.3   430  ILE430      0.0019
     57  CG2       10.9870   23.7620  -27.7180 C.3   430  ILE430      0.0020
     58  CD1        8.9040   24.2410  -25.2460 C.3   430  ILE430      0.0001
     59  N         12.5310   26.7250  -28.6150 N.am  431  LEU431     -0.1980
     60  CA        13.1670   27.0650  -29.8770 C.3   431  LEU431      0.1596
     61  C         14.6500   27.4040  -29.7330 C.2   431  LEU431      0.2287
     62  O         15.4860   26.8600  -30.4460 O.2   431  LEU431     -0.2864
     63  CB        12.4270   28.2260  -30.5410 C.3   431  LEU431      0.0297
     64  CG        11.4590   27.9110  -31.6890 C.3   431  LEU431      0.0022
     65  CD1       10.9480   26.4930  -31.5970 C.3   431  LEU431      0.0001
     66  CD2       10.2940   28.9090  -31.7140 C.3   431  LEU431      0.0001
     67  N         16.7360   24.5480  -29.0340 N.3   434  SER434     -0.1202
     68  CA        16.8430   23.6500  -30.1840 C.3   434  SER434      0.2020
     69  C         17.7800   24.2030  -31.2610 C.2   434  SER434      0.2619
     70  O         18.1320   23.5060  -32.2010 O.2   434  SER434     -0.2717
     71  CB        15.4640   23.3790  -30.7820 C.3   434  SER434      0.2103
     72  OG        15.1520   24.3720  -31.7500 O.3   434  SER434     -0.2182
     73  N         18.1880   25.4590  -31.1080 N.am  435  MET435     -0.1965
     74  CA        19.0620   26.0960  -32.0860 C.3   435  MET435      0.1736
     75  C         20.5360   26.1270  -31.6770 C.2   435  MET435      0.2616
     76  O         21.3910   26.5550  -32.4600 O.2   435  MET435     -0.2715
     77  CB        18.5920   27.5170  -32.3800 C.3   435  MET435      0.0427
     78  CG        17.3530   27.5880  -33.2460 C.3   435  MET435      0.0599
     79  SD        16.9440   29.3040  -33.6230 S.3   435  MET435     -0.1393
     80  CE        15.4790   29.5620  -32.6190 C.3   435  MET435      0.0692
     81  N         20.8240   25.6910  -30.4550 N.am  436  ILE436     -0.1963
     82  CA        22.1890   25.6450  -29.9550 C.3   436  ILE436      0.1727
     83  C         22.9860   24.5750  -30.7280 C.2   436  ILE436      0.2616
     84  O         22.4640   23.4900  -31.0170 O.2   436  ILE436     -0.2715
     85  CB        22.2030   25.3850  -28.4120 C.3   436  ILE436      0.0290
     86  CG1       21.7600   26.6510  -27.6690 C.3   436  ILE436      0.0022
     87  CG2       23.5820   24.9530  -27.9370 C.3   436  ILE436      0.0023
     88  CD1       21.5580   26.4510  -26.1870 C.3   436  ILE436      0.0001
     89  N         24.2400   24.8810  -31.0640 N.am  437  LEU437     -0.1977
     90  CA        25.0080   24.0370  -31.9850 C.3   437  LEU437      0.1596
     91  C         25.6800   22.7750  -31.3820 C.2   437  LEU437      0.2287
     92  O         26.2740   21.9840  -32.1180 O.2   437  LEU437     -0.2864
     93  CB        26.0290   24.8860  -32.7740 C.3   437  LEU437      0.0297
     94  CG        25.4620   25.9570  -33.7190 C.3   437  LEU437      0.0022
     95  CD1       26.5630   26.5840  -34.5710 C.3   437  LEU437      0.0001
     96  CD2       24.3500   25.3820  -34.6030 C.3   437  LEU437      0.0001
     97  N         23.7630   23.0820  -24.9270 N.3   442  ARG442     -0.1245
     98  CA        22.3370   22.8680  -24.7300 C.3   442  ARG442      0.1563
     99  C         22.0470   22.3580  -23.3090 C.2   442  ARG442      0.2260
    100  O         21.1290   22.8340  -22.6360 O.2   442  ARG442     -0.2867
    101  CB        21.8200   21.8890  -25.7920 C.3   442  ARG442      0.0307
    102  CG        20.3180   21.6150  -25.7620 C.3   442  ARG442      0.0489
    103  CD        19.8030   21.0860  -27.1160 C.3   442  ARG442      0.2205
    104  NE        20.6850   20.0790  -27.7160 N.pl3 442  ARG442     -0.0865
    105  CZ        21.3300   20.2350  -28.8720 C.cat 442  ARG442      0.5346
    106  NH1       21.1730   21.3520  -29.5730 N.pl3 442  ARG442      0.1354
    107  NH2       22.1250   19.2700  -29.3330 N.pl3 442  ARG442      0.1354
@<TRIPOS>BOND
     1    49    48    1
     2    36    35    2
     3    35    34    1
     4    43    44    1
     5    27    26    2
     6    33    34    1
     7    48    50    1
     8    48    47    1
     9    34    37    1
    10    26    25    1
    11    44    47    1
    12    44    45    1
    13    31    30    2
    14    17    18    2
    15    17    16    1
    16    29    30    1
    17    29    28    1
    18    40    42   ar
    19    40    38   ar
    20    30    32   am
    21    42    41   ar
    22    45    46    2
    23    38    37    1
    24    38    39   ar
    25    15    16    1
    26    25    28    1
    27    25    24    1
    28    41    39   ar
    29    16    19    1
    30     4     3    2
    31    19    20    1
    32     3     2    1
    33    20    21    1
    34     5     2    1
    35     5     6    1
    36     2     1    1
    37    21    22    1
    38    22    23    1
    39    11     8   ar
    40    11    13   ar
    41     6     8   ar
    42     6     7   ar
    43     8    10   ar
    44    13    14   ar
    45    96    94    1
    46    95    94    1
    47     7     9   ar
    48    10     9   ar
    49    10    12   ar
    50    14    12   ar
    51    94    93    1
    52    79    78    1
    53    79    80    1
    54    78    77    1
    55    93    90    1
    56    76    75    2
    57    77    74    1
    58    70    69    2
    59    92    91    2
    60    74    75    1
    61    74    73    1
    62    90    91    1
    63    90    89    1
    64    72    71    1
    65    66    64    1
    66    64    65    1
    67    64    63    1
    68    75    81   am
    69    69    73   am
    70    69    68    1
    71    89    83   am
    72    84    83    2
    73    71    68    1
    74    83    82    1
    75    63    60    1
    76    81    82    1
    77    62    61    2
    78    68    67    1
    79    82    85    1
    80    60    61    1
    81    60    59    1
    82   106   105    1
    83   107   105    1
    84   105   104    2
    85    59    53   am
    86    85    87    1
    87    85    86    1
    88    54    53    2
    89    53    52    1
    90    57    55    1
    91   104   103    1
    92    86    88    1
    93   103   102    1
    94    55    52    1
    95    55    56    1
    96    52    51    1
    97   101   102    1
    98   101    98    1
    99    56    58    1
   100    97    98    1
   101    98    99    1
   102    99   100    2
