@<TRIPOS>MOLECULE
tmp/4g74B02.pdb
 162 158 0 0 0
SMALL
GASTEIGER

@<TRIPOS>ATOM
      1  N         28.8690   32.0780  -36.0790 N.3    22  TRP22      -0.1241
      2  CA        27.7530   31.4010  -36.7260 C.3    22  TRP22       0.1605
      3  C         28.0580   30.8950  -38.1390 C.2    22  TRP22       0.2264
      4  O         27.6810   29.7770  -38.4910 O.2    22  TRP22      -0.2867
      5  CB        26.5410   32.3200  -36.7650 C.3    22  TRP22       0.0550
      6  CG        25.7240   32.2880  -35.5250 C.ar   22  TRP22       0.0003
      7  CD1       25.6600   33.2470  -34.5530 C.ar   22  TRP22       0.0946
      8  CD2       24.8310   31.2500  -35.1250 C.ar   22  TRP22       0.0152
      9  NE1       24.7720   32.8660  -33.5730 N.ar   22  TRP22      -0.2442
     10  CE2       24.2520   31.6390  -33.8970 C.ar   22  TRP22       0.0810
     11  CE3       24.4610   30.0240  -35.6850 C.ar   22  TRP22       0.0012
     12  CZ2       23.3320   30.8530  -33.2160 C.ar   22  TRP22       0.0191
     13  CZ3       23.5530   29.2340  -35.0050 C.ar   22  TRP22       0.0001
     14  CH2       22.9920   29.6550  -33.7830 C.ar   22  TRP22       0.0015
     15  N         27.0230   31.3320  -28.7940 N.3    49  PHE49      -0.1241
     16  CA        25.6160   31.3440  -29.1640 C.3    49  PHE49       0.1605
     17  C         25.0080   32.7200  -28.8620 C.2    49  PHE49       0.2264
     18  O         24.4420   32.9260  -27.7750 O.2    49  PHE49      -0.2867
     19  CB        24.8670   30.2810  -28.3880 C.3    49  PHE49       0.0534
     20  CG        23.4480   30.0900  -28.8370 C.ar   49  PHE49      -0.0203
     21  CD1       23.1660   29.4880  -30.0560 C.ar   49  PHE49      -0.0042
     22  CD2       22.3950   30.4690  -28.0240 C.ar   49  PHE49      -0.0042
     23  CE1       21.8520   29.2780  -30.4630 C.ar   49  PHE49      -0.0003
     24  CE2       21.0810   30.2680  -28.4230 C.ar   49  PHE49      -0.0003
     25  CZ        20.8100   29.6690  -29.6490 C.ar   49  PHE49      -0.0000
     26  N         22.3090   34.6280  -29.4830 N.3    51  PRO51      -0.2116
     27  CA        20.9890   34.9870  -28.9500 C.3    51  PRO51       0.1372
     28  C         20.8160   34.8710  -27.4380 C.2    51  PRO51       0.2244
     29  O         19.8600   35.4540  -26.9320 O.2    51  PRO51      -0.2868
     30  CB        20.0450   33.9930  -29.6260 C.3    51  PRO51       0.0268
     31  CG        20.7420   33.5650  -30.8280 C.3    51  PRO51       0.0207
     32  CD        22.2070   33.5680  -30.5000 C.3    51  PRO51       0.0892
     33  N         22.0560   35.6580  -37.5560 N.3   352  ALA352     -0.1231
     34  CA        22.6090   34.3190  -37.4300 C.3   352  ALA352      0.1694
     35  C         21.8350   33.3870  -38.3300 C.2   352  ALA352      0.2591
     36  O         22.3980   32.4450  -38.8910 O.2   352  ALA352     -0.2718
     37  CB        22.5270   33.8400  -36.0030 C.3   352  ALA352      0.0304
     38  N         20.5400   33.6580  -38.4590 N.am  353  GLN353     -0.1979
     39  CA        19.6550   32.8480  -39.2800 C.3   353  GLN353      0.1601
     40  C         20.1640   32.7860  -40.7140 C.2   353  GLN353      0.2287
     41  O         20.2780   31.7090  -41.2860 O.2   353  GLN353     -0.2864
     42  CB        18.2300   33.4060  -39.2510 C.3   353  GLN353      0.0394
     43  CG        17.2560   32.5630  -40.0550 C.3   353  GLN353      0.0908
     44  CD        15.8110   32.9480  -39.8370 C.2   353  GLN353      0.2608
     45  OE1       14.9060   32.3530  -40.4240 O.2   353  GLN353     -0.2717
     46  NE2       15.5830   33.9360  -38.9820 N.am  353  GLN353     -0.0878
     47  N         23.7100   31.0510  -40.8630 N.3   356  HIS356     -0.1226
     48  CA        23.6500   29.6050  -40.7320 C.3   356  HIS356      0.1752
     49  C         23.0960   28.8880  -41.9830 C.2   356  HIS356      0.2595
     50  O         23.5210   27.7820  -42.3050 O.2   356  HIS356     -0.2718
     51  CB        22.8450   29.2310  -39.4860 C.3   356  HIS356      0.0759
     52  CG        22.3500   27.8240  -39.4930 C.ar  356  HIS356      0.0818
     53  ND1       23.1120   26.7650  -39.0360 N.ar  356  HIS356     -0.2268
     54  CD2       21.1770   27.2910  -39.9050 C.ar  356  HIS356      0.1154
     55  CE1       22.4280   25.6460  -39.1680 C.ar  356  HIS356      0.1986
     56  NE2       21.2470   25.9370  -39.6940 N.ar  356  HIS356     -0.2212
     57  N         22.1410   29.4990  -42.6760 N.am  357  GLN357     -0.1979
     58  CA        21.5990   28.8970  -43.8960 C.3   357  GLN357      0.1601
     59  C         22.5630   29.0230  -45.0750 C.2   357  GLN357      0.2287
     60  O         22.5920   28.1600  -45.9540 O.2   357  GLN357     -0.2864
     61  CB        20.2430   29.5130  -44.2570 C.3   357  GLN357      0.0394
     62  CG        19.0940   28.9580  -43.4410 C.3   357  GLN357      0.0908
     63  CD        17.7920   29.6560  -43.7440 C.2   357  GLN357      0.2608
     64  OE1       17.6190   30.2080  -44.8270 O.2   357  GLN357     -0.2717
     65  NE2       16.8710   29.6460  -42.7860 N.am  357  GLN357     -0.0878
     66  N         12.5890   32.0860  -41.4880 N.3   394  LEU394     -0.1231
     67  CA        11.8180   31.1680  -40.6650 C.3   394  LEU394      0.1693
     68  C         11.0730   31.9090  -39.5530 C.2   394  LEU394      0.2593
     69  O         10.1950   31.3480  -38.8980 O.2   394  LEU394     -0.2718
     70  CB        12.7230   30.0710  -40.1090 C.3   394  LEU394      0.0284
     71  CG        12.6920   28.7140  -40.8190 C.3   394  LEU394      0.0019
     72  CD1       12.6610   28.8630  -42.3260 C.3   394  LEU394      0.0001
     73  CD2       13.8930   27.8880  -40.4000 C.3   394  LEU394      0.0001
     74  N         11.4130   33.1820  -39.3670 N.am  395  GLY395     -0.1942
     75  CA        10.7220   34.0140  -38.4030 C.3   395  GLY395      0.2014
     76  C         11.6210   34.8620  -37.5240 C.2   395  GLY395      0.2639
     77  O         12.7590   35.1670  -37.8910 O.2   395  GLY395     -0.2714
     78  N         11.0960   35.2490  -36.3630 N.am  396  ALA396     -0.1963
     79  CA        11.8180   36.0910  -35.4140 C.3   396  ALA396      0.1728
     80  C         11.2740   35.8390  -34.0120 C.2   396  ALA396      0.2616
     81  O         10.1290   35.4120  -33.8690 O.2   396  ALA396     -0.2715
     82  CB        11.6670   37.5670  -35.7960 C.3   396  ALA396      0.0334
     83  N         12.0900   36.1030  -32.9880 N.am  397  LEU397     -0.1977
     84  CA        11.6900   35.9190  -31.5850 C.3   397  LEU397      0.1596
     85  C         12.2660   37.0280  -30.7070 C.2   397  LEU397      0.2287
     86  O         13.3910   37.4610  -30.9280 O.2   397  LEU397     -0.2864
     87  CB        12.2160   34.5820  -31.0510 C.3   397  LEU397      0.0297
     88  CG        11.8970   33.2930  -31.8050 C.3   397  LEU397      0.0022
     89  CD1       13.0240   32.2980  -31.6120 C.3   397  LEU397      0.0001
     90  CD2       10.6140   32.7140  -31.2740 C.3   397  LEU397      0.0001
     91  N          6.5440   32.5490  -36.3580 N.3   409  ILE409     -0.1231
     92  CA         7.1600   31.3850  -37.0060 C.3   409  ILE409      0.1692
     93  C          6.6030   31.2300  -38.4240 C.2   409  ILE409      0.2592
     94  O          5.3860   31.1710  -38.6240 O.2   409  ILE409     -0.2718
     95  CB         6.8690   30.0790  -36.2350 C.3   409  ILE409      0.0266
     96  CG1        7.0560   30.2870  -34.7350 C.3   409  ILE409      0.0019
     97  CG2        7.7580   28.9560  -36.7260 C.3   409  ILE409      0.0020
     98  CD1        8.3870   30.9020  -34.3670 C.3   409  ILE409      0.0001
     99  N          7.4830   31.1710  -39.4130 N.am  410  ARG410     -0.1966
    100  CA         7.0260   31.0940  -40.7890 C.3   410  ARG410      0.1729
    101  C          7.9540   30.2430  -41.6420 C.2   410  ARG410      0.2616
    102  O          9.0930   29.9870  -41.2670 O.2   410  ARG410     -0.2715
    103  CB         6.8890   32.4980  -41.3810 C.3   410  ARG410      0.0348
    104  CG         8.0550   33.4000  -41.0640 C.3   410  ARG410      0.0492
    105  CD         8.0260   34.6920  -41.8750 C.3   410  ARG410      0.2205
    106  NE         9.0280   35.6370  -41.3820 N.pl3 410  ARG410     -0.0865
    107  CZ         8.7560   36.7110  -40.6410 C.cat 410  ARG410      0.5346
    108  NH1        7.4990   37.0050  -40.3280 N.pl3 410  ARG410      0.1354
    109  NH2        9.7400   37.5000  -40.2280 N.pl3 410  ARG410      0.1354
    110  N          7.4440   29.7920  -42.7830 N.am  411  SER411     -0.1950
    111  CA         8.2500   29.0900  -43.7800 C.3   411  SER411      0.1924
    112  C          7.6980   29.3980  -45.1540 C.2   411  SER411      0.2314
    113  O          6.5360   29.1000  -45.4420 O.2   411  SER411     -0.2863
    114  CB         8.2310   27.5780  -43.5560 C.3   411  SER411      0.2116
    115  OG         8.9380   26.9200  -44.6000 O.3   411  SER411     -0.2180
    116  N          2.9610   30.1550  -39.4670 N.3   416  PHE416     -0.1241
    117  CA         2.4020   29.0760  -38.6330 C.3   416  PHE416      0.1605
    118  C          1.9940   29.5080  -37.2330 C.2   416  PHE416      0.2264
    119  O          1.1690   28.8540  -36.5910 O.2   416  PHE416     -0.2867
    120  CB         3.4030   27.9340  -38.4980 C.3   416  PHE416      0.0534
    121  CG         3.8180   27.3440  -39.8070 C.ar  416  PHE416     -0.0203
    122  CD1        2.8850   26.7380  -40.6360 C.ar  416  PHE416     -0.0042
    123  CD2        5.1430   27.3830  -40.2080 C.ar  416  PHE416     -0.0042
    124  CE1        3.2650   26.1840  -41.8590 C.ar  416  PHE416     -0.0003
    125  CE2        5.5340   26.8310  -41.4240 C.ar  416  PHE416     -0.0003
    126  CZ         4.5910   26.2300  -42.2530 C.ar  416  PHE416     -0.0000
    127  N         12.5310   26.7250  -28.6150 N.3   431  LEU431     -0.1231
    128  CA        13.1670   27.0650  -29.8770 C.3   431  LEU431      0.1693
    129  C         14.6500   27.4040  -29.7330 C.2   431  LEU431      0.2592
    130  O         15.4860   26.8600  -30.4460 O.2   431  LEU431     -0.2718
    131  CB        12.4270   28.2260  -30.5410 C.3   431  LEU431      0.0284
    132  CG        11.4590   27.9110  -31.6890 C.3   431  LEU431      0.0019
    133  CD1       10.9480   26.4930  -31.5970 C.3   431  LEU431      0.0001
    134  CD2       10.2940   28.9090  -31.7140 C.3   431  LEU431      0.0001
    135  N         14.9910   28.3010  -28.8190 N.am  432  TYR432     -0.1976
    136  CA        16.3910   28.6870  -28.6740 C.3   432  TYR432      0.1639
    137  C         17.2670   27.5280  -28.1950 C.2   432  TYR432      0.2290
    138  O         18.4220   27.4080  -28.5960 O.2   432  TYR432     -0.2864
    139  CB        16.5360   29.9160  -27.7760 C.3   432  TYR432      0.0560
    140  CG        16.4150   31.2100  -28.5460 C.ar  432  TYR432     -0.0198
    141  CD1       16.8220   31.2870  -29.8700 C.ar  432  TYR432     -0.0009
    142  CD2       15.8850   32.3480  -27.9590 C.ar  432  TYR432     -0.0009
    143  CE1       16.7120   32.4620  -30.5840 C.ar  432  TYR432      0.0417
    144  CE2       15.7710   33.5280  -28.6670 C.ar  432  TYR432      0.0417
    145  CZ        16.1850   33.5790  -29.9790 C.ar  432  TYR432      0.1957
    146  OH        16.0750   34.7500  -30.6910 O.3   432  TYR432     -0.2866
    147  N         18.1880   25.4590  -31.1080 N.3   435  MET435     -0.1245
    148  CA        19.0620   26.0960  -32.0860 C.3   435  MET435      0.1570
    149  C         20.5360   26.1270  -31.6770 C.2   435  MET435      0.2261
    150  O         21.3910   26.5550  -32.4600 O.2   435  MET435     -0.2867
    151  CB        18.5920   27.5170  -32.3800 C.3   435  MET435      0.0387
    152  CG        17.3530   27.5880  -33.2460 C.3   435  MET435      0.0595
    153  SD        16.9440   29.3040  -33.6230 S.3   435  MET435     -0.1393
    154  CE        15.4790   29.5620  -32.6190 C.3   435  MET435      0.0692
    155  N         24.2400   24.8810  -31.0640 N.3   437  LEU437     -0.1245
    156  CA        25.0080   24.0370  -31.9850 C.3   437  LEU437      0.1561
    157  C         25.6800   22.7750  -31.3820 C.2   437  LEU437      0.2260
    158  O         26.2740   21.9840  -32.1180 O.2   437  LEU437     -0.2867
    159  CB        26.0290   24.8860  -32.7740 C.3   437  LEU437      0.0270
    160  CG        25.4620   25.9570  -33.7190 C.3   437  LEU437      0.0019
    161  CD1       26.5630   26.5840  -34.5710 C.3   437  LEU437      0.0001
    162  CD2       24.3500   25.3820  -34.6030 C.3   437  LEU437      0.0001
@<TRIPOS>BOND
     1    60    59    2
     2   113   112    2
     3   112   111    1
     4    59    58    1
     5    64    63    2
     6   115   114    1
     7    61    58    1
     8    61    62    1
     9    58    57    1
    10   111   114    1
    11   111   110    1
    12    63    62    1
    13    63    65   am
    14   110   101   am
    15    57    49   am
    16    72    71    1
    17    50    49    2
    18   126   124   ar
    19   126   125   ar
    20    49    48    1
    21   105   106    1
    22   105   104    1
    23   124   122   ar
    24   101   102    2
    25   101   100    1
    26    66    67    1
    27   125   123   ar
    28   106   107    2
    29   103   104    1
    30   103   100    1
    31    41    40    2
    32    47    48    1
    33    71    73    1
    34    71    70    1
    35   100    99    1
    36    48    51    1
    37    40    39    1
    38    67    70    1
    39    67    68    1
    40   107   108    1
    41   107   109    1
    42   122   121   ar
    43    45    44    2
    44   123   121   ar
    45    43    44    1
    46    43    42    1
    47    54    56   ar
    48    54    52   ar
    49    44    46   am
    50   121   120    1
    51    56    55   ar
    52    68    74   am
    53    68    69    2
    54    52    51    1
    55    52    53   ar
    56   116   117    1
    57    99    93   am
    58    74    75    1
    59    39    42    1
    60    39    38    1
    61    55    53   ar
    62    36    35    2
    63   117   120    1
    64   117   118    1
    65    94    93    2
    66     4     3    2
    67    38    35   am
    68    93    92    1
    69    75    76    1
    70    35    34    1
    71     3     2    1
    72    77    76    2
    73    33    34    1
    74    76    78   am
    75    34    37    1
    76   118   119    2
    77    92    91    1
    78    92    95    1
    79     5     2    1
    80     5     6    1
    81     2     1    1
    82    97    95    1
    83    78    79    1
    84    95    96    1
    85    82    79    1
    86    11     8   ar
    87    11    13   ar
    88     6     8   ar
    89     6     7   ar
    90    79    80    1
    91     8    10   ar
    92    13    14   ar
    93    96    98    1
    94   162   160    1
    95   161   160    1
    96     7     9   ar
    97    80    81    2
    98    80    83   am
    99    10     9   ar
   100    10    12   ar
   101    14    12   ar
   102   160   159    1
   103   153   152    1
   104   153   154    1
   105   152   151    1
   106    83    84    1
   107   159   156    1
   108   150   149    2
   109   151   148    1
   110   158   157    2
   111   148   149    1
   112   148   147    1
   113   156   157    1
   114   156   155    1
   115    88    89    1
   116    88    90    1
   117    88    87    1
   118   134   132    1
   119   132   133    1
   120   132   131    1
   121    84    87    1
   122    84    85    1
   123    86    85    2
   124    31    32    1
   125    31    30    1
   126   146   145    1
   127   143   145   ar
   128   143   141   ar
   129   131   128    1
   130    32    26    1
   131    23    21   ar
   132    23    25   ar
   133   130   129    2
   134    21    20   ar
   135   145   144   ar
   136   128   129    1
   137   128   127    1
   138   141   140   ar
   139   129   135   am
   140    25    24   ar
   141    30    27    1
   142    26    27    1
   143    16    17    1
   144    16    15    1
   145    16    19    1
   146    27    28    1
   147    17    18    2
   148    20    19    1
   149    20    22   ar
   150   135   136    1
   151   136   137    1
   152   136   139    1
   153   144   142   ar
   154   138   137    2
   155   140   142   ar
   156   140   139    1
   157    24    22   ar
   158    28    29    2
