@<TRIPOS>MOLECULE
tmp/4g74B04.pdb
 116 115 0 0 0
SMALL
GASTEIGER

@<TRIPOS>ATOM
      1  N          8.7110   36.7690  -18.1110 N.3   403  GLU403     -0.1245
      2  CA         8.0720   35.5870  -18.7070 C.3   403  GLU403      0.1567
      3  C          7.0540   35.9240  -19.8030 C.2   403  GLU403      0.2260
      4  O          5.9740   35.3350  -19.8530 O.2   403  GLU403     -0.2867
      5  CB         7.3900   34.7310  -17.6330 C.3   403  GLU403      0.0388
      6  CG         8.3030   34.1730  -16.5400 C.3   403  GLU403      0.1160
      7  CD         8.9220   35.2640  -15.6640 C.2   403  GLU403      0.3649
      8  OE1        8.1580   35.9870  -14.9600 O.co2 403  GLU403     -0.2457
      9  OE2       10.1760   35.4140  -15.6990 O.co2 403  GLU403     -0.2457
     10  N          6.5890   32.7470  -24.4170 N.3   425  PHE425     -0.1227
     11  CA         7.8380   32.6770  -23.6600 C.3   425  PHE425      0.1736
     12  C          8.3540   31.2400  -23.5180 C.2   425  PHE425      0.2595
     13  O          9.5470   30.9810  -23.6910 O.2   425  PHE425     -0.2718
     14  CB         7.6400   33.3250  -22.2810 C.3   425  PHE425      0.0547
     15  CG         8.6730   32.9330  -21.2510 C.ar  425  PHE425     -0.0202
     16  CD1       10.0180   33.2250  -21.4370 C.ar  425  PHE425     -0.0042
     17  CD2        8.2870   32.3140  -20.0730 C.ar  425  PHE425     -0.0042
     18  CE1       10.9730   32.8870  -20.4640 C.ar  425  PHE425     -0.0003
     19  CE2        9.2380   31.9610  -19.0920 C.ar  425  PHE425     -0.0003
     20  CZ        10.5810   32.2500  -19.2900 C.ar  425  PHE425     -0.0000
     21  N          7.4720   30.3020  -23.1930 N.am  426  TYR426     -0.1976
     22  CA         7.9010   28.9070  -23.1540 C.3   426  TYR426      0.1639
     23  C          8.3660   28.4530  -24.5370 C.2   426  TYR426      0.2290
     24  O          9.3890   27.7820  -24.6570 O.2   426  TYR426     -0.2864
     25  CB         6.8140   28.0020  -22.5720 C.3   426  TYR426      0.0560
     26  CG         6.5640   28.3100  -21.1110 C.ar  426  TYR426     -0.0198
     27  CD1        7.6140   28.3180  -20.1960 C.ar  426  TYR426     -0.0009
     28  CD2        5.2920   28.6270  -20.6500 C.ar  426  TYR426     -0.0009
     29  CE1        7.3970   28.6120  -18.8520 C.ar  426  TYR426      0.0417
     30  CE2        5.0630   28.9270  -19.3150 C.ar  426  TYR426      0.0417
     31  CZ         6.1200   28.9220  -18.4200 C.ar  426  TYR426      0.1957
     32  OH         5.9000   29.2170  -17.0890 O.3   426  TYR426     -0.2866
     33  N         11.9400   29.6520  -25.2120 N.3   429  ARG429     -0.1231
     34  CA        12.9450   28.8080  -24.5850 C.3   429  ARG429      0.1694
     35  C         13.2010   27.5060  -25.3490 C.2   429  ARG429      0.2591
     36  O         14.3580   27.1370  -25.5690 O.2   429  ARG429     -0.2718
     37  CB        12.5480   28.4930  -23.1470 C.3   429  ARG429      0.0321
     38  CG        12.8200   29.6050  -22.1500 C.3   429  ARG429      0.0489
     39  CD        12.4700   29.1040  -20.7570 C.3   429  ARG429      0.2205
     40  NE        13.1080   29.8730  -19.6980 N.pl3 429  ARG429     -0.0865
     41  CZ        13.0620   29.5520  -18.4070 C.cat 429  ARG429      0.5346
     42  NH1       12.4070   28.4630  -18.0150 N.pl3 429  ARG429      0.1354
     43  NH2       13.6770   30.3210  -17.5060 N.pl3 429  ARG429      0.1354
     44  N         12.1340   26.8090  -25.7360 N.am  430  ILE430     -0.1980
     45  CA        12.2720   25.5570  -26.4860 C.3   430  ILE430      0.1595
     46  C         12.9900   25.7530  -27.8330 C.2   430  ILE430      0.2287
     47  O         13.9520   25.0500  -28.1420 O.2   430  ILE430     -0.2864
     48  CB        10.8980   24.8830  -26.6920 C.3   430  ILE430      0.0276
     49  CG1       10.4110   24.3200  -25.3560 C.3   430  ILE430      0.0022
     50  CG2       10.9870   23.7620  -27.7180 C.3   430  ILE430      0.0022
     51  CD1        8.9040   24.2410  -25.2460 C.3   430  ILE430      0.0001
     52  N         16.7040   26.6720  -27.3520 N.3   433  LEU433     -0.1245
     53  CA        17.3930   25.4830  -26.8900 C.3   433  LEU433      0.1561
     54  C         17.6500   24.5480  -28.0650 C.2   433  LEU433      0.2260
     55  O         18.6730   23.8590  -28.1050 O.2   433  LEU433     -0.2867
     56  CB        16.5530   24.7900  -25.8190 C.3   433  LEU433      0.0270
     57  CG        17.2530   23.9890  -24.7210 C.3   433  LEU433      0.0019
     58  CD1       18.4610   24.7150  -24.1270 C.3   433  LEU433      0.0001
     59  CD2       16.2420   23.7160  -23.6410 C.3   433  LEU433      0.0001
     60  N         20.1160   24.4050  -20.3310 N.3   446  PHE446     -0.1241
     61  CA        19.0210   23.7140  -19.6750 C.3   446  PHE446      0.1605
     62  C         19.1760   23.6610  -18.1440 C.2   446  PHE446      0.2264
     63  O         18.2330   23.9560  -17.4110 O.2   446  PHE446     -0.2867
     64  CB        18.8720   22.3240  -20.2800 C.3   446  PHE446      0.0534
     65  CG        17.7610   21.5160  -19.6830 C.ar  446  PHE446     -0.0203
     66  CD1       16.4260   21.8400  -19.9290 C.ar  446  PHE446     -0.0042
     67  CD2       18.0480   20.4150  -18.8800 C.ar  446  PHE446     -0.0042
     68  CE1       15.3890   21.0750  -19.3740 C.ar  446  PHE446     -0.0003
     69  CE2       17.0200   19.6420  -18.3270 C.ar  446  PHE446     -0.0003
     70  CZ        15.6890   19.9700  -18.5690 C.ar  446  PHE446     -0.0000
     71  N         18.5320   27.1190  -16.5580 N.3   449  TRP449     -0.1227
     72  CA        17.1240   27.4490  -16.4340 C.3   449  TRP449      0.1737
     73  C         16.4390   26.6640  -15.3180 C.2   449  TRP449      0.2595
     74  O         15.5500   27.1850  -14.6420 O.2   449  TRP449     -0.2718
     75  CB        16.4190   27.2360  -17.7710 C.3   449  TRP449      0.0564
     76  CG        16.7920   28.2690  -18.8040 C.ar  449  TRP449      0.0003
     77  CD1       17.3660   29.4910  -18.5730 C.ar  449  TRP449      0.0946
     78  CD2       16.6090   28.1760  -20.2230 C.ar  449  TRP449      0.0152
     79  NE1       17.5490   30.1630  -19.7610 N.ar  449  TRP449     -0.2442
     80  CE2       17.0900   29.3780  -20.7900 C.ar  449  TRP449      0.0810
     81  CE3       16.0870   27.1920  -21.0730 C.ar  449  TRP449      0.0012
     82  CZ2       17.0690   29.6230  -22.1660 C.ar  449  TRP449      0.0191
     83  CZ3       16.0660   27.4350  -22.4340 C.ar  449  TRP449      0.0001
     84  CH2       16.5530   28.6400  -22.9680 C.ar  449  TRP449      0.0015
     85  N         16.8510   25.4170  -15.1200 N.am  450  ILE450     -0.1980
     86  CA        16.3270   24.6190  -14.0140 C.3   450  ILE450      0.1595
     87  C         16.7250   25.2570  -12.6980 C.2   450  ILE450      0.2287
     88  O         15.8970   25.4300  -11.8020 O.2   450  ILE450     -0.2864
     89  CB        16.8740   23.1740  -14.0340 C.3   450  ILE450      0.0276
     90  CG1       16.3240   22.4170  -15.2480 C.3   450  ILE450      0.0022
     91  CG2       16.5290   22.4310  -12.7270 C.3   450  ILE450      0.0022
     92  CD1       16.7700   20.9910  -15.2840 C.3   450  ILE450      0.0001
     93  N         17.4650   28.2730  -12.1020 N.3   452  LEU452     -0.1231
     94  CA        16.7290   29.5260  -11.9670 C.3   452  LEU452      0.1693
     95  C         15.3420   29.3630  -11.3410 C.2   452  LEU452      0.2592
     96  O         14.8650   30.2500  -10.6380 O.2   452  LEU452     -0.2718
     97  CB        16.5760   30.1710  -13.3410 C.3   452  LEU452      0.0284
     98  CG        16.1240   31.6230  -13.2840 C.3   452  LEU452      0.0019
     99  CD1       17.2910   32.4460  -12.8110 C.3   452  LEU452      0.0001
    100  CD2       15.6370   32.0940  -14.6420 C.3   452  LEU452      0.0001
    101  N         14.6960   28.2380  -11.6060 N.am  453  ALA453     -0.1966
    102  CA        13.3810   27.9670  -11.0500 C.3   453  ALA453      0.1728
    103  C         13.4210   27.8430   -9.5290 C.2   453  ALA453      0.2616
    104  O         12.4020   27.9910   -8.8680 O.2   453  ALA453     -0.2715
    105  CB        12.8020   26.6890  -11.6740 C.3   453  ALA453      0.0334
    106  N         14.6010   27.5800   -8.9710 N.am  454  PHE454     -0.1974
    107  CA        14.7320   27.3560   -7.5260 C.3   454  PHE454      0.1639
    108  C         15.5790   28.3950   -6.8040 C.2   454  PHE454      0.2290
    109  O         15.4670   28.5550   -5.5930 O.2   454  PHE454     -0.2864
    110  CB        15.3300   25.9710   -7.2320 C.3   454  PHE454      0.0560
    111  CG        14.4680   24.8230   -7.6830 C.ar  454  PHE454     -0.0200
    112  CD1       13.3560   24.4380   -6.9420 C.ar  454  PHE454     -0.0042
    113  CD2       14.7790   24.1150   -8.8420 C.ar  454  PHE454     -0.0042
    114  CE1       12.5610   23.3770   -7.3570 C.ar  454  PHE454     -0.0003
    115  CE2       13.9890   23.0590   -9.2620 C.ar  454  PHE454     -0.0003
    116  CZ        12.8780   22.6870   -8.5190 C.ar  454  PHE454     -0.0000
@<TRIPOS>BOND
     1    47    46    2
     2    55    54    2
     3    54    53    1
     4    46    45    1
     5    50    48    1
     6    52    53    1
     7    53    56    1
     8    48    45    1
     9    48    49    1
    10    45    44    1
    11    56    57    1
    12    44    35   am
    13    36    35    2
    14    49    51    1
    15    35    34    1
    16    33    34    1
    17    57    58    1
    18    57    59    1
    19    24    23    2
    20    34    37    1
    21    23    22    1
    22    10    11    1
    23    13    12    2
    24    11    12    1
    25    11    14    1
    26    12    21   am
    27    21    22    1
    28    22    25    1
    29    37    38    1
    30    84    83   ar
    31    84    82   ar
    32    25    26    1
    33    83    81   ar
    34    14    15    1
    35    82    80   ar
    36    38    39    1
    37    16    15   ar
    38    16    18   ar
    39    15    17   ar
    40    26    28   ar
    41    26    27   ar
    42    81    78   ar
    43    80    78   ar
    44    80    79   ar
    45    39    40    1
    46    28    30   ar
    47    18    20   ar
    48    60    61    1
    49    64    65    1
    50    64    61    1
    51    78    76   ar
    52    27    29   ar
    53    17    19   ar
    54    66    65   ar
    55    66    68   ar
    56     4     3    2
    57     3     2    1
    58    79    77   ar
    59    40    41    2
    60    65    67   ar
    61    61    62    1
    62    68    70   ar
    63    30    31   ar
    64    20    19   ar
    65    67    69   ar
    66    29    31   ar
    67    76    77   ar
    68    76    75    1
    69     2     1    1
    70     2     5    1
    71    70    69   ar
    72    31    32    1
    73    41    42    1
    74    41    43    1
    75    62    63    2
    76    75    72    1
    77     5     6    1
    78    71    72    1
    79     6     7    1
    80    72    73    1
    81     9     7   ar
    82     7     8   ar
    83    73    85   am
    84    73    74    2
    85    92    90    1
    86    90    89    1
    87    85    86    1
    88   100    98    1
    89    89    86    1
    90    89    91    1
    91    86    87    1
    92    97    98    1
    93    97    94    1
    94    98    99    1
    95    87    88    2
    96    93    94    1
    97    94    95    1
    98   105   102    1
    99   101    95   am
   100   101   102    1
   101    95    96    2
   102   102   103    1
   103   103   106   am
   104   103   104    2
   105   115   113   ar
   106   115   116   ar
   107   106   107    1
   108   113   111   ar
   109   116   114   ar
   110   111   110    1
   111   111   112   ar
   112   107   110    1
   113   107   108    1
   114   114   112   ar
   115   108   109    2
